data_image0
_chemical_formula_structural       H2SHCSNCSCSH2C2SCHFeH3C7H4CH2C3SCHCH2SHC3H2CHSH3CH2C2HC2SH3NC2HC2HSHNHC2H3CH2NH5C2H5FeC3H4C2H3C3SHFeH4FeHCHC2SHCHC2S2HFeH2CFeCSCFeSHC2H3SC3HCNCHFeHCH2SCH3C7H2NHCH3SCHFe2CH3CH3CNCHSH4C2SH4CH4C5HCSH2C2SCSHFeCSC2HSH2CNCH3C5H2SFeSFeSFeSFe2SNC3SH4SHC2HCH3CHC7H4C6H2C6H5SHCHCH2CHC2HCHCHC3NCH3CHCSCSCHSHCHCHC2H2CNHSC2HCHCHSH2SHC4H2CH4C2H4FeH7CHC4H4CH2C2HFeCSCSFeSHSHSC2SHFeSHSH2C2HCH4C6H5FeCN2C5H10CH2CHC2HCH3FeHSHFe3SCFeSHFeS2FeSH2CH3FeCSHCH2C3H5CH2CHCHC4H2C5H4C4H2C2HC2HSFeHCH2SHCHCH2CHSC2SH5SNC9H3C2H2CH2NC2H2CHSC3HSC3H2NHCH6C3HC2HC2H2SH3CHSCHC3SCHSCNHCSFeCH2SCHCH2FeSCSH5FeHCFeH2C3H5SHC5HSC8SC2HC4H4NC9H5NHC3S2HFeSHCH2C2H3CHCFeHSCHSH3CFeH2SC3FeC2H3CHCHCHSFeCFeH2SFeSHFeS2FeS2H2C2HS2CHCH4NC6H4C2HCH2NHC5H7SH6CHCHCHC3HFeH2FeH2SHSC2HSFeCHSHSN2CFeCSC3H3C2HC2HSHFeC3H5CSC2H2C3H4C6H4C3H2CH3NC6H4FeSCH3FeHCHSHCH2FeCSHCH3C3H2NCSHCHCSCH4CHCH2C4H4CSC3SC2NCH2CHFeH6FeS2FeSCFeSCSHFeC2H3CHSCHSC2H2C6H4SC2HCHSCHC2H2CH3CH2NCH5CH2CH2C2HCNCHCSHCHCH4C2HC2HCH4NHNFeCSH2SH3CHC2HFeCH4FeS2H5CFeSH2FeSCHC2H3SHCHC2H5CSH3C8H4C3HCNH2FeC2H2C2HC3H2C2H3CH3CHCH2CSH2NS2H5SHCS2H2CHCHFeHCHCHFeH2CH
_chemical_formula_sum              "H576 S128 C480 N32 Fe64"
_cell_length_a       42.8358
_cell_length_b       41.5912
_cell_length_c       47.4257
_cell_angle_alpha    90.0355
_cell_angle_beta     89.7192
_cell_angle_gamma    113.756

_space_group_name_H-M_alt    "P 1"
_space_group_IT_number       1

loop_
  _space_group_symop_operation_xyz
  'x, y, z'

loop_
  _atom_site_type_symbol
  _atom_site_label
  _atom_site_symmetry_multiplicity
  _atom_site_fract_x
  _atom_site_fract_y
  _atom_site_fract_z
  _atom_site_occupancy
  H   H1        1.0  0.04525  0.12632  0.04504  1.0000
  H   H2        1.0  0.42833  0.06899  0.27181  1.0000
  S   S1        1.0  0.38388  0.44662  0.15331  1.0000
  H   H3        1.0  0.43103  0.42732  0.11952  1.0000
  C   C1        1.0  0.38388  0.00867  0.14546  1.0000
  S   S2        1.0  0.40061  0.02671  0.17868  1.0000
  N   N1        1.0  0.15505  0.21751  0.04087  1.0000
  C   C2        1.0  0.06549  0.21075  0.02543  1.0000
  S   S3        1.0  0.36487  0.35979  0.03912  1.0000
  C   C3        1.0  0.38702  0.13142  0.05133  1.0000
  S   S4        1.0  0.26443  0.29427  0.03290  1.0000
  H   H4        1.0  0.42678  0.14356  0.09339  1.0000
  H   H5        1.0  0.02946  0.45349  0.19494  1.0000
  C   C4        1.0  0.34617  0.00463  0.10576  1.0000
  C   C5        1.0  0.04555  0.17561  0.03131  1.0000
  S   S5        1.0  0.24005  0.19927  0.00233  1.0000
  C   C6        1.0  0.06823  0.43730  0.16010  1.0000
  H   H6        1.0  0.13855  0.34365  0.03784  1.0000
  Fe  Fe1       1.0  0.31486  0.33214  0.01564  1.0000
  H   H7        1.0  0.21547  0.12406  0.00251  1.0000
  H   H8        1.0  0.01814  0.16540  0.02850  1.0000
  H   H9        1.0  0.29788  0.47463  0.18337  1.0000
  C   C7        1.0  0.44233  0.05812  0.09177  1.0000
  C   C8        1.0  0.37909  0.42227  0.12173  1.0000
  C   C9        1.0  0.34704  0.40819  0.10855  1.0000
  C   C10       1.0  0.34220  0.38886  0.08332  1.0000
  C   C11       1.0  0.36948  0.38356  0.07099  1.0000
  C   C12       1.0  0.40154  0.39771  0.08416  1.0000
  C   C13       1.0  0.40633  0.41685  0.10947  1.0000
  H   H10       1.0  0.32580  0.41216  0.11790  1.0000
  H   H11       1.0  0.31743  0.37813  0.07339  1.0000
  H   H12       1.0  0.42274  0.39363  0.07480  1.0000
  H   H13       1.0  0.41195  0.15386  0.04763  1.0000
  C   C14       1.0  0.45224  0.15309  0.24792  1.0000
  H   H14       1.0  0.42819  0.11352  0.01695  1.0000
  H   H15       1.0  0.07861  0.32277  0.02123  1.0000
  C   C15       1.0  0.35600  0.06915  0.05484  1.0000
  C   C16       1.0  0.40536  0.09738  0.23267  1.0000
  C   C17       1.0  0.16646  0.24801  0.06035  1.0000
  S   S6        1.0  0.19687  0.33249  0.01823  1.0000
  C   C18       1.0  0.46377  0.10644  0.22626  1.0000
  H   H16       1.0  0.05359  0.22779  0.01788  1.0000
  C   C19       1.0  0.16861  0.19214  0.05167  1.0000
  H   H17       1.0  0.16308  0.16964  0.03695  1.0000
  H   H18       1.0  0.04302  0.43418  0.15143  1.0000
  S   S7        1.0  0.98859  0.38960  0.04691  1.0000
  H   H19       1.0  0.15827  0.18217  0.07297  1.0000
  C   C20       1.0  0.44685  0.20904  0.23995  1.0000
  C   C21       1.0  0.05490  0.45805  0.20370  1.0000
  C   C22       1.0  0.10082  0.22413  0.02889  1.0000
  H   H20       1.0  0.15408  0.24049  0.08139  1.0000
  H   H21       1.0  0.37623  0.13497  0.07192  1.0000
  C   C23       1.0  0.17768  0.48160  0.21885  1.0000
  H   H22       1.0  0.40884  0.04164  0.05678  1.0000
  S   S8        1.0  0.43892  0.00836  0.24762  1.0000
  H   H23       1.0  0.40973  0.15992  0.22683  1.0000
  H   H24       1.0  0.46499  0.10575  0.28219  1.0000
  H   H25       1.0  0.44687  0.45922  0.02974  1.0000
  C   C24       1.0  0.43396  0.17242  0.23731  1.0000
  H   H26       1.0  0.38609  0.10237  0.24567  1.0000
  H   H27       1.0  0.45462  0.07777  0.22223  1.0000
  C   C25       1.0  0.11743  0.20265  0.03821  1.0000
  C   C26       1.0  0.09635  0.16682  0.04397  1.0000
  H   H28       1.0  0.36920  0.13324  0.03490  1.0000
  C   C27       1.0  0.13105  0.32818  0.01878  1.0000
  C   C28       1.0  0.35936  0.01813  0.13245  1.0000
  S   S9        1.0  0.98529  0.47043  0.24167  1.0000
  H   H29       1.0  0.19463  0.25930  0.06336  1.0000
  H   H30       1.0  0.40468  0.10619  0.21061  1.0000
  H   H31       1.0  0.42361  0.10577  0.28836  1.0000
  N   N2        1.0  0.39036  0.09723  0.04999  1.0000
  C   C29       1.0  0.40189  0.09365  0.02103  1.0000
  C   C30       1.0  0.47817  0.22739  0.25293  1.0000
  H   H32       1.0  0.39685  0.06827  0.23134  1.0000
  C   C31       1.0  0.41424  0.09362  0.07099  1.0000
  C   C32       1.0  0.46937  0.98798  0.03273  1.0000
  H   H33       1.0  0.35549  0.04249  0.05148  1.0000
  S   S10       1.0  0.27170  0.00250  0.03193  1.0000
  H   H34       1.0  0.98696  0.45726  0.13115  1.0000
  N   N3        1.0  0.08105  0.46621  0.18111  1.0000
  H   H35       1.0  0.12315  0.42984  0.17023  1.0000
  C   C33       1.0  0.45735  0.08358  0.11226  1.0000
  C   C34       1.0  0.13249  0.45037  0.18587  1.0000
  H   H36       1.0  0.43257  0.22338  0.23177  1.0000
  H   H37       1.0  0.19698  0.20446  0.05355  1.0000
  H   H38       1.0  0.47313  0.07926  0.12839  1.0000
  C   C35       1.0  0.43039  0.11939  0.09197  1.0000
  H   H39       1.0  0.44648  0.03407  0.09212  1.0000
  H   H40       1.0  0.08579  0.44236  0.14168  1.0000
  N   N4        1.0  0.44005  0.11448  0.24497  1.0000
  H   H41       1.0  0.16064  0.27008  0.05228  1.0000
  H   H42       1.0  0.05228  0.43403  0.21558  1.0000
  H   H43       1.0  0.33677  0.07153  0.04029  1.0000
  H   H44       1.0  0.17715  0.43955  0.19225  1.0000
  H   H45       1.0  0.34701  0.07019  0.07673  1.0000
  C   C36       1.0  0.98724  0.42690  0.09421  1.0000
  C   C37       1.0  0.43915  0.09818  0.27301  1.0000
  H   H46       1.0  0.35043  0.03583  0.14314  1.0000
  H   H47       1.0  0.99682  0.44958  0.08047  1.0000
  H   H48       1.0  0.40185  0.06730  0.01712  1.0000
  H   H49       1.0  0.46660  0.11967  0.20545  1.0000
  H   H50       1.0  0.06077  0.47978  0.21916  1.0000
  Fe  Fe2       1.0  0.43816  0.00876  0.20015  1.0000
  C   C38       1.0  0.42094  0.06285  0.07152  1.0000
  C   C39       1.0  0.11425  0.47106  0.19365  1.0000
  C   C40       1.0  0.45156  0.11423  0.11227  1.0000
  H   H51       1.0  0.11511  0.25148  0.02388  1.0000
  H   H52       1.0  0.36684  0.47557  0.20335  1.0000
  H   H53       1.0  0.46330  0.13391  0.12834  1.0000
  H   H54       1.0  0.45662  0.47549  0.07999  1.0000
  C   C41       1.0  0.17071  0.22955  0.01281  1.0000
  C   C42       1.0  0.46953  0.48191  0.03585  1.0000
  H   H55       1.0  0.02114  0.43958  0.00229  1.0000
  H   H56       1.0  0.38481  0.09713  0.00471  1.0000
  H   H57       1.0  0.10662  0.14838  0.05093  1.0000
  C   C43       1.0  0.16373  0.45571  0.19839  1.0000
  C   C44       1.0  0.06091  0.15370  0.04061  1.0000
  C   C45       1.0  0.09702  0.31639  0.00941  1.0000
  S   S11       1.0  0.43069  0.47126  0.22500  1.0000
  H   H58       1.0  0.06417  0.41149  0.16970  1.0000
  Fe  Fe3       1.0  0.43359  0.47216  0.17753  1.0000
  H   H59       1.0  0.19892  0.23938  0.01371  1.0000
  H   H60       1.0  0.32678  0.01141  0.09624  1.0000
  H   H61       1.0  0.33256  0.47252  0.16319  1.0000
  H   H62       1.0  0.33255  0.47376  0.22545  1.0000
  Fe  Fe4       1.0  0.24070  0.31924  0.00219  1.0000
  H   H63       1.0  0.16503  0.25150  0.00446  1.0000
  C   C46       1.0  0.15524  0.31965  0.00397  1.0000
  H   H64       1.0  0.47882  0.98873  0.05390  1.0000
  C   C47       1.0  0.98173  0.43133  0.12297  1.0000
  C   C48       1.0  0.24296  0.13439  0.00077  1.0000
  S   S12       1.0  0.48150  0.46283  0.17663  1.0000
  H   H65       1.0  0.98275  0.45507  0.02597  1.0000
  C   C49       1.0  0.98198  0.47679  0.01385  1.0000
  H   H66       1.0  0.20177  0.48552  0.22862  1.0000
  C   C50       1.0  0.43599  0.98575  0.03027  1.0000
  C   C51       1.0  0.26194  0.17099  0.00046  1.0000
  S   S13       1.0  0.00131  0.34664  0.98011  1.0000
  S   S14       1.0  0.44258  0.44823  0.86528  1.0000
  H   H67       1.0  0.34456  0.45613  0.93759  1.0000
  Fe  Fe5       1.0  0.45064  0.01555  0.79674  1.0000
  H   H68       1.0  0.36090  0.38084  0.93800  1.0000
  H   H69       1.0  0.41587  0.42566  0.92040  1.0000
  C   C52       1.0  0.30832  0.24090  0.91918  1.0000
  Fe  Fe6       1.0  0.98993  0.47547  0.80148  1.0000
  C   C53       1.0  0.33681  0.46244  0.86584  1.0000
  S   S15       1.0  0.23764  0.28185  0.96723  1.0000
  C   C54       1.0  0.34666  0.21147  0.91395  1.0000
  Fe  Fe7       1.0  0.29017  0.32066  0.95501  1.0000
  S   S16       1.0  0.30114  0.33224  0.90829  1.0000
  H   H70       1.0  0.44492  0.17275  0.73096  1.0000
  C   C55       1.0  0.36978  0.02408  0.86590  1.0000
  C   C56       1.0  0.34117  0.24292  0.91151  1.0000
  H   H71       1.0  0.35200  0.30987  0.92780  1.0000
  H   H72       1.0  0.26824  0.38610  0.88303  1.0000
  H   H73       1.0  0.37535  0.31381  0.86771  1.0000
  S   S17       1.0  0.01077  0.44322  0.82821  1.0000
  C   C57       1.0  0.11101  0.28747  0.97017  1.0000
  C   C58       1.0  0.08247  0.42918  0.76001  1.0000
  C   C59       1.0  0.29060  0.41037  0.88592  1.0000
  H   H74       1.0  0.04932  0.46997  0.71469  1.0000
  C   C60       1.0  0.30681  0.43120  0.86269  1.0000
  N   N5        1.0  0.08099  0.46051  0.74611  1.0000
  C   C61       1.0  0.35015  0.47082  0.89359  1.0000
  H   H75       1.0  0.09124  0.41396  0.74496  1.0000
  Fe  Fe8       1.0  0.45922  0.47393  0.82221  1.0000
  H   H76       1.0  0.33299  0.01732  0.89928  1.0000
  C   C62       1.0  0.05339  0.44775  0.72476  1.0000
  H   H77       1.0  0.30222  0.26369  0.91813  1.0000
  H   H78       1.0  0.02887  0.40204  0.86829  1.0000
  S   S18       1.0  0.41231  0.03038  0.82087  1.0000
  C   C63       1.0  0.28878  0.17917  0.93055  1.0000
  H   H79       1.0  0.99658  0.36136  0.90667  1.0000
  H   H80       1.0  0.02928  0.42720  0.96812  1.0000
  H   H81       1.0  0.04565  0.47299  0.97757  1.0000
  C   C64       1.0  0.00265  0.39784  0.87242  1.0000
  C   C65       1.0  0.40297  0.41570  0.87645  1.0000
  C   C66       1.0  0.37808  0.39518  0.85739  1.0000
  C   C67       1.0  0.34685  0.36990  0.86742  1.0000
  C   C68       1.0  0.34045  0.36463  0.89652  1.0000
  C   C69       1.0  0.36554  0.38468  0.91555  1.0000
  C   C70       1.0  0.39665  0.41007  0.90552  1.0000
  H   H82       1.0  0.38298  0.39863  0.83496  1.0000
  H   H83       1.0  0.32758  0.35430  0.85260  1.0000
  N   N6        1.0  0.36788  0.27662  0.90158  1.0000
  H   H84       1.0  0.39814  0.25539  0.87761  1.0000
  C   C71       1.0  0.28269  0.20954  0.92870  1.0000
  H   H85       1.0  0.04539  0.46500  0.77645  1.0000
  H   H86       1.0  0.36747  0.04711  0.85730  1.0000
  H   H87       1.0  0.00051  0.43357  0.92745  1.0000
  S   S19       1.0  0.04351  0.27721  0.97391  1.0000
  C   C72       1.0  0.14516  0.29973  0.97929  1.0000
  H   H88       1.0  0.05702  0.41129  0.76847  1.0000
  Fe  Fe9       1.0  0.00005  0.29266  0.98731  1.0000
  Fe  Fe10      1.0  0.29513  0.03577  0.99358  1.0000
  C   C73       1.0  0.32071  0.18016  0.92336  1.0000
  H   H89       1.0  0.29178  0.40286  0.93065  1.0000
  H   H90       1.0  0.39538  0.32936  0.91743  1.0000
  H   H91       1.0  0.38163  0.29536  0.94402  1.0000
  C   C74       1.0  0.39168  0.01088  0.85280  1.0000
  H   H92       1.0  0.35061  0.26844  0.85857  1.0000
  H   H93       1.0  0.29607  0.42212  0.84217  1.0000
  H   H94       1.0  0.42031  0.30038  0.88744  1.0000
  C   C75       1.0  0.30392  0.41971  0.91285  1.0000
  N   N7        1.0  0.35354  0.48401  0.84085  1.0000
  C   C76       1.0  0.98441  0.37479  0.89420  1.0000
  H   H95       1.0  0.47180  0.28256  0.71943  1.0000
  S   S20       1.0  0.31652  0.29463  0.98174  1.0000
  H   H96       1.0  0.05903  0.43205  0.70804  1.0000
  H   H97       1.0  0.33235  0.29241  0.87930  1.0000
  H   H98       1.0  0.42841  0.22305  0.72575  1.0000
  H   H99       1.0  0.25810  0.20889  0.93520  1.0000
  C   C77       1.0  0.33371  0.44973  0.91667  1.0000
  C   C78       1.0  0.36790  0.46416  0.82285  1.0000
  S   S21       1.0  0.43629  0.46084  0.77896  1.0000
  H   H100      1.0  0.26899  0.15502  0.93839  1.0000
  H   H101      1.0  0.01783  0.47988  0.93246  1.0000
  H   H102      1.0  0.34848  0.43794  0.81680  1.0000
  H   H103      1.0  0.16349  0.29327  0.96743  1.0000
  C   C79       1.0  0.46437  0.19919  0.72869  1.0000
  H   H104      1.0  0.37076  0.21028  0.90895  1.0000
  H   H105      1.0  0.41187  0.26711  0.91372  1.0000
  H   H106      1.0  0.10330  0.27144  0.95141  1.0000
  H   H107      1.0  0.02841  0.43063  0.73439  1.0000
  C   C80       1.0  0.29748  0.18398  0.99824  1.0000
  C   C81       1.0  0.37457  0.30387  0.92364  1.0000
  C   C82       1.0  0.45518  0.22756  0.72581  1.0000
  C   C83       1.0  0.35610  0.28826  0.87567  1.0000
  C   C84       1.0  0.08671  0.29562  0.98519  1.0000
  H   H108      1.0  0.34118  0.17095  0.99376  1.0000
  C   C85       1.0  0.40094  0.27457  0.89482  1.0000
  S   S22       1.0  0.44194  0.00308  0.75037  1.0000
  H   H109      1.0  0.32542  0.15652  0.92563  1.0000
  H   H110      1.0  0.38879  0.45995  0.83389  1.0000
  C   C86       1.0  0.35022  0.00727  0.88971  1.0000
  C   C87       1.0  0.98707  0.41513  0.85577  1.0000
  S   S23       1.0  0.31658  0.09589  0.99184  1.0000
  C   C88       1.0  0.98596  0.47808  0.98405  1.0000
  S   S24       1.0  0.29150  0.36026  0.98774  1.0000
  H   H111      1.0  0.37885  0.47845  0.80295  1.0000
  Fe  Fe11      1.0  0.26429  0.25891  0.99686  1.0000
  C   C89       1.0  0.02332  0.44738  0.97970  1.0000
  S   S25       1.0  0.33721  0.01632  0.99036  1.0000
  C   C90       1.0  0.07107  0.48073  0.76743  1.0000
  C   C91       1.0  0.48028  0.26162  0.72253  1.0000
  H   H112      1.0  0.16177  0.20786  0.99710  1.0000
  S   S26       1.0  0.26140  0.99601  0.96223  1.0000
  H   H113      1.0  0.09991  0.43618  0.77839  1.0000
  H   H114      1.0  0.24427  0.08291  0.99843  1.0000
  C   C92       1.0  0.25922  0.11098  0.99845  1.0000
  N   N8        1.0  0.99180  0.44975  0.96900  1.0000
  C   C93       1.0  0.29472  0.12398  0.99581  1.0000
  H   H115      1.0  0.09918  0.48523  0.69029  1.0000
  H   H116      1.0  0.30896  0.46851  0.81406  1.0000
  H   H117      1.0  0.31240  0.21205  0.99794  1.0000
  C   C94       1.0  0.31373  0.16058  0.99587  1.0000
  C   C95       1.0  0.99574  0.45510  0.93798  1.0000
  C   C96       1.0  0.11483  0.48293  0.73413  1.0000
  C   C97       1.0  0.47380  0.98745  0.98177  1.0000
  C   C98       1.0  0.13488  0.66794  0.25513  1.0000
  H   H118      1.0  0.35718  0.53172  0.31521  1.0000
  H   H119      1.0  0.30478  0.55672  0.27059  1.0000
  S   S27       1.0  0.28795  0.65069  0.30315  1.0000
  Fe  Fe12      1.0  0.46072  0.52974  0.22202  1.0000
  S   S28       1.0  0.44591  0.57308  0.24022  1.0000
  Fe  Fe13      1.0  0.31139  0.98050  0.02635  1.0000
  S   S29       1.0  0.44156  0.95631  0.19687  1.0000
  Fe  Fe14      1.0  0.44713  0.95822  0.24414  1.0000
  S   S30       1.0  0.42662  0.91370  0.27732  1.0000
  Fe  Fe15      1.0  0.99993  0.69175  0.03332  1.0000
  Fe  Fe16      1.0  0.01869  0.52565  0.22775  1.0000
  S   S31       1.0  0.07710  0.55309  0.23437  1.0000
  N   N9        1.0  0.22217  0.72273  0.28592  1.0000
  C   C99       1.0  0.46909  0.84408  0.27413  1.0000
  C   C100      1.0  0.12559  0.86794  0.01284  1.0000
  C   C101      1.0  0.08426  0.49907  0.16669  1.0000
  S   S32       1.0  0.01889  0.68259  0.07605  1.0000
  H   H120      1.0  0.17793  0.86890  0.09395  1.0000
  H   H121      1.0  0.20583  0.82945  0.10375  1.0000
  H   H122      1.0  0.44906  0.81460  0.31226  1.0000
  H   H123      1.0  0.30432  0.60161  0.18945  1.0000
  S   S33       1.0  0.34437  0.96625  0.05722  1.0000
  H   H124      1.0  0.02081  0.82170  0.01273  1.0000
  C   C102      1.0  0.32393  0.56129  0.19041  1.0000
  C   C103      1.0  0.43038  0.78264  0.27549  1.0000
  H   H125      1.0  0.40759  0.86697  0.32498  1.0000
  C   C104      1.0  0.12938  0.49732  0.21440  1.0000
  H   H126      1.0  0.37484  0.50851  0.22969  1.0000
  H   H127      1.0  0.33004  0.51912  0.25081  1.0000
  H   H128      1.0  0.09476  0.75765  0.09079  1.0000
  C   C105      1.0  0.11277  0.76929  0.07371  1.0000
  H   H129      1.0  0.37161  0.80319  0.33089  1.0000
  C   C106      1.0  0.99675  0.64536  0.09753  1.0000
  C   C107      1.0  0.15918  0.59796  0.30432  1.0000
  C   C108      1.0  0.16836  0.59598  0.27617  1.0000
  C   C109      1.0  0.14294  0.58211  0.25526  1.0000
  C   C110      1.0  0.10790  0.56947  0.26207  1.0000
  C   C111      1.0  0.09874  0.57107  0.29025  1.0000
  C   C112      1.0  0.12417  0.58537  0.31109  1.0000
  H   H130      1.0  0.39078  0.95426  0.09440  1.0000
  H   H131      1.0  0.17122  0.52245  0.24286  1.0000
  H   H132      1.0  0.07206  0.56167  0.29599  1.0000
  H   H133      1.0  0.23466  0.73341  0.33005  1.0000
  C   C113      1.0  0.36665  0.58446  0.30196  1.0000
  C   C114      1.0  0.38569  0.61169  0.28358  1.0000
  C   C115      1.0  0.40964  0.60757  0.26490  1.0000
  C   C116      1.0  0.41476  0.57616  0.26406  1.0000
  C   C117      1.0  0.39552  0.54881  0.28231  1.0000
  C   C118      1.0  0.37175  0.55303  0.30116  1.0000
  H   H134      1.0  0.42441  0.62897  0.25100  1.0000
  H   H135      1.0  0.39932  0.52463  0.28220  1.0000
  C   C119      1.0  0.46967  0.84398  0.24413  1.0000
  C   C120      1.0  0.35819  0.79463  0.28705  1.0000
  C   C121      1.0  0.36241  0.81107  0.26046  1.0000
  C   C122      1.0  0.38283  0.84735  0.25703  1.0000
  C   C123      1.0  0.39948  0.86788  0.28021  1.0000
  C   C124      1.0  0.39496  0.85148  0.30684  1.0000
  H   H136      1.0  0.34999  0.79557  0.24229  1.0000
  H   H137      1.0  0.38562  0.85937  0.23645  1.0000
  H   H138      1.0  0.44917  0.86479  0.19614  1.0000
  H   H139      1.0  0.11174  0.67842  0.21814  1.0000
  H   H140      1.0  0.24390  0.85952  0.08722  1.0000
  S   S34       1.0  0.18450  0.92852  0.01234  1.0000
  H   H141      1.0  0.17271  0.88036  0.05846  1.0000
  C   C125      1.0  0.19174  0.71187  0.26760  1.0000
  H   H142      1.0  0.14752  0.80955  0.09946  1.0000
  C   C126      1.0  0.13379  0.68784  0.23186  1.0000
  H   H143      1.0  0.15052  0.58144  0.23356  1.0000
  H   H144      1.0  0.01063  0.60337  0.15523  1.0000
  C   C127      1.0  0.16052  0.50238  0.22683  1.0000
  H   H145      1.0  0.47865  0.90959  0.19779  1.0000
  C   C128      1.0  0.44987  0.81370  0.28942  1.0000
  C   C129      1.0  0.21206  0.72217  0.31601  1.0000
  H   H146      1.0  0.16019  0.73494  0.20797  1.0000
  C   C130      1.0  0.24830  0.75853  0.27966  1.0000
  H   H147      1.0  0.19626  0.73754  0.31924  1.0000
  C   C131      1.0  0.21918  0.83689  0.08310  1.0000
  H   H148      1.0  0.38212  0.63599  0.28380  1.0000
  C   C132      1.0  0.46498  0.88574  0.21082  1.0000
  C   C133      1.0  0.37450  0.81521  0.31029  1.0000
  C   C134      1.0  0.33211  0.53736  0.20703  1.0000
  N   N10       1.0  0.19868  0.84582  0.06180  1.0000
  C   C135      1.0  0.01415  0.63737  0.11971  1.0000
  H   H149      1.0  0.20747  0.86804  0.01991  1.0000
  H   H150      1.0  0.16305  0.66317  0.29037  1.0000
  H   H151      1.0  0.19504  0.60566  0.27041  1.0000
  C   C136      1.0  0.15821  0.79886  0.02910  1.0000
  H   H152      1.0  0.37509  0.55203  0.16123  1.0000
  C   C137      1.0  0.30996  0.55777  0.24810  1.0000
  S   S35       1.0  0.33253  0.74843  0.28969  1.0000
  C   C138      1.0  0.32261  0.49090  0.17305  1.0000
  S   S36       1.0  0.46170  0.53070  0.17438  1.0000
  C   C139      1.0  0.43017  0.78169  0.24615  1.0000
  H   H153      1.0  0.04097  0.65336  0.12278  1.0000
  S   S37       1.0  0.00601  0.51339  0.18148  1.0000
  H   H154      1.0  0.21030  0.75618  0.23785  1.0000
  C   C140      1.0  0.16673  0.81462  0.05620  1.0000
  H   H155      1.0  0.22505  0.81444  0.07583  1.0000
  C   C141      1.0  0.14299  0.79893  0.07836  1.0000
  H   H156      1.0  0.29240  0.59865  0.24078  1.0000
  C   C142      1.0  0.30977  0.58311  0.20248  1.0000
  C   C143      1.0  0.23851  0.69771  0.28209  1.0000
  H   H157      1.0  0.11904  0.87891  0.03149  1.0000
  H   H158      1.0  0.11660  0.58685  0.33269  1.0000
  C   C144      1.0  0.10536  0.75440  0.04698  1.0000
  N   N11       1.0  0.34706  0.51455  0.19368  1.0000
  H   H159      1.0  0.39104  0.51974  0.16877  1.0000
  S   S38       1.0  0.00481  0.74608  0.02100  1.0000
  C   C145      1.0  0.99940  0.82710  0.00384  1.0000
  C   C146      1.0  0.99702  0.60902  0.13811  1.0000
  H   H160      1.0  0.27044  0.76610  0.29432  1.0000
  C   C147      1.0  0.30293  0.58143  0.23131  1.0000
  H   H161      1.0  0.19736  0.69505  0.32406  1.0000
  C   C148      1.0  0.19036  0.87484  0.07288  1.0000
  H   H162      1.0  0.25953  0.76014  0.25822  1.0000
  S   S39       1.0  0.18997  0.61810  0.33145  1.0000
  H   H163      1.0  0.11371  0.64298  0.25937  1.0000
  H   H164      1.0  0.26174  0.70512  0.29524  1.0000
  S   S40       1.0  0.33569  0.58782  0.32586  1.0000
  H   H165      1.0  0.12175  0.75773  0.00386  1.0000
  C   C149      1.0  0.32450  0.53613  0.23634  1.0000
  C   C150      1.0  0.16116  0.71962  0.22618  1.0000
  C   C151      1.0  0.37908  0.53635  0.17864  1.0000
  C   C152      1.0  0.16330  0.67975  0.27278  1.0000
  H   H166      1.0  0.22132  0.67047  0.28817  1.0000
  H   H167      1.0  0.32864  0.56343  0.16795  1.0000
  C   C153      1.0  0.12802  0.76910  0.02477  1.0000
  H   H168      1.0  0.02722  0.90191  0.00140  1.0000
  H   H169      1.0  0.24640  0.69706  0.25977  1.0000
  H   H170      1.0  0.23760  0.77875  0.28180  1.0000
  H   H171      1.0  0.31743  0.50556  0.15540  1.0000
  C   C154      1.0  0.38192  0.97213  0.10493  1.0000
  C   C155      1.0  0.18987  0.73158  0.24365  1.0000
  H   H172      1.0  0.08182  0.73152  0.04345  1.0000
  H   H173      1.0  0.08936  0.52118  0.18172  1.0000
  H   H174      1.0  0.21352  0.89980  0.07497  1.0000
  H   H175      1.0  0.06043  0.49576  0.15538  1.0000
  Fe  Fe17      1.0  0.31574  0.70425  0.32324  1.0000
  H   H176      1.0  0.39805  0.55491  0.19338  1.0000
  H   H177      1.0  0.41454  0.75954  0.28746  1.0000
  H   H178      1.0  0.07901  0.82062  0.01385  1.0000
  H   H179      1.0  0.44728  0.89157  0.22514  1.0000
  H   H180      1.0  0.22864  0.83911  0.02723  1.0000
  H   H181      1.0  0.41432  0.75763  0.23546  1.0000
  H   H182      1.0  0.24446  0.88250  0.04142  1.0000
  C   C156      1.0  0.35554  0.49222  0.21410  1.0000
  H   H183      1.0  0.99576  0.84700  0.01751  1.0000
  C   C157      1.0  0.22061  0.85922  0.03643  1.0000
  C   C158      1.0  0.44950  0.81182  0.23063  1.0000
  C   C159      1.0  0.10271  0.83494  0.00281  1.0000
  C   C160      1.0  0.47496  0.49093  0.06424  1.0000
  H   H184      1.0  0.17403  0.80929  0.01071  1.0000
  H   H185      1.0  0.44793  0.80994  0.20793  1.0000
  H   H186      1.0  0.42087  0.98446  0.04899  1.0000
  H   H187      1.0  0.11708  0.51412  0.22130  1.0000
  C   C161      1.0  0.35792  0.98207  0.09166  1.0000
  H   H188      1.0  0.10536  0.50751  0.15092  1.0000
  H   H189      1.0  0.41360  0.97773  0.14151  1.0000
  C   C162      1.0  0.39487  0.98535  0.13168  1.0000
  C   C163      1.0  0.42154  0.98435  0.00381  1.0000
  H   H190      1.0  0.39542  0.98199  0.00208  1.0000
  Fe  Fe18      1.0  0.24040  0.96109  0.00043  1.0000
  C   C164      1.0  0.35194  0.78804  0.52135  1.0000
  S   S41       1.0  0.34649  0.68492  0.35207  1.0000
  C   C165      1.0  0.34312  0.81295  0.57859  1.0000
  S   S42       1.0  0.27464  0.61801  0.36709  1.0000
  Fe  Fe19      1.0  0.30340  0.67260  0.38418  1.0000
  S   S43       1.0  0.31962  0.68520  0.43134  1.0000
  H   H191      1.0  0.34119  0.73062  0.57494  1.0000
  S   S44       1.0  0.27478  0.69569  0.35617  1.0000
  H   H192      1.0  0.26975  0.73440  0.53926  1.0000
  S   S45       1.0  0.28011  0.61965  0.64210  1.0000
  C   C166      1.0  0.36627  0.57563  0.49108  1.0000
  C   C167      1.0  0.35177  0.75919  0.58004  1.0000
  S   S46       1.0  0.34502  0.69433  0.62909  1.0000
  H   H193      1.0  0.32717  0.82645  0.57056  1.0000
  Fe  Fe20      1.0  0.29236  0.66528  0.61145  1.0000
  S   S47       1.0  0.27722  0.65913  0.56374  1.0000
  H   H194      1.0  0.35609  0.76202  0.60325  1.0000
  S   S48       1.0  0.26901  0.69300  0.64057  1.0000
  H   H195      1.0  0.37728  0.77150  0.56987  1.0000
  H   H196      1.0  0.26529  0.72803  0.48860  1.0000
  C   C168      1.0  0.34492  0.58833  0.50511  1.0000
  C   C169      1.0  0.32380  0.77118  0.53978  1.0000
  H   H197      1.0  0.30778  0.60902  0.44934  1.0000
  C   C170      1.0  0.29594  0.75810  0.58687  1.0000
  H   H198      1.0  0.34509  0.81648  0.60197  1.0000
  H   H199      1.0  0.28464  0.72907  0.58384  1.0000
  H   H200      1.0  0.37692  0.80407  0.52947  1.0000
  H   H201      1.0  0.36945  0.82713  0.57036  1.0000
  C   C171      1.0  0.30718  0.67666  0.46801  1.0000
  C   C172      1.0  0.27330  0.65797  0.47675  1.0000
  C   C173      1.0  0.26483  0.65288  0.50589  1.0000
  C   C174      1.0  0.28994  0.66593  0.52704  1.0000
  C   C175      1.0  0.32391  0.68408  0.51826  1.0000
  C   C176      1.0  0.33233  0.68947  0.48914  1.0000
  H   H202      1.0  0.25345  0.64779  0.46109  1.0000
  H   H203      1.0  0.23846  0.63871  0.51211  1.0000
  H   H204      1.0  0.34379  0.69417  0.53388  1.0000
  H   H205      1.0  0.35866  0.70388  0.48293  1.0000
  H   H206      1.0  0.38265  0.56669  0.50322  1.0000
  Fe  Fe21      1.0  0.32167  0.72047  0.65937  1.0000
  C   C177      1.0  0.29226  0.74955  0.52707  1.0000
  N   N12       1.0  0.32829  0.77520  0.57073  1.0000
  N   N13       1.0  0.34511  0.58547  0.41400  1.0000
  C   C178      1.0  0.36879  0.57136  0.40130  1.0000
  C   C179      1.0  0.31021  0.56316  0.40415  1.0000
  C   C180      1.0  0.35494  0.62162  0.40298  1.0000
  C   C181      1.0  0.34555  0.58625  0.44523  1.0000
  C   C182      1.0  0.36670  0.57448  0.46157  1.0000
  H   H207      1.0  0.36758  0.57117  0.37777  1.0000
  H   H208      1.0  0.34469  0.58932  0.52798  1.0000
  H   H209      1.0  0.36226  0.54372  0.40790  1.0000
  H   H210      1.0  0.30149  0.53601  0.41270  1.0000
  H   H211      1.0  0.30896  0.56133  0.38071  1.0000
  H   H212      1.0  0.29117  0.57366  0.41065  1.0000
  H   H213      1.0  0.35732  0.62264  0.37957  1.0000
  H   H214      1.0  0.33582  0.63240  0.40825  1.0000
  H   H215      1.0  0.37976  0.64000  0.41181  1.0000
  H   H216      1.0  0.38388  0.56440  0.45211  1.0000
  C   C183      1.0  0.32424  0.59915  0.46027  1.0000
  H   H217      1.0  0.30007  0.76242  0.61000  1.0000
  H   H218      1.0  0.27686  0.76864  0.58072  1.0000
  C   C184      1.0  0.32389  0.59997  0.48973  1.0000
  H   H219      1.0  0.39578  0.58780  0.40686  1.0000
  C   C185      1.0  0.31740  0.76243  0.48036  1.0000
  C   C186      1.0  0.28927  0.74554  0.49779  1.0000
  H   H220      1.0  0.16086  0.60167  0.66069  1.0000
  C   C187      1.0  0.34867  0.78367  0.49211  1.0000
  H   H221      1.0  0.31519  0.75807  0.45776  1.0000
  H   H222      1.0  0.37065  0.79615  0.47845  1.0000
  H   H223      1.0  0.30737  0.60995  0.50072  1.0000
  Fe  Fe22      1.0  0.33163  0.65080  0.66160  1.0000
  H   H224      1.0  0.09792  0.56903  0.66499  1.0000
  S   S49       1.0  0.34251  0.78119  0.66154  1.0000
  H   H225      1.0  0.36743  0.85672  0.66085  1.0000
  Fe  Fe23      1.0  0.24851  0.64140  0.33711  1.0000
  Fe  Fe24      1.0  0.31621  0.63122  0.33394  1.0000
  Fe  Fe25      1.0  0.26028  0.64957  0.67209  1.0000
  S   S50       1.0  0.31173  0.67897  0.69287  1.0000
  C   C188      1.0  0.10922  0.65827  0.74914  1.0000
  Fe  Fe26      1.0  0.44424  0.51788  0.77523  1.0000
  S   S51       1.0  0.40151  0.53704  0.76681  1.0000
  H   H226      1.0  0.99303  0.66379  0.90517  1.0000
  Fe  Fe27      1.0  0.46043  0.96033  0.75916  1.0000
  S   S52       1.0  0.43463  0.90099  0.74842  1.0000
  S   S53       1.0  0.02697  0.53131  0.79383  1.0000
  Fe  Fe28      1.0  0.01266  0.52119  0.74833  1.0000
  S   S54       1.0  0.05204  0.54096  0.71201  1.0000
  H   H227      1.0  0.27596  0.79035  0.75786  1.0000
  H   H228      1.0  0.32836  0.82893  0.73277  1.0000
  C   C189      1.0  0.36874  0.81398  0.68584  1.0000
  H   H229      1.0  0.19571  0.68005  0.75028  1.0000
  H   H230      1.0  0.40317  0.90388  0.69354  1.0000
  H   H231      1.0  0.06447  0.84609  0.94136  1.0000
  Fe  Fe29      1.0  0.03298  0.73943  0.98302  1.0000
  C   C190      1.0  0.16739  0.68014  0.71323  1.0000
  S   S55       1.0  0.08149  0.78064  0.96343  1.0000
  H   H232      1.0  0.39307  0.53409  0.82897  1.0000
  C   C191      1.0  0.14921  0.59400  0.68126  1.0000
  H   H233      1.0  0.04400  0.61430  0.73465  1.0000
  H   H234      1.0  0.30129  0.93439  0.80675  1.0000
  C   C192      1.0  0.16475  0.87241  0.97472  1.0000
  C   C193      1.0  0.14155  0.83975  0.96435  1.0000
  C   C194      1.0  0.11037  0.82088  0.97824  1.0000
  H   H235      1.0  0.18855  0.88665  0.96371  1.0000
  H   H236      1.0  0.14774  0.82911  0.94534  1.0000
  H   H237      1.0  0.15535  0.52256  0.67283  1.0000
  H   H238      1.0  0.00793  0.81367  0.93424  1.0000
  H   H239      1.0  0.41306  0.67632  0.74948  1.0000
  C   C195      1.0  0.16981  0.60235  0.70530  1.0000
  H   H240      1.0  0.36597  0.94528  0.74944  1.0000
  H   H241      1.0  0.25453  0.81329  0.79842  1.0000
  C   C196      1.0  0.35939  0.59286  0.72105  1.0000
  H   H242      1.0  0.35021  0.56467  0.76057  1.0000
  C   C197      1.0  0.13543  0.67376  0.70210  1.0000
  H   H243      1.0  0.09547  0.61989  0.79895  1.0000
  C   C198      1.0  0.38180  0.51802  0.84815  1.0000
  C   C199      1.0  0.09748  0.56513  0.71034  1.0000
  C   C200      1.0  0.11810  0.57377  0.73440  1.0000
  C   C201      1.0  0.15387  0.59203  0.73183  1.0000
  H   H244      1.0  0.10670  0.56627  0.75502  1.0000
  H   H245      1.0  0.16942  0.59825  0.75060  1.0000
  C   C202      1.0  0.37995  0.60339  0.69689  1.0000
  C   C203      1.0  0.40777  0.59361  0.69433  1.0000
  C   C204      1.0  0.41495  0.57361  0.71545  1.0000
  C   C205      1.0  0.39423  0.56288  0.73950  1.0000
  C   C206      1.0  0.36648  0.57273  0.74214  1.0000
  H   H246      1.0  0.32549  0.92280  0.83326  1.0000
  H   H247      1.0  0.18942  0.68708  0.69941  1.0000
  H   H248      1.0  0.43623  0.56615  0.71287  1.0000
  H   H249      1.0  0.37555  0.93997  0.89545  1.0000
  C   C207      1.0  0.40974  0.86830  0.72346  1.0000
  C   C208      1.0  0.39721  0.87666  0.69853  1.0000
  C   C209      1.0  0.38124  0.80563  0.71077  1.0000
  C   C210      1.0  0.40147  0.83255  0.72938  1.0000
  H   H250      1.0  0.37531  0.77841  0.71578  1.0000
  H   H251      1.0  0.41082  0.82558  0.74857  1.0000
  C   C211      1.0  0.08482  0.64020  0.79710  1.0000
  C   C212      1.0  0.09834  0.89712  0.95319  1.0000
  H   H252      1.0  0.37357  0.49311  0.89804  1.0000
  C   C213      1.0  0.14233  0.66537  0.75987  1.0000
  C   C214      1.0  0.35181  0.97657  0.90020  1.0000
  H   H253      1.0  0.07021  0.50475  0.75791  1.0000
  S   S56       1.0  0.98540  0.71507  0.95685  1.0000
  Fe  Fe30      1.0  0.30229  0.97462  0.96198  1.0000
  H   H254      1.0  0.14686  0.66205  0.78181  1.0000
  C   C215      1.0  0.43552  0.67377  0.74102  1.0000
  H   H255      1.0  0.33798  0.60017  0.72344  1.0000
  H   H256      1.0  0.37280  0.53402  0.86217  1.0000
  S   S57       1.0  0.32433  0.95181  0.92750  1.0000
  H   H257      1.0  0.14203  0.49053  0.77408  1.0000
  C   C216      1.0  0.17610  0.51803  0.74111  1.0000
  H   H258      1.0  0.39359  0.95656  0.80723  1.0000
  C   C217      1.0  0.06668  0.86850  0.95403  1.0000
  H   H259      1.0  0.46000  0.60976  0.79035  1.0000
  H   H260      1.0  0.06093  0.63050  0.80996  1.0000
  C   C218      1.0  0.37411  0.96366  0.88738  1.0000
  H   H261      1.0  0.98340  0.85806  0.94174  1.0000
  S   S58       1.0  0.46656  0.97139  0.80615  1.0000
  C   C219      1.0  0.11986  0.49288  0.70520  1.0000
  C   C220      1.0  0.47211  0.67710  0.70138  1.0000
  S   S59       1.0  0.03092  0.68675  0.99650  1.0000
  H   H262      1.0  0.05442  0.67582  0.74536  1.0000
  H   H263      1.0  0.35953  0.88954  0.74753  1.0000
  H   H264      1.0  0.28428  0.87357  0.81396  1.0000
  H   H265      1.0  0.10241  0.66491  0.80731  1.0000
  H   H266      1.0  0.36273  0.97741  0.77245  1.0000
  S   S60       1.0  0.21532  0.62564  0.70381  1.0000
  N   N14       1.0  0.34415  0.92522  0.79045  1.0000
  C   C221      1.0  0.37789  0.92899  0.80104  1.0000
  C   C222      1.0  0.34950  0.94930  0.76605  1.0000
  C   C223      1.0  0.32721  0.93720  0.81311  1.0000
  C   C224      1.0  0.32466  0.88835  0.78167  1.0000
  C   C225      1.0  0.29464  0.86535  0.79590  1.0000
  C   C226      1.0  0.33628  0.87404  0.75876  1.0000
  C   C227      1.0  0.27726  0.83046  0.78722  1.0000
  C   C228      1.0  0.31872  0.83920  0.75025  1.0000
  C   C229      1.0  0.28925  0.81745  0.76442  1.0000
  H   H267      1.0  0.39289  0.92188  0.78488  1.0000
  H   H268      1.0  0.32479  0.94577  0.75625  1.0000
  H   H269      1.0  0.37537  0.91192  0.81973  1.0000
  C   C230      1.0  0.44398  0.68137  0.71272  1.0000
  C   C231      1.0  0.10435  0.92654  0.96988  1.0000
  H   H270      1.0  0.42389  0.60157  0.67580  1.0000
  H   H271      1.0  0.31500  0.50466  0.83745  1.0000
  C   C232      1.0  0.18017  0.52706  0.71266  1.0000
  H   H272      1.0  0.42808  0.68962  0.69931  1.0000
  H   H273      1.0  0.34182  0.96548  0.81819  1.0000
  N   N15       1.0  0.07824  0.64604  0.76718  1.0000
  C   C233      1.0  0.98600  0.63787  0.89627  1.0000
  C   C234      1.0  0.11340  0.57547  0.68381  1.0000
  H   H274      1.0  0.02948  0.60198  0.76972  1.0000
  H   H275      1.0  0.08149  0.69836  0.77419  1.0000
  C   C235      1.0  0.39443  0.98107  0.86412  1.0000
  H   H276      1.0  0.19791  0.52860  0.75501  1.0000
  S   S61       1.0  0.46323  0.52921  0.81978  1.0000
  C   C236      1.0  0.14398  0.49628  0.75177  1.0000
  C   C237      1.0  0.04648  0.89966  0.98773  1.0000
  C   C238      1.0  0.05280  0.61227  0.75629  1.0000
  H   H277      1.0  0.03993  0.66409  0.78075  1.0000
  S   S62       1.0  0.98899  0.59684  0.81890  1.0000
  C   C239      1.0  0.06293  0.67228  0.76680  1.0000
  C   C240      1.0  0.10677  0.66324  0.71973  1.0000
  C   C241      1.0  0.17085  0.67613  0.74203  1.0000
  H   H278      1.0  0.20489  0.54483  0.70460  1.0000
  H   H279      1.0  0.06357  0.59208  0.75565  1.0000
  N   N16       1.0  0.00631  0.83852  0.97396  1.0000
  H   H280      1.0  0.08252  0.65831  0.71001  1.0000
  C   C242      1.0  0.32842  0.49218  0.82408  1.0000
  H   H281      1.0  0.11884  0.89591  0.94030  1.0000
  H   H282      1.0  0.00246  0.65704  0.85414  1.0000
  H   H283      1.0  0.08331  0.95087  1.00000  1.0000
  H   H284      1.0  0.44735  0.65606  0.77987  1.0000
  H   H285      1.0  0.41168  0.97099  0.85468  1.0000
  H   H286      1.0  0.02354  0.79773  0.96421  1.0000
  C   C243      1.0  0.15215  0.51445  0.69477  1.0000
  C   C244      1.0  0.45523  0.66196  0.75815  1.0000
  C   C245      1.0  0.99133  0.63397  0.86736  1.0000
  H   H287      1.0  0.34093  0.51048  0.80628  1.0000
  C   C246      1.0  0.03979  0.86877  0.97166  1.0000
  C   C247      1.0  0.37688  0.84973  0.67996  1.0000
  H   H288      1.0  0.40324  0.51403  0.85856  1.0000
  C   C248      1.0  0.00425  0.80759  0.95716  1.0000
  C   C249      1.0  0.07840  0.92793  0.98696  1.0000
  H   H289      1.0  0.12944  0.94799  0.96995  1.0000
  H   H290      1.0  0.46925  0.58993  0.75983  1.0000
  S   S63       1.0  0.37275  0.62929  0.66960  1.0000
  H   H291      1.0  0.08883  0.48898  0.78559  1.0000
  H   H292      1.0  0.47795  0.68230  0.67915  1.0000
  H   H293      1.0  0.13279  0.67617  0.67957  1.0000
  C   C250      1.0  0.15671  0.88691  0.99886  1.0000
  H   H294      1.0  0.98687  0.51098  0.94740  1.0000
  S   S64       1.0  0.27865  0.93709  0.99781  1.0000
  C   C251      1.0  0.48112  0.60883  0.77721  1.0000
  H   H295      1.0  0.42901  0.98411  0.95900  1.0000
  C   C252      1.0  0.44047  0.98541  0.97959  1.0000
  C   C253      1.0  0.98235  0.60046  0.85546  1.0000
  C   C254      1.0  0.98436  0.50761  0.96999  1.0000
  S   S65       1.0  0.74140  0.38458  0.29192  1.0000
  C   C255      1.0  0.48924  0.98857  0.00842  1.0000
  H   H296      1.0  0.53887  0.01557  0.05003  1.0000
  S   S66       1.0  0.64662  0.34713  0.29660  1.0000
  C   C256      1.0  0.77881  0.30953  0.24349  1.0000
  N   N17       1.0  0.58881  0.46574  0.19698  1.0000
  H   H297      1.0  0.58454  0.06892  0.10501  1.0000
  C   C257      1.0  0.48397  0.17270  0.26105  1.0000
  S   S67       1.0  0.52012  0.08208  0.27625  1.0000
  Fe  Fe31      1.0  0.64765  0.02603  0.03178  1.0000
  C   C258      1.0  0.58040  0.04201  0.10955  1.0000
  H   H298      1.0  0.57944  0.46319  0.32054  1.0000
  H   H299      1.0  0.85800  0.45083  0.32937  1.0000
  S   S68       1.0  0.90367  0.47271  0.28172  1.0000
  C   C259      1.0  0.59101  0.99046  0.09883  1.0000
  H   H300      1.0  0.84903  0.10382  0.02105  1.0000
  C   C260      1.0  0.84559  0.17962  0.01009  1.0000
  H   H301      1.0  0.66236  0.41812  0.26454  1.0000
  H   H302      1.0  0.78411  0.48296  0.30549  1.0000
  Fe  Fe32      1.0  0.49574  0.03869  0.24302  1.0000
  S   S69       1.0  0.49363  0.42256  0.24417  1.0000
  C   C261      1.0  0.53682  0.99094  0.03934  1.0000
  S   S70       1.0  0.87859  0.21671  0.02587  1.0000
  H   H303      1.0  0.54097  0.44301  0.17469  1.0000
  H   H304      1.0  0.54179  0.12857  0.32384  1.0000
  H   H305      1.0  0.80504  0.34804  0.30700  1.0000
  H   H306      1.0  0.48822  0.25576  0.25482  1.0000
  H   H307      1.0  0.56525  0.41697  0.17370  1.0000
  Fe  Fe33      1.0  0.69470  0.36017  0.32175  1.0000
  H   H308      1.0  0.61726  0.46662  0.15890  1.0000
  C   C262      1.0  0.64841  0.42847  0.25081  1.0000
  Fe  Fe34      1.0  0.97383  0.33879  0.02189  1.0000
  H   H309      1.0  0.49939  0.15994  0.26945  1.0000
  H   H310      1.0  0.51844  0.36865  0.25255  1.0000
  C   C263      1.0  0.78928  0.13063  0.01441  1.0000
  C   C264      1.0  0.79455  0.02052  0.00129  1.0000
  C   C265      1.0  0.60976  0.45384  0.21561  1.0000
  H   H311      1.0  0.85935  0.37247  0.28267  1.0000
  H   H312      1.0  0.90772  0.37486  0.26080  1.0000
  H   H313      1.0  0.52131  0.22352  0.27333  1.0000
  H   H314      1.0  0.65019  0.39716  0.21538  1.0000
  H   H315      1.0  0.74066  0.45674  0.26887  1.0000
  S   S71       1.0  0.69966  0.02442  0.03225  1.0000
  H   H316      1.0  0.64180  0.46166  0.28282  1.0000
  C   C266      1.0  0.58036  0.20283  0.28423  1.0000
  C   C267      1.0  0.56867  0.18145  0.30810  1.0000
  C   C268      1.0  0.55105  0.14463  0.30518  1.0000
  C   C269      1.0  0.54499  0.12846  0.27845  1.0000
  C   C270      1.0  0.55735  0.14976  0.25459  1.0000
  H   H317      1.0  0.81526  0.16620  0.04814  1.0000
  S   S72       1.0  0.62273  0.04865  0.06423  1.0000
  C   C271      1.0  0.57304  0.41204  0.30531  1.0000
  C   C272      1.0  0.55595  0.38570  0.28574  1.0000
  C   C273      1.0  0.53200  0.38957  0.26716  1.0000
  C   C274      1.0  0.52528  0.42006  0.26741  1.0000
  C   C275      1.0  0.54297  0.44678  0.28654  1.0000
  C   C276      1.0  0.56640  0.44259  0.30553  1.0000
  C   C277      1.0  0.64141  0.41665  0.22313  1.0000
  C   C278      1.0  0.61779  0.46570  0.24386  1.0000
  S   S73       1.0  0.92548  0.47362  0.20021  1.0000
  C   C279      1.0  0.81670  0.15934  0.02631  1.0000
  C   C280      1.0  0.78660  0.40905  0.28981  1.0000
  H   H318      1.0  0.53794  0.47026  0.28722  1.0000
  C   C281      1.0  0.84262  0.44116  0.31071  1.0000
  C   C282      1.0  0.85847  0.44802  0.28398  1.0000
  C   C283      1.0  0.83807  0.43527  0.26012  1.0000
  C   C284      1.0  0.80248  0.41598  0.26305  1.0000
  H   H319      1.0  0.90740  0.34304  0.20490  1.0000
  H   H320      1.0  0.84956  0.44022  0.23940  1.0000
  H   H321      1.0  0.78704  0.40625  0.24444  1.0000
  H   H322      1.0  0.88573  0.31775  0.23530  1.0000
  N   N18       1.0  0.87271  0.36136  0.22574  1.0000
  C   C285      1.0  0.86817  0.37965  0.20021  1.0000
  C   C286      1.0  0.90156  0.38711  0.24197  1.0000
  C   C287      1.0  0.88272  0.33265  0.21676  1.0000
  C   C288      1.0  0.84035  0.34649  0.24198  1.0000
  C   C289      1.0  0.83787  0.35463  0.27085  1.0000
  C   C290      1.0  0.80993  0.32297  0.22892  1.0000
  C   C291      1.0  0.80667  0.34068  0.28527  1.0000
  C   C292      1.0  0.81031  0.06742  0.04778  1.0000
  C   C293      1.0  0.63690  0.45314  0.26104  1.0000
  H   H323      1.0  0.85892  0.40026  0.20593  1.0000
  H   H324      1.0  0.89251  0.39259  0.18821  1.0000
  H   H325      1.0  0.84974  0.36151  0.18508  1.0000
  H   H326      1.0  0.89600  0.40983  0.24894  1.0000
  H   H327      1.0  0.92536  0.39809  0.22911  1.0000
  N   N19       1.0  0.52387  0.98878  0.01008  1.0000
  H   H328      1.0  0.86360  0.31358  0.20255  1.0000
  C   C294      1.0  0.55849  0.43494  0.18728  1.0000
  C   C295      1.0  0.57456  0.18663  0.25750  1.0000
  C   C296      1.0  0.80701  0.42180  0.31366  1.0000
  S   S74       1.0  0.60043  0.24979  0.28618  1.0000
  S   S75       1.0  0.49455  0.04144  0.19548  1.0000
  H   H329      1.0  0.58347  0.20277  0.23885  1.0000
  Fe  Fe35      1.0  0.92542  0.26229  0.00746  1.0000
  S   S76       1.0  0.97595  0.28632  0.03054  1.0000
  H   H330      1.0  0.56077  0.36209  0.28519  1.0000
  C   C297      1.0  0.77617  0.01085  0.02718  1.0000
  H   H331      1.0  0.55340  0.13795  0.23388  1.0000
  H   H332      1.0  0.80987  0.31506  0.20721  1.0000
  C   C298      1.0  0.77431  0.48371  0.23468  1.0000
  C   C299      1.0  0.59653  0.02525  0.09277  1.0000
  H   H333      1.0  0.54743  0.03777  0.14534  1.0000
  H   H334      1.0  0.76712  0.11560  0.02709  1.0000
  H   H335      1.0  0.54357  0.41933  0.20555  1.0000
  C   C300      1.0  0.77715  0.31862  0.27154  1.0000
  H   H336      1.0  0.81578  0.08571  0.06523  1.0000
  C   C301      1.0  0.55931  0.02440  0.13240  1.0000
  Fe  Fe36      1.0  0.62575  0.29439  0.31848  1.0000
  H   H337      1.0  0.75570  0.29225  0.23297  1.0000
  S   S77       1.0  0.96430  0.40702  0.17760  1.0000
  C   C302      1.0  0.98040  0.39338  0.08313  1.0000
  H   H338      1.0  0.61757  0.41908  0.18444  1.0000
  S   S78       1.0  0.60247  0.40805  0.33017  1.0000
  H   H339      1.0  0.75284  0.30900  0.28261  1.0000
  H   H340      1.0  0.55987  0.47802  0.22945  1.0000
  H   H341      1.0  0.48960  0.11486  0.23553  1.0000
  C   C303      1.0  0.78403  0.03413  0.04995  1.0000
  Fe  Fe37      1.0  0.97061  0.45973  0.19600  1.0000
  H   H342      1.0  0.76910  0.02647  0.06924  1.0000
  H   H343      1.0  0.60891  0.48401  0.25351  1.0000
  S   S79       1.0  0.92199  0.31459  0.00236  1.0000
  C   C304      1.0  0.76596  0.47550  0.26294  1.0000
  C   C305      1.0  0.62255  0.42922  0.20568  1.0000
  C   C306      1.0  0.82910  0.07754  0.02288  1.0000
  Fe  Fe38      1.0  0.48172  0.46668  0.22406  1.0000
  C   C307      1.0  0.60916  0.48406  0.17199  1.0000
  C   C308      1.0  0.49672  0.20923  0.26342  1.0000
  H   H344      1.0  0.56297  0.99129  0.03967  1.0000
  H   H345      1.0  0.76167  0.18639  0.01532  1.0000
  H   H346      1.0  0.95385  0.34610  0.14381  1.0000
  C   C309      1.0  0.96300  0.36874  0.13000  1.0000
  H   H347      1.0  0.57278  0.19332  0.32881  1.0000
  C   C310      1.0  0.96808  0.36425  0.10112  1.0000
  H   H348      1.0  0.75518  0.47164  0.21866  1.0000
  C   C311      1.0  0.55427  0.98982  0.13879  1.0000
  H   H349      1.0  0.96284  0.33834  0.09283  1.0000
  S   S80       1.0  0.50419  0.98852  0.24270  1.0000
  Fe  Fe39      1.0  0.49834  0.98885  0.19552  1.0000
  C   C312      1.0  0.96975  0.40226  0.14102  1.0000
  Fe  Fe40      1.0  0.62632  0.36750  0.33273  1.0000
  H   H350      1.0  0.54848  0.04443  0.00217  1.0000
  H   H351      1.0  0.83752  0.42013  0.65442  1.0000
  S   S81       1.0  0.67562  0.38407  0.35721  1.0000
  Fe  Fe41      1.0  0.70549  0.35733  0.65361  1.0000
  S   S82       1.0  0.60207  0.31427  0.35349  1.0000
  H   H352      1.0  0.57423  0.29807  0.48699  1.0000
  Fe  Fe42      1.0  0.65234  0.32964  0.37659  1.0000
  S   S83       1.0  0.65098  0.31495  0.42441  1.0000
  S   S84       1.0  0.76426  0.38387  0.65660  1.0000
  Fe  Fe43      1.0  0.65153  0.33958  0.60594  1.0000
  S   S85       1.0  0.67822  0.30876  0.62713  1.0000
  S   S86       1.0  0.65186  0.35171  0.55771  1.0000
  H   H353      1.0  0.57530  0.41695  0.38783  1.0000
  H   H354      1.0  0.56445  0.40982  0.46390  1.0000
  C   C313      1.0  0.74143  0.35680  0.52211  1.0000
  C   C314      1.0  0.57196  0.40947  0.41062  1.0000
  H   H355      1.0  0.76840  0.32470  0.57448  1.0000
  S   S87       1.0  0.68068  0.38862  0.63145  1.0000
  S   S88       1.0  0.60713  0.32131  0.63743  1.0000
  C   C315      1.0  0.57432  0.33297  0.45340  1.0000
  H   H356      1.0  0.57987  0.31677  0.43798  1.0000
  C   C316      1.0  0.77252  0.36869  0.47793  1.0000
  H   H357      1.0  0.59092  0.43222  0.42215  1.0000
  H   H358      1.0  0.77260  0.36645  0.45514  1.0000
  H   H359      1.0  0.56003  0.39006  0.51246  1.0000
  H   H360      1.0  0.56527  0.33464  0.52458  1.0000
  N   N20       1.0  0.57718  0.37674  0.41580  1.0000
  C   C317      1.0  0.65142  0.32600  0.46136  1.0000
  C   C318      1.0  0.65738  0.35994  0.47086  1.0000
  C   C319      1.0  0.65707  0.36711  0.50014  1.0000
  C   C320      1.0  0.65110  0.34071  0.52071  1.0000
  C   C321      1.0  0.64555  0.30688  0.51124  1.0000
  C   C322      1.0  0.64562  0.29965  0.48195  1.0000
  H   H361      1.0  0.66229  0.38077  0.45567  1.0000
  H   H362      1.0  0.66161  0.39345  0.50690  1.0000
  H   H363      1.0  0.64102  0.28610  0.52646  1.0000
  H   H364      1.0  0.64108  0.27329  0.47519  1.0000
  C   C323      1.0  0.75462  0.34113  0.58118  1.0000
  C   C324      1.0  0.61261  0.38354  0.40728  1.0000
  H   H365      1.0  0.57706  0.18626  0.64968  1.0000
  C   C325      1.0  0.74189  0.35400  0.49276  1.0000
  H   H366      1.0  0.54573  0.40625  0.41666  1.0000
  H   H367      1.0  0.72744  0.32707  0.57503  1.0000
  N   N21       1.0  0.77050  0.37688  0.56873  1.0000
  H   H368      1.0  0.80259  0.39608  0.60532  1.0000
  C   C326      1.0  0.80455  0.39504  0.58192  1.0000
  C   C327      1.0  0.74958  0.39660  0.57650  1.0000
  C   C328      1.0  0.77186  0.37434  0.53762  1.0000
  C   C329      1.0  0.80278  0.38913  0.52184  1.0000
  C   C330      1.0  0.56636  0.34267  0.50271  1.0000
  H   H369      1.0  0.55741  0.32450  0.39760  1.0000
  H   H370      1.0  0.61816  0.39373  0.38534  1.0000
  H   H371      1.0  0.71830  0.34039  0.48139  1.0000
  H   H372      1.0  0.61771  0.35940  0.40806  1.0000
  H   H373      1.0  0.82141  0.38108  0.57749  1.0000
  H   H374      1.0  0.71695  0.34519  0.53261  1.0000
  H   H375      1.0  0.55619  0.35772  0.37470  1.0000
  S   S89       1.0  0.67476  0.30640  0.34231  1.0000
  H   H376      1.0  0.81730  0.42279  0.57469  1.0000
  H   H377      1.0  0.75969  0.42307  0.56652  1.0000
  H   H378      1.0  0.72260  0.38287  0.56980  1.0000
  H   H379      1.0  0.74890  0.40015  0.59973  1.0000
  H   H380      1.0  0.82722  0.40308  0.53165  1.0000
  H   H381      1.0  0.63146  0.40322  0.42132  1.0000
  C   C331      1.0  0.80290  0.38623  0.49242  1.0000
  H   H382      1.0  0.52626  0.34245  0.40355  1.0000
  C   C332      1.0  0.55321  0.34915  0.39723  1.0000
  H   H383      1.0  0.75478  0.34196  0.60468  1.0000
  C   C333      1.0  0.57198  0.36488  0.44556  1.0000
  H   H384      1.0  0.82669  0.39766  0.48073  1.0000
  C   C334      1.0  0.56634  0.38509  0.46768  1.0000
  C   C335      1.0  0.57133  0.32205  0.48152  1.0000
  C   C336      1.0  0.56366  0.37401  0.49580  1.0000
  H   H385      1.0  0.54171  0.12275  0.65790  1.0000
  Fe  Fe44      1.0  0.63550  0.29301  0.65980  1.0000
  H   H386      1.0  0.79535  0.41677  0.33438  1.0000
  H   H387      1.0  0.62661  0.13888  0.65933  1.0000
  Fe  Fe45      1.0  0.63853  0.36835  0.66382  1.0000
  H   H388      1.0  0.56011  0.39351  0.66592  1.0000
  H   H389      1.0  0.72851  0.46458  0.66609  1.0000
  S   S90       1.0  0.66520  0.33969  0.68719  1.0000
  H   H390      1.0  0.65876  0.19995  0.67524  1.0000
  S   S91       1.0  0.51518  0.99665  0.74999  1.0000
  C   C337      1.0  0.58933  0.09964  0.76906  1.0000
  C   C338      1.0  0.64698  0.15831  0.73858  1.0000
  H   H391      1.0  0.54320  0.29406  0.67378  1.0000
  S   S92       1.0  0.51848  0.07998  0.70772  1.0000
  Fe  Fe46      1.0  0.51961  0.01053  0.79617  1.0000
  C   C339      1.0  0.51553  0.26834  0.72258  1.0000
  H   H392      1.0  0.63517  0.07320  0.78563  1.0000
  S   S93       1.0  0.65617  0.05255  0.98931  1.0000
  H   H393      1.0  0.57518  0.02104  0.99628  1.0000
  S   S94       1.0  0.87751  0.45235  0.75281  1.0000
  N   N22       1.0  0.61581  0.09457  0.75172  1.0000
  N   N23       1.0  0.54164  0.30441  0.71802  1.0000
  C   C340      1.0  0.76570  0.19243  0.99300  1.0000
  Fe  Fe47      1.0  0.94949  0.31919  0.96116  1.0000
  C   C341      1.0  0.83022  0.41821  0.67641  1.0000
  S   S95       1.0  0.92608  0.33946  0.92605  1.0000
  C   C342      1.0  0.81720  0.98949  0.96954  1.0000
  C   C343      1.0  0.77841  0.01368  0.95196  1.0000
  C   C344      1.0  0.79042  0.12184  0.98604  1.0000
  H   H394      1.0  0.48724  0.98755  0.96237  1.0000
  H   H395      1.0  0.58041  0.08030  0.78659  1.0000
  H   H396      1.0  0.69000  0.41125  0.70997  1.0000
  C   C345      1.0  0.82137  0.05457  0.99994  1.0000
  C   C346      1.0  0.76497  0.48211  0.71675  1.0000
  H   H397      1.0  0.56142  0.33974  0.68293  1.0000
  C   C347      1.0  0.70695  0.47250  0.73374  1.0000
  C   C348      1.0  0.54861  0.01929  0.99426  1.0000
  H   H398      1.0  0.83333  0.24640  0.90124  1.0000
  S   S96       1.0  0.75611  0.08693  0.96942  1.0000
  H   H399      1.0  0.50568  0.18246  0.72970  1.0000
  Fe  Fe48      1.0  0.70624  0.04663  0.98838  1.0000
  C   C349      1.0  0.64391  0.09570  0.77047  1.0000
  C   C350      1.0  0.95313  0.40941  0.86125  1.0000
  C   C351      1.0  0.93483  0.38619  0.88289  1.0000
  H   H400      1.0  0.51232  0.40939  0.68042  1.0000
  H   H401      1.0  0.56665  0.09610  0.75609  1.0000
  H   H402      1.0  0.61876  0.05331  0.72567  1.0000
  H   H403      1.0  0.94082  0.42248  0.84854  1.0000
  H   H404      1.0  0.90846  0.38161  0.88672  1.0000
  C   C352      1.0  0.78839  0.48120  0.69578  1.0000
  S   S97       1.0  0.57040  0.02101  0.81751  1.0000
  C   C353      1.0  0.63304  0.14411  0.68143  1.0000
  C   C354      1.0  0.57393  0.01026  0.85321  1.0000
  H   H405      1.0  0.65384  0.11965  0.78378  1.0000
  H   H406      1.0  0.62882  0.03639  0.85297  1.0000
  C   C355      1.0  0.57566  0.18549  0.72127  1.0000
  C   C356      1.0  0.55491  0.14956  0.72601  1.0000
  C   C357      1.0  0.54290  0.12634  0.70325  1.0000
  H   H407      1.0  0.60653  0.09081  0.69267  1.0000
  H   H408      1.0  0.58528  0.20281  0.73913  1.0000
  H   H409      1.0  0.54819  0.13998  0.74729  1.0000
  H   H410      1.0  0.59189  0.03805  0.75617  1.0000
  C   C358      1.0  0.53610  0.43542  0.71877  1.0000
  C   C359      1.0  0.56516  0.44477  0.73561  1.0000
  C   C360      1.0  0.59213  0.43531  0.72752  1.0000
  C   C361      1.0  0.59054  0.41641  0.70250  1.0000
  C   C362      1.0  0.56158  0.40726  0.68555  1.0000
  C   C363      1.0  0.53453  0.41652  0.69375  1.0000
  H   H411      1.0  0.61427  0.44258  0.74090  1.0000
  H   H412      1.0  0.93826  0.41631  0.96669  1.0000
  H   H413      1.0  0.67116  0.21265  0.72571  1.0000
  H   H414      1.0  0.65202  0.16532  0.76052  1.0000
  C   C364      1.0  0.84691  0.43181  0.72567  1.0000
  C   C365      1.0  0.81222  0.41415  0.73318  1.0000
  C   C366      1.0  0.78678  0.39854  0.71258  1.0000
  H   H415      1.0  0.80500  0.41248  0.75520  1.0000
  H   H416      1.0  0.76052  0.38452  0.71896  1.0000
  C   C367      1.0  0.65118  0.17854  0.69033  1.0000
  H   H417      1.0  0.84378  0.28885  0.98441  1.0000
  H   H418      1.0  0.82103  0.13483  0.94816  1.0000
  H   H419      1.0  0.58574  0.29337  0.70857  1.0000
  N   N24       1.0  0.83274  0.25883  0.94550  1.0000
  C   C368      1.0  0.83275  0.26772  0.91513  1.0000
  C   C369      1.0  0.83781  0.29102  0.96190  1.0000
  C   C370      1.0  0.86214  0.24948  0.95036  1.0000
  C   C371      1.0  0.80123  0.22906  0.95474  1.0000
  C   C372      1.0  0.74869  0.17709  0.94481  1.0000
  C   C373      1.0  0.77735  0.20602  0.93538  1.0000
  H   H420      1.0  0.79977  0.03847  0.94545  1.0000
  H   H421      1.0  0.59581  0.33572  0.72255  1.0000
  H   H422      1.0  0.69036  0.46364  0.68108  1.0000
  H   H423      1.0  0.81019  0.27339  0.90983  1.0000
  Fe  Fe49      1.0  0.49740  0.04068  0.74473  1.0000
  S   S98       1.0  0.50423  0.05588  0.79038  1.0000
  C   C374      1.0  0.57108  0.17634  0.67098  1.0000
  H   H424      1.0  0.85990  0.31437  0.95381  1.0000
  H   H425      1.0  0.73126  0.15917  0.92980  1.0000
  H   H426      1.0  0.63551  0.02094  0.90258  1.0000
  Fe  Fe50      1.0  0.93505  0.48149  0.76278  1.0000
  H   H427      1.0  0.86532  0.24507  0.97311  1.0000
  C   C375      1.0  0.65808  0.18564  0.71885  1.0000
  H   H428      1.0  0.78057  0.20927  0.91286  1.0000
  S   S99       1.0  0.68312  0.99334  0.96708  1.0000
  H   H429      1.0  0.96607  0.39390  0.96274  1.0000
  C   C376      1.0  0.95034  0.36875  0.89940  1.0000
  H   H430      1.0  0.57705  0.05474  0.72703  1.0000
  H   H431      1.0  0.51600  0.31599  0.68283  1.0000
  Fe  Fe51      1.0  0.49103  0.47860  0.76353  1.0000
  C   C377      1.0  0.58398  0.19925  0.69376  1.0000
  S   S100      1.0  0.62517  0.40445  0.69406  1.0000
  H   H432      1.0  0.66549  0.09450  0.75801  1.0000
  C   C378      1.0  0.53491  0.33003  0.73630  1.0000
  H   H433      1.0  0.88643  0.27054  0.94303  1.0000
  H   H434      1.0  0.55616  0.35660  0.73542  1.0000
  H   H435      1.0  0.73011  0.41749  0.69442  1.0000
  C   C379      1.0  0.84721  0.17001  0.98201  1.0000
  C   C380      1.0  0.60035  0.05871  0.73944  1.0000
  C   C381      1.0  0.79482  0.22091  0.98384  1.0000
  H   H436      1.0  0.75650  0.02063  0.95694  1.0000
  H   H437      1.0  0.72577  0.41732  0.73207  1.0000
  N   N25       1.0  0.78690  0.99676  0.97658  1.0000
  C   C382      1.0  0.85575  0.43336  0.69707  1.0000
  S   S101      1.0  0.61103  0.24495  0.68942  1.0000
  H   H438      1.0  0.59850  0.12612  0.77878  1.0000
  C   C383      1.0  0.60647  0.02127  0.86539  1.0000
  H   H439      1.0  0.72116  0.14732  0.98072  1.0000
  C   C384      1.0  0.61035  0.01257  0.89352  1.0000
  S   S102      1.0  0.97802  0.46386  0.75534  1.0000
  C   C385      1.0  0.62163  0.11657  0.70098  1.0000
  H   H440      1.0  0.86973  0.18442  0.96956  1.0000
  H   H441      1.0  0.85595  0.29144  0.90924  1.0000
  H   H442      1.0  0.54995  0.24093  0.72413  1.0000
  H   H443      1.0  0.81479  0.29705  0.96099  1.0000
  C   C386      1.0  0.49866  0.20474  0.72812  1.0000
  H   H444      1.0  0.88221  0.44670  0.69084  1.0000
  C   C387      1.0  0.62856  0.12283  0.73025  1.0000
  H   H445      1.0  0.51201  0.33437  0.72984  1.0000
  H   H446      1.0  0.57885  0.29845  0.74567  1.0000
  C   C388      1.0  0.58166  0.99241  0.90960  1.0000
  C   C389      1.0  0.79549  0.40096  0.68393  1.0000
  C   C390      1.0  0.57690  0.30795  0.72410  1.0000
  C   C391      1.0  0.54044  0.31401  0.68812  1.0000
  H   H447      1.0  0.56680  0.45924  0.75491  1.0000
  H   H448      1.0  0.85903  0.22504  0.93890  1.0000
  H   H449      1.0  0.53164  0.32140  0.75873  1.0000
  H   H450      1.0  0.97223  0.45526  0.92817  1.0000
  C   C392      1.0  0.71854  0.47466  0.68417  1.0000
  S   S103      1.0  0.50087  0.44604  0.72794  1.0000
  C   C393      1.0  0.74283  0.17038  0.97354  1.0000
  C   C394      1.0  0.71798  0.42596  0.71208  1.0000
  C   C395      1.0  0.81968  0.14157  0.97003  1.0000
  S   S104      1.0  0.94956  0.26521  0.96484  1.0000
  C   C396      1.0  0.52397  0.23870  0.72502  1.0000
  C   C397      1.0  0.96262  0.41566  0.97407  1.0000
  N   N26       1.0  0.72775  0.46438  0.71191  1.0000
  C   C398      1.0  0.55096  0.14020  0.67574  1.0000
  H   H451      1.0  0.95944  0.40802  0.99670  1.0000
  H   H452      1.0  0.70912  0.46165  0.75472  1.0000
  C   C399      1.0  0.54522  0.99063  0.86947  1.0000
  H   H453      1.0  0.77973  0.46764  0.67602  1.0000
  Fe  Fe52      1.0  0.63269  0.99793  0.97177  1.0000
  H   H454      1.0  0.83947  0.01366  0.96323  1.0000
  H   H455      1.0  0.67921  0.46040  0.72860  1.0000
  H   H456      1.0  0.77127  0.99617  0.93320  1.0000
  H   H457      1.0  0.83616  0.06409  0.98089  1.0000
  H   H458      1.0  0.54351  0.01762  0.97122  1.0000
  H   H459      1.0  0.81291  0.23560  0.99979  1.0000
  Fe  Fe53      1.0  0.50970  0.52156  0.17715  1.0000
  S   S105      1.0  0.55777  0.54136  0.14988  1.0000
  S   S106      1.0  0.51194  0.52540  0.22463  1.0000
  Fe  Fe54      1.0  0.96209  0.52869  0.18917  1.0000
  S   S107      1.0  0.93868  0.55504  0.15894  1.0000
  C   C400      1.0  0.62835  0.76183  0.04013  1.0000
  Fe  Fe55      1.0  0.64073  0.67768  0.02663  1.0000
  S   S108      1.0  0.59777  0.66440  0.05894  1.0000
  C   C401      1.0  0.88251  0.52595  0.22034  1.0000
  S   S109      1.0  0.69084  0.72516  0.02684  1.0000
  H   H460      1.0  0.97564  0.80269  0.00614  1.0000
  Fe  Fe56      1.0  0.67410  0.97146  0.01112  1.0000
  C   C402      1.0  0.82378  0.51317  0.27616  1.0000
  C   C403      1.0  0.58664  0.80380  0.00193  1.0000
  H   H461      1.0  0.56636  0.94619  0.12660  1.0000
  H   H462      1.0  0.58772  0.76290  0.08167  1.0000
  H   H463      1.0  0.52825  0.89274  0.19493  1.0000
  C   C404      1.0  0.86760  0.57588  0.22245  1.0000
  H   H464      1.0  0.84173  0.52260  0.29325  1.0000
  S   S110      1.0  0.66328  0.64216  0.00862  1.0000
  C   C405      1.0  0.51034  0.90661  0.24438  1.0000
  H   H465      1.0  0.97411  0.50191  0.05141  1.0000
  S   S111      1.0  0.68748  0.92704  0.02789  1.0000
  C   C406      1.0  0.83319  0.52213  0.24748  1.0000
  C   C407      1.0  0.96205  0.62456  0.09379  1.0000
  H   H466      1.0  0.59265  0.56611  0.02916  1.0000
  H   H467      1.0  0.89522  0.53851  0.27482  1.0000
  C   C408      1.0  0.58744  0.63042  0.08433  1.0000
  C   C409      1.0  0.55809  0.62231  0.10111  1.0000
  C   C410      1.0  0.54868  0.59518  0.12131  1.0000
  C   C411      1.0  0.56866  0.57594  0.12495  1.0000
  C   C412      1.0  0.59798  0.58400  0.10810  1.0000
  C   C413      1.0  0.60735  0.61108  0.08784  1.0000
  H   H468      1.0  0.54251  0.63710  0.09851  1.0000
  H   H469      1.0  0.52608  0.58924  0.13414  1.0000
  H   H470      1.0  0.61360  0.56927  0.11079  1.0000
  H   H471      1.0  0.63006  0.61714  0.07512  1.0000
  S   S112      1.0  0.52884  0.96693  0.16789  1.0000
  C   C414      1.0  0.55166  0.59015  0.00321  1.0000
  C   C415      1.0  0.58244  0.55323  0.00866  1.0000
  H   H472      1.0  0.75516  0.98569  0.03031  1.0000
  C   C416      1.0  0.50397  0.51981  0.07237  1.0000
  H   H473      1.0  0.56102  0.60269  0.02396  1.0000
  S   S113      1.0  0.94936  0.66425  0.01162  1.0000
  C   C417      1.0  0.82454  0.68472  0.02431  1.0000
  H   H474      1.0  0.52993  0.85952  0.21852  1.0000
  C   C418      1.0  0.59981  0.86378  0.01618  1.0000
  C   C419      1.0  0.79056  0.49036  0.28361  1.0000
  H   H475      1.0  0.57023  0.71972  0.06798  1.0000
  H   H476      1.0  0.88333  0.57563  0.27710  1.0000
  C   C420      1.0  0.57629  0.49034  0.21088  1.0000
  H   H477      1.0  0.64262  0.76795  0.01983  1.0000
  H   H478      1.0  0.61910  0.87756  0.05810  1.0000
  H   H479      1.0  0.70369  0.86966  0.04553  1.0000
  C   C421      1.0  0.97588  0.53218  0.01427  1.0000
  H   H480      1.0  0.63250  0.50705  0.17844  1.0000
  H   H481      1.0  0.59432  0.49417  0.15791  1.0000
  N   N27       1.0  0.59336  0.75995  0.03639  1.0000
  C   C422      1.0  0.97702  0.50347  0.02864  1.0000
  H   H482      1.0  0.87581  0.68700  0.02759  1.0000
  H   H483      1.0  0.60267  0.89021  0.01102  1.0000
  H   H484      1.0  0.54961  0.56210  0.05950  1.0000
  H   H485      1.0  0.54852  0.74826  0.06205  1.0000
  H   H486      1.0  0.62818  0.73648  0.04772  1.0000
  C   C423      1.0  0.89211  0.55991  0.26259  1.0000
  H   H487      1.0  0.81273  0.51186  0.20475  1.0000
  H   H488      1.0  0.94833  0.63055  0.07692  1.0000
  C   C424      1.0  0.96210  0.58885  0.13482  1.0000
  H   H489      1.0  0.91774  0.58130  0.10988  1.0000
  H   H490      1.0  0.86813  0.51692  0.20037  1.0000
  C   C425      1.0  0.94476  0.59669  0.11254  1.0000
  C   C426      1.0  0.52759  0.53993  0.05212  1.0000
  H   H491      1.0  0.89379  0.59454  0.21620  1.0000
  C   C427      1.0  0.69493  0.86451  0.02397  1.0000
  N   N28       1.0  0.48911  0.87575  0.22715  1.0000
  C   C428      1.0  0.51235  0.86868  0.20714  1.0000
  H   H492      1.0  0.49430  0.91512  0.25862  1.0000
  C   C429      1.0  0.80268  0.69772  0.01094  1.0000
  S   S114      1.0  0.75893  0.68073  0.02125  1.0000
  H   H493      1.0  0.88257  0.50250  0.23152  1.0000
  C   C430      1.0  0.60691  0.82292  0.04917  1.0000
  H   H494      1.0  0.91818  0.57745  0.25521  1.0000
  C   C431      1.0  0.69295  0.83341  0.01067  1.0000
  H   H495      1.0  0.56033  0.49835  0.19640  1.0000
  H   H496      1.0  0.58105  0.52595  0.00956  1.0000
  H   H497      1.0  0.50422  0.93236  0.00788  1.0000
  H   H498      1.0  0.52914  0.90099  0.25732  1.0000
  C   C432      1.0  0.52298  0.53162  0.02299  1.0000
  C   C433      1.0  0.57006  0.97290  0.12180  1.0000
  H   H499      1.0  0.97223  0.55298  0.02578  1.0000
  C   C434      1.0  0.85935  0.69699  0.01683  1.0000
  C   C435      1.0  0.80736  0.50671  0.22698  1.0000
  H   H500      1.0  0.60329  0.97728  0.08610  1.0000
  C   C436      1.0  0.57408  0.74733  0.06314  1.0000
  H   H501      1.0  0.64336  0.78226  0.05555  1.0000
  H   H502      1.0  0.81444  0.66510  0.04071  1.0000
  H   H503      1.0  0.61560  0.81908  0.06973  1.0000
  H   H504      1.0  0.85320  0.56770  0.20242  1.0000
  N   N29       1.0  0.54865  0.55336  0.00207  1.0000
  H   H505      1.0  0.90923  0.54245  0.21394  1.0000
  N   N30       1.0  0.86823  0.54562  0.23864  1.0000
  Fe  Fe57      1.0  0.94192  0.48820  0.24473  1.0000
  C   C437      1.0  0.59518  0.79531  0.02908  1.0000
  S   S115      1.0  0.62181  0.97169  0.01443  1.0000
  H   H506      1.0  0.50824  0.52659  0.09455  1.0000
  H   H507      1.0  0.85572  0.59063  0.23505  1.0000
  S   S116      1.0  0.97643  0.54470  0.23432  1.0000
  H   H508      1.0  0.52516  0.92981  0.23090  1.0000
  H   H509      1.0  0.59762  0.51505  0.21756  1.0000
  H   H510      1.0  0.70065  0.81516  0.02185  1.0000
  C   C438      1.0  0.60895  0.85652  0.04278  1.0000
  H   H511      1.0  0.49837  0.84856  0.19118  1.0000
  C   C439      1.0  0.49309  0.50182  0.01539  1.0000
  C   C440      1.0  0.57641  0.73307  0.01448  1.0000
  H   H512      1.0  0.52066  0.96795  0.05235  1.0000
  Fe  Fe58      1.0  0.71285  0.69019  0.00523  1.0000
  C   C441      1.0  0.68555  0.88888  0.00969  1.0000
  H   H513      1.0  0.57443  0.70657  0.02101  1.0000
  H   H514      1.0  0.55009  0.73082  0.01024  1.0000
  H   H515      1.0  0.48241  0.86750  0.28636  1.0000
  H   H516      1.0  0.88495  0.64097  0.89881  1.0000
  Fe  Fe59      1.0  0.51548  0.54287  0.80231  1.0000
  S   S117      1.0  0.55569  0.59521  0.81709  1.0000
  S   S118      1.0  0.96236  0.61161  0.94958  1.0000
  H   H517      1.0  0.85921  0.59714  0.98164  1.0000
  H   H518      1.0  0.95339  0.82633  0.96516  1.0000
  H   H519      1.0  0.77165  0.63150  0.98302  1.0000
  H   H520      1.0  0.52326  0.61976  0.73353  1.0000
  H   H521      1.0  0.71435  0.50132  0.73558  1.0000
  C   C442      1.0  0.75775  0.96241  0.98121  1.0000
  Fe  Fe60      1.0  0.67685  0.73524  0.98301  1.0000
  S   S119      1.0  0.70196  0.70304  0.96109  1.0000
  H   H522      1.0  0.86359  0.59358  0.90287  1.0000
  H   H523      1.0  0.73387  0.96600  0.98572  1.0000
  Fe  Fe61      1.0  0.65094  0.65727  0.96590  1.0000
  S   S120      1.0  0.62259  0.60887  0.93898  1.0000
  C   C443      1.0  0.81616  0.62369  0.91349  1.0000
  H   H524      1.0  0.86360  0.52088  0.73044  1.0000
  C   C444      1.0  0.88074  0.61843  0.91318  1.0000
  C   C445      1.0  0.67468  0.88209  0.98171  1.0000
  H   H525      1.0  0.51298  0.66190  0.70794  1.0000
  H   H526      1.0  0.89282  0.67966  0.94101  1.0000
  H   H527      1.0  0.82710  0.62181  0.89335  1.0000
  S   S121      1.0  0.94544  0.48978  0.80975  1.0000
  H   H528      1.0  0.49827  0.67028  0.80341  1.0000
  C   C446      1.0  0.81610  0.72312  0.98981  1.0000
  H   H529      1.0  0.53902  0.51387  0.96979  1.0000
  C   C447      1.0  0.54912  0.98160  0.89747  1.0000
  C   C448      1.0  0.67246  0.85084  0.96847  1.0000
  H   H530      1.0  0.90604  0.61689  0.91527  1.0000
  H   H531      1.0  0.66355  0.84560  0.94696  1.0000
  H   H532      1.0  0.66738  0.90056  0.97042  1.0000
  H   H533      1.0  0.89008  0.59081  0.95991  1.0000
  H   H534      1.0  0.59123  0.73913  0.99436  1.0000
  C   C449      1.0  0.81609  0.62758  0.96446  1.0000
  S   S122      1.0  0.49723  0.53489  0.75715  1.0000
  H   H535      1.0  0.79963  0.73327  0.97926  1.0000
  H   H536      1.0  0.55151  0.66446  0.74276  1.0000
  H   H537      1.0  0.53426  0.65900  0.80350  1.0000
  C   C450      1.0  0.89181  0.65640  0.95325  1.0000
  C   C451      1.0  0.49194  0.66512  0.71827  1.0000
  C   C452      1.0  0.57320  0.59900  0.85144  1.0000
  C   C453      1.0  0.59367  0.63239  0.86222  1.0000
  C   C454      1.0  0.60852  0.63607  0.88920  1.0000
  C   C455      1.0  0.60342  0.60627  0.90545  1.0000
  C   C456      1.0  0.58286  0.57294  0.89467  1.0000
  C   C457      1.0  0.56759  0.56931  0.86795  1.0000
  H   H538      1.0  0.59827  0.65552  0.84960  1.0000
  H   H539      1.0  0.62439  0.66186  0.89717  1.0000
  H   H540      1.0  0.57897  0.54969  0.90689  1.0000
  H   H541      1.0  0.55201  0.54346  0.85991  1.0000
  C   C458      1.0  0.86525  0.59357  0.95935  1.0000
  C   C459      1.0  0.82355  0.49600  0.70048  1.0000
  C   C460      1.0  0.97131  0.60820  0.91348  1.0000
  H   H542      1.0  0.51567  0.54162  0.96573  1.0000
  C   C461      1.0  0.48397  0.65706  0.74728  1.0000
  N   N31       1.0  0.86704  0.62320  0.94100  1.0000
  H   H543      1.0  0.95069  0.55160  0.91472  1.0000
  H   H544      1.0  0.82760  0.62928  0.98494  1.0000
  Fe  Fe62      1.0  0.95658  0.71793  0.99600  1.0000
  C   C462      1.0  0.76828  0.62830  0.93792  1.0000
  C   C463      1.0  0.83307  0.62460  0.93944  1.0000
  H   H545      1.0  0.86116  0.75567  0.96642  1.0000
  H   H546      1.0  0.84090  0.49427  0.68442  1.0000
  C   C464      1.0  0.78410  0.62911  0.96361  1.0000
  C   C465      1.0  0.77899  0.49809  0.74291  1.0000
  H   H547      1.0  0.52007  0.98190  0.86032  1.0000
  C   C466      1.0  0.78425  0.62558  0.91291  1.0000
  C   C467      1.0  0.83642  0.51109  0.72640  1.0000
  C   C468      1.0  0.85104  0.73572  0.98255  1.0000
  H   H548      1.0  0.97889  0.78528  0.95938  1.0000
  H   H549      1.0  0.91796  0.65689  0.95363  1.0000
  C   C469      1.0  0.54020  0.54091  0.97257  1.0000
  C   C470      1.0  0.96791  0.57081  0.87274  1.0000
  H   H550      1.0  0.72826  0.50374  0.68222  1.0000
  H   H551      1.0  0.51748  0.95412  0.97444  1.0000
  H   H552      1.0  0.55986  0.55784  0.95739  1.0000
  C   C471      1.0  0.53254  0.63906  0.75108  1.0000
  H   H553      1.0  0.88535  0.66031  0.97536  1.0000
  H   H554      1.0  0.77182  0.62514  0.89297  1.0000
  H   H555      1.0  0.54673  0.62866  0.76558  1.0000
  C   C472      1.0  0.96222  0.57470  0.90159  1.0000
  H   H556      1.0  0.97696  0.87029  0.97692  1.0000
  C   C473      1.0  0.97949  0.53419  0.98504  1.0000
  H   H557      1.0  0.84552  0.56825  0.95176  1.0000
  H   H558      1.0  0.75241  0.94507  0.96236  1.0000
  C   C474      1.0  0.68115  0.82607  0.98294  1.0000
  S   S123      1.0  0.96863  0.53792  0.75212  1.0000
  H   H559      1.0  0.81203  0.97069  0.95166  1.0000
  H   H560      1.0  0.49535  0.59764  0.79083  1.0000
  N   N32       1.0  0.50383  0.64359  0.76575  1.0000
  S   S124      1.0  0.67676  0.78657  0.96541  1.0000
  S   S125      1.0  0.62536  0.68997  0.98419  1.0000
  H   H561      1.0  0.74368  0.63007  0.93746  1.0000
  H   H562      1.0  0.60199  0.56788  0.99246  1.0000
  H   H563      1.0  0.82444  0.52334  0.76787  1.0000
  H   H564      1.0  0.96078  0.54488  0.86382  1.0000
  H   H565      1.0  0.76330  0.49929  0.76039  1.0000
  S   S126      1.0  0.58500  0.97926  0.94461  1.0000
  H   H566      1.0  0.48724  0.49323  0.99384  1.0000
  C   C475      1.0  0.81422  0.51221  0.74753  1.0000
  S   S127      1.0  0.91693  0.74037  0.98660  1.0000
  S   S128      1.0  0.51334  0.48819  0.80733  1.0000
  H   H567      1.0  0.53478  0.69487  0.78193  1.0000
  H   H568      1.0  0.52679  0.96589  0.90968  1.0000
  C   C476      1.0  0.51835  0.66804  0.78964  1.0000
  H   H569      1.0  0.57020  0.60700  0.98717  1.0000
  C   C477      1.0  0.87288  0.72279  0.99601  1.0000
  H   H570      1.0  0.82498  0.97789  0.98798  1.0000
  Fe  Fe63      1.0  0.98096  0.66315  0.97370  1.0000
  H   H571      1.0  0.76241  0.94747  0.99902  1.0000
  C   C478      1.0  0.97889  0.84885  0.96402  1.0000
  H   H572      1.0  0.57898  0.78516  0.98482  1.0000
  C   C479      1.0  0.52342  0.95601  0.99736  1.0000
  H   H573      1.0  0.97860  0.55664  0.97395  1.0000
  Fe  Fe64      1.0  0.98142  0.54473  0.79842  1.0000
  H   H574      1.0  0.54873  0.95453  0.99894  1.0000
  H   H575      1.0  0.58297  0.84374  0.97477  1.0000
  C   C480      1.0  0.58881  0.83754  0.99578  1.0000
  H   H576      1.0  0.52664  0.59152  0.99929  1.0000
