data_image0
_chemical_formula_structural       FeSCFeSHFeSFeS3FeS2FeS2FeCFeS3C2H2C4HC4HC2H2NC8H4CHCH3CHC2HNC9H16SNCHCH2CHCH3C2NHC2HC3HC2HCH4CH6CH4CHCH7C2HCH3CH2CH3C2HC6FeS2FeS2FeHFeS3FeS2FeS2FeSFeS3FeS2FeS2FeSFeS3FeS2FeS2FeSFeS3C2H3CH4C6H4C2HC2HC2HC6H4CHC6H4NC6H5C2H10C3HC2HCNC7H12C2HCHCH4CNH2CH2C3H2CH2CHCH2CHCHSH5C2HCHC3H2CH2NH2C7HCHCH3C2N2C2H2CH6CH2CHCH5C3H5CH5C2H2CNHCHCHCHCH2CH3CHC2FeS2FeS2FeSFeS3FeS2FeS2FeSFeS3CH6CH4C2H2CHCNHC6H4C6H4C6H4CHC4H4SHCH5C2H2NC9H14CH2C2NCH4NC2HC2H3C2H3CH3C2SC4H2C2H2CH2CH2C3HCH2CHCH2C2NH6CHC2H4CFeS2FeS2FeSFeS3FeS2FeS2FeSFeS3C3H2C4HC6H6CH2C10H4C6H4C2HCHCH2CHCNH8CHCHCH2CHCHNC6H9SH2C2NH2CNC2HCH6C8HCHCHCNH4CHCHCHNC9H15C2H6SHCHC2HCH3CH3CHCHCHC2FeS2FeS2FeSFeS3FeS2FeSCFeSFeS3FeS2FeS2FeSFeS3FeS2FeS2FeSFeS3C6H4C2H2C3H5C7H4C6H4C6H4C2H2CH5C3H3CH2CSH3C6H2NC3H3CHC2HCHCH2C3H2CH2CH2NC9H14CH4C2HCNCHCHNC9H14NC9H15NH3C2H5CHC2H7CHFeS2FeS2FeSFeS2FeS2FeS2FeSFeS2H4CHCH2CHC4H2C6H4C2H4C2H3C2H3C2NCHNH7CH4NC3H2CNCH6CHC2HC2HCHCH2CHCHCHCH5C2HC6HCHC2HC2H3C6HNH2C2HC2H3CH2FeSCFeS2FeSFeS3FeS2FeS2FeCFeS3C2HCHCH2C6H5CHC4H5CHNHCH5CHC2H4CH3C2H2C4HCH2CHCHCHCH4C3HC4H2C2HC2H4NCH2CHFeS2FeS2FeSFeS3FeS2FeS2FeSFeS3FeS2FeS2FeSFeHS2FeS2FeS2FeSFeS3C6H4CH2CHC2HCH3C2H4C2H2C6H5CNC2H3C6H4C3H2C7H4NC9H15NC9H14C2H2NC6HCNH10C2H2C3HSHCHC2H2CH6CHCH2CHC2HC2H3C3NHC3H4CNH2CH2C3H2CH4C3HCH2C2H4CH6CHCH2C5H4FeS2FeS2FeSFeS3FeS2FeS2FeSFeS3HCH3CHCH2C6H4C3H2C2H3C6H4C6H9CH2CH2CHCH2CHC3H2C2H6CHCH2SHC2HCHCSHC4H3NHNHCNH2CNC8H10NC9H13C6H3C2H2C2H2C2H2C2HCS2FeS2FeS2FeSFeS3FeS2FeS2FeSFeS3C6H4CHC2HC2H3C2HC2NC3HC6H4C6H4NC9H17C2HCHCNH2CHCHCH2CH3C2H3CHCH4CH7C2HCHCH5CNCHCH2C2HCNH2CH2CHCHCHC2HCH3CH2CFeS2FeS2FeSFeS3FeSCFeS2FeSFeS3FeS2FeSCFeSFeS3FeS2FeS2FeSFeS3CHCH2CH4C6H9C5HC7H4C3HC7H4C6H4C2NH2NSC2N2C7H8CHC2H3C2H8C2NC9H14C2H4CH3C3H3C4H2C2NHCH4CHC2H3CHCSHCHCH3C4HC3H3CH2N2H3CH2CHCH5CH5C4H4CH2CH4CHCHCH2CHC2HCH2NC2HFeSFeS2FeSFeS3FeS2FeS2FeSFeS2C2H2CHC2H2CH3C2H3CH2CHC6H4C2HNH8CNCHC2HCH6C2HC4H3C2H2CH3CH3C4HC2H5C3HCH3CHC2NCHC2
_chemical_formula_sum              "Fe128 S256 C960 H1152 N64"
_cell_length_a       42.0389
_cell_length_b       86.4255
_cell_length_c       42.225
_cell_angle_alpha    90.1689
_cell_angle_beta     90.3182
_cell_angle_gamma    90.345

_space_group_name_H-M_alt    "P 1"
_space_group_IT_number       1

loop_
  _space_group_symop_operation_xyz
  'x, y, z'

loop_
  _atom_site_type_symbol
  _atom_site_label
  _atom_site_symmetry_multiplicity
  _atom_site_fract_x
  _atom_site_fract_y
  _atom_site_fract_z
  _atom_site_occupancy
  Fe  Fe1       1.0  0.33761  0.30470  0.08812  1.0000
  S   S1        1.0  0.36383  0.29103  0.12442  1.0000
  C   C1        1.0  0.06601  0.99814  0.04260  1.0000
  Fe  Fe2       1.0  0.31942  0.27473  0.05316  1.0000
  S   S2        1.0  0.34525  0.25951  0.08842  1.0000
  H   H1        1.0  0.13593  0.23364  0.41889  1.0000
  Fe  Fe3       1.0  0.32265  0.27468  0.12575  1.0000
  S   S3        1.0  0.31547  0.26945  0.17841  1.0000
  Fe  Fe4       1.0  0.38540  0.27707  0.08585  1.0000
  S   S4        1.0  0.43729  0.27248  0.10095  1.0000
  S   S5        1.0  0.29465  0.28906  0.09116  1.0000
  S   S6        1.0  0.36134  0.29158  0.04861  1.0000
  Fe  Fe5       1.0  0.18855  0.27528  0.32041  1.0000
  S   S7        1.0  0.22504  0.28905  0.34770  1.0000
  S   S8        1.0  0.19475  0.26613  0.26987  1.0000
  Fe  Fe6       1.0  0.13562  0.28107  0.37027  1.0000
  S   S9        1.0  0.16924  0.29547  0.40013  1.0000
  S   S10       1.0  0.08552  0.27748  0.39120  1.0000
  Fe  Fe7       1.0  0.18564  0.30626  0.35465  1.0000
  C   C2        1.0  0.01982  0.27760  0.39629  1.0000
  Fe  Fe8       1.0  0.20579  0.27677  0.39127  1.0000
  S   S11       1.0  0.23654  0.26985  0.43482  1.0000
  S   S12       1.0  0.14982  0.29296  0.32555  1.0000
  S   S13       1.0  0.17138  0.26183  0.36326  1.0000
  C   C3        1.0  0.04606  0.28167  0.37730  1.0000
  C   C4        1.0  0.04012  0.28908  0.34842  1.0000
  H   H2        1.0  0.12170  0.01935  0.00729  1.0000
  H   H3        1.0  0.49841  0.26995  0.13122  1.0000
  C   C5        1.0  0.26090  0.03546  0.42851  1.0000
  C   C6        1.0  0.24912  0.25305  0.45653  1.0000
  C   C7        1.0  0.24305  0.23789  0.44616  1.0000
  C   C8        1.0  0.21173  0.31312  0.25739  1.0000
  H   H4        1.0  0.22977  0.23599  0.42448  1.0000
  C   C9        1.0  0.47657  0.27650  0.08693  1.0000
  C   C10       1.0  0.07755  0.99701  0.01110  1.0000
  C   C11       1.0  0.48259  0.28187  0.05628  1.0000
  C   C12       1.0  0.17275  0.99612  0.98589  1.0000
  H   H5        1.0  0.46301  0.28361  0.03997  1.0000
  C   C13       1.0  0.31947  0.24209  0.42155  1.0000
  C   C14       1.0  0.24958  0.22487  0.99053  1.0000
  H   H6        1.0  0.24493  0.03727  0.40862  1.0000
  H   H7        1.0  0.19244  0.29563  0.22661  1.0000
  N   N1        1.0  0.07684  0.01066  0.98991  1.0000
  C   C15       1.0  0.31982  0.25819  0.42059  1.0000
  C   C16       1.0  0.17051  0.99460  0.01900  1.0000
  C   C17       1.0  0.28103  0.26976  0.20279  1.0000
  C   C18       1.0  0.28471  0.27282  0.23538  1.0000
  C   C19       1.0  0.25846  0.27223  0.25607  1.0000
  C   C20       1.0  0.22830  0.26812  0.24454  1.0000
  C   C21       1.0  0.22461  0.26517  0.21188  1.0000
  C   C22       1.0  0.25069  0.26618  0.19103  1.0000
  H   H8        1.0  0.30807  0.27553  0.24480  1.0000
  H   H9        1.0  0.26172  0.27453  0.28107  1.0000
  H   H10       1.0  0.20140  0.26195  0.20271  1.0000
  H   H11       1.0  0.24750  0.26363  0.16612  1.0000
  C   C23       1.0  0.15700  0.25973  0.44521  1.0000
  H   H12       1.0  0.43665  0.30782  0.12794  1.0000
  C   C24       1.0  0.11943  0.23936  0.43578  1.0000
  H   H13       1.0  0.14662  0.21552  0.45801  1.0000
  H   H14       1.0  0.24301  0.21477  0.00415  1.0000
  H   H15       1.0  0.30391  0.26425  0.40461  1.0000
  C   C25       1.0  0.28221  0.04381  0.48020  1.0000
  H   H16       1.0  0.19548  0.31046  0.27652  1.0000
  C   C26       1.0  0.25518  0.31957  0.20776  1.0000
  C   C27       1.0  0.26155  0.04598  0.45379  1.0000
  H   H17       1.0  0.28090  0.29852  0.16625  1.0000
  N   N2        1.0  0.39618  0.23588  0.15348  1.0000
  C   C28       1.0  0.41919  0.23467  0.12697  1.0000
  C   C29       1.0  0.39540  0.25238  0.16340  1.0000
  C   C30       1.0  0.40849  0.22655  0.18021  1.0000
  C   C31       1.0  0.36374  0.23040  0.14500  1.0000
  C   C32       1.0  0.33827  0.23223  0.16661  1.0000
  C   C33       1.0  0.35641  0.22302  0.11563  1.0000
  C   C34       1.0  0.30719  0.22779  0.15869  1.0000
  C   C35       1.0  0.32524  0.21852  0.10803  1.0000
  C   C36       1.0  0.30066  0.22102  0.12940  1.0000
  H   H18       1.0  0.41084  0.24126  0.10587  1.0000
  H   H19       1.0  0.44289  0.23968  0.13331  1.0000
  H   H20       1.0  0.42339  0.22244  0.11992  1.0000
  H   H21       1.0  0.38423  0.25963  0.14481  1.0000
  H   H22       1.0  0.41968  0.25722  0.16764  1.0000
  H   H23       1.0  0.38178  0.25431  0.18552  1.0000
  H   H24       1.0  0.40883  0.21402  0.17397  1.0000
  H   H25       1.0  0.43316  0.23010  0.18691  1.0000
  H   H26       1.0  0.39360  0.22783  0.20176  1.0000
  H   H27       1.0  0.34191  0.23755  0.18956  1.0000
  H   H28       1.0  0.37411  0.22096  0.09771  1.0000
  H   H29       1.0  0.28800  0.22995  0.17519  1.0000
  H   H30       1.0  0.31999  0.21333  0.08514  1.0000
  H   H31       1.0  0.27646  0.21780  0.12316  1.0000
  H   H32       1.0  0.31652  0.01009  0.45423  1.0000
  H   H33       1.0  0.22965  0.30078  0.18367  1.0000
  S   S14       1.0  0.29415  0.26697  0.00662  1.0000
  N   N3        1.0  0.13717  0.24786  0.46102  1.0000
  C   C37       1.0  0.21001  0.30482  0.22916  1.0000
  H   H34       1.0  0.39998  0.31879  0.07355  1.0000
  C   C38       1.0  0.04369  0.01627  0.98646  1.0000
  H   H35       1.0  0.10701  0.31237  0.38562  1.0000
  H   H36       1.0  0.26280  0.00527  0.08975  1.0000
  C   C39       1.0  0.18905  0.27453  0.00531  1.0000
  H   H37       1.0  0.05674  0.00888  0.05175  1.0000
  C   C40       1.0  0.25929  0.00835  0.03994  1.0000
  H   H38       1.0  0.26376  0.02071  0.04134  1.0000
  H   H39       1.0  0.48292  0.30990  0.09106  1.0000
  H   H40       1.0  0.17126  0.00485  0.03376  1.0000
  C   C41       1.0  0.14087  0.25992  0.99413  1.0000
  C   C42       1.0  0.09674  0.02325  0.00367  1.0000
  N   N4        1.0  0.27792  0.32239  0.18167  1.0000
  H   H41       1.0  0.25006  0.21349  0.45502  1.0000
  C   C43       1.0  0.25840  0.99942  0.06750  1.0000
  C   C44       1.0  0.33869  0.23418  0.44319  1.0000
  H   H42       1.0  0.23330  0.99313  0.12648  1.0000
  C   C45       1.0  0.00852  0.29236  0.33887  1.0000
  C   C46       1.0  0.30117  0.02014  0.45417  1.0000
  C   C47       1.0  0.43457  0.32066  0.12604  1.0000
  H   H43       1.0  0.20350  0.28149  0.02131  1.0000
  C   C48       1.0  0.26590  0.23727  0.00572  1.0000
  C   C49       1.0  0.23145  0.30788  0.20473  1.0000
  H   H44       1.0  0.30324  0.23572  0.40622  1.0000
  C   C50       1.0  0.28067  0.02258  0.42870  1.0000
  H   H45       1.0  0.40927  0.32365  0.13076  1.0000
  H   H46       1.0  0.14257  0.26709  0.42909  1.0000
  H   H47       1.0  0.10444  0.24729  0.42125  1.0000
  H   H48       1.0  0.24559  0.05568  0.45208  1.0000
  C   C51       1.0  0.29617  0.30809  0.17543  1.0000
  H   H49       1.0  0.25328  0.00854  0.98925  1.0000
  H   H50       1.0  0.05982  0.29215  0.33329  1.0000
  H   H51       1.0  0.10298  0.23055  0.44588  1.0000
  H   H52       1.0  0.02390  0.27187  0.41867  1.0000
  H   H53       1.0  0.28012  0.01443  0.40911  1.0000
  H   H54       1.0  0.03371  0.02046  0.00919  1.0000
  C   C52       1.0  0.35924  0.25871  0.46256  1.0000
  H   H55       1.0  0.27148  0.23663  0.03071  1.0000
  H   H56       1.0  0.05268  0.31791  0.37886  1.0000
  H   H57       1.0  0.43052  0.30465  0.07227  1.0000
  H   H58       1.0  0.08779  0.02733  0.02691  1.0000
  C   C53       1.0  0.15916  0.26922  0.01453  1.0000
  H   H59       1.0  0.11813  0.25610  0.00297  1.0000
  C   C54       1.0  0.25479  0.22510  0.46354  1.0000
  H   H60       1.0  0.09232  0.31896  0.33310  1.0000
  H   H61       1.0  0.33616  0.22175  0.44344  1.0000
  H   H62       1.0  0.37381  0.26568  0.47827  1.0000
  H   H63       1.0  0.17608  0.25420  0.43103  1.0000
  H   H64       1.0  0.16900  0.26775  0.46216  1.0000
  H   H65       1.0  0.15030  0.27220  0.03782  1.0000
  H   H66       1.0  0.33924  0.27903  0.44067  1.0000
  C   C55       1.0  0.33964  0.26649  0.44106  1.0000
  C   C56       1.0  0.26658  0.25508  0.48489  1.0000
  H   H67       1.0  0.30802  0.30378  0.19733  1.0000
  C   C57       1.0  0.25372  0.00151  0.01051  1.0000
  H   H68       1.0  0.24464  0.31718  0.14369  1.0000
  H   H69       1.0  0.09713  0.26311  0.46676  1.0000
  H   H70       1.0  0.00435  0.29796  0.31636  1.0000
  C   C58       1.0  0.27473  0.25047  0.98862  1.0000
  H   H71       1.0  0.38549  0.21299  0.46209  1.0000
  H   H72       1.0  0.31492  0.30995  0.15732  1.0000
  C   C59       1.0  0.42605  0.31732  0.07036  1.0000
  H   H73       1.0  0.43246  0.32075  0.04582  1.0000
  H   H74       1.0  0.42158  0.23651  0.45902  1.0000
  H   H75       1.0  0.09764  0.03355  0.98784  1.0000
  C   C60       1.0  0.35939  0.24230  0.46432  1.0000
  C   C61       1.0  0.47858  0.32260  0.08980  1.0000
  H   H76       1.0  0.26676  0.07513  0.48356  1.0000
  C   C62       1.0  0.30192  0.03052  0.47961  1.0000
  C   C63       1.0  0.41357  0.23899  0.48358  1.0000
  C   C64       1.0  0.15989  0.22157  0.47620  1.0000
  C   C65       1.0  0.11347  0.25578  0.48118  1.0000
  C   C66       1.0  0.15770  0.23785  0.48079  1.0000
  C   C67       1.0  0.23460  0.32470  0.26120  1.0000
  Fe  Fe9       1.0  0.10601  0.04175  0.89435  1.0000
  S   S15       1.0  0.13859  0.04833  0.93457  1.0000
  S   S16       1.0  0.05473  0.04332  0.91142  1.0000
  Fe  Fe10      1.0  0.16309  0.03482  0.85156  1.0000
  S   S17       1.0  0.19881  0.04015  0.88999  1.0000
  S   S18       1.0  0.17491  0.03019  0.79938  1.0000
  Fe  Fe11      1.0  0.16606  0.02690  0.92284  1.0000
  H   H77       1.0  0.38496  0.23328  0.53863  1.0000
  Fe  Fe12      1.0  0.16813  0.06093  0.89905  1.0000
  S   S19       1.0  0.19366  0.08375  0.90862  1.0000
  S   S20       1.0  0.13233  0.01975  0.88360  1.0000
  S   S21       1.0  0.13353  0.05623  0.85952  1.0000
  Fe  Fe13      1.0  0.37861  0.04720  0.63203  1.0000
  S   S22       1.0  0.35480  0.04868  0.58418  1.0000
  S   S23       1.0  0.42836  0.05550  0.64486  1.0000
  Fe  Fe14      1.0  0.31616  0.04070  0.66763  1.0000
  S   S24       1.0  0.28761  0.04165  0.62241  1.0000
  S   S25       1.0  0.30397  0.03862  0.72049  1.0000
  Fe  Fe15      1.0  0.32694  0.02767  0.59976  1.0000
  S   S26       1.0  0.30967  0.00783  0.56732  1.0000
  Fe  Fe16      1.0  0.31745  0.06244  0.60948  1.0000
  S   S27       1.0  0.29488  0.08362  0.58695  1.0000
  S   S28       1.0  0.35361  0.02518  0.64624  1.0000
  S   S29       1.0  0.34297  0.06250  0.65592  1.0000
  Fe  Fe17      1.0  0.34717  0.17479  0.58924  1.0000
  S   S30       1.0  0.37593  0.18992  0.62218  1.0000
  S   S31       1.0  0.36167  0.14980  0.59927  1.0000
  Fe  Fe18      1.0  0.31748  0.20361  0.55627  1.0000
  S   S32       1.0  0.34441  0.22000  0.58842  1.0000
  S   S33       1.0  0.28648  0.21035  0.51272  1.0000
  Fe  Fe19      1.0  0.38721  0.20464  0.58016  1.0000
  S   S34       1.0  0.43535  0.21275  0.55983  1.0000
  Fe  Fe20      1.0  0.33069  0.20354  0.62799  1.0000
  S   S35       1.0  0.31900  0.20995  0.67957  1.0000
  S   S36       1.0  0.36071  0.18886  0.54664  1.0000
  S   S37       1.0  0.30138  0.18785  0.59648  1.0000
  Fe  Fe21      1.0  0.16031  0.17301  0.86574  1.0000
  S   S38       1.0  0.13663  0.18722  0.82814  1.0000
  S   S39       1.0  0.13952  0.14861  0.86303  1.0000
  Fe  Fe22      1.0  0.19397  0.20213  0.89419  1.0000
  S   S40       1.0  0.17162  0.21783  0.85756  1.0000
  S   S41       1.0  0.22064  0.20927  0.94035  1.0000
  Fe  Fe23      1.0  0.12583  0.20446  0.86604  1.0000
  S   S42       1.0  0.07762  0.21475  0.88075  1.0000
  Fe  Fe24      1.0  0.18440  0.19893  0.82218  1.0000
  S   S43       1.0  0.19739  0.19983  0.76922  1.0000
  S   S44       1.0  0.14751  0.18977  0.90411  1.0000
  S   S45       1.0  0.20875  0.18374  0.85831  1.0000
  C   C68       1.0  0.03148  0.20147  0.84072  1.0000
  C   C69       1.0  0.03792  0.20999  0.86827  1.0000
  H   H78       1.0  0.15823  0.22513  0.96010  1.0000
  H   H79       1.0  0.05092  0.19793  0.82569  1.0000
  H   H80       1.0  0.49733  0.06010  0.58580  1.0000
  C   C70       1.0  0.47557  0.21018  0.57297  1.0000
  H   H81       1.0  0.35373  0.21283  0.49098  1.0000
  H   H82       1.0  0.03187  0.13376  0.92708  1.0000
  H   H83       1.0  0.46433  0.20113  0.61899  1.0000
  H   H84       1.0  0.39418  0.21167  0.50347  1.0000
  C   C71       1.0  0.28508  0.20661  0.70418  1.0000
  C   C72       1.0  0.28767  0.20933  0.73703  1.0000
  C   C73       1.0  0.26138  0.20719  0.75738  1.0000
  C   C74       1.0  0.23190  0.20242  0.74508  1.0000
  C   C75       1.0  0.22939  0.19960  0.71225  1.0000
  C   C76       1.0  0.25575  0.20158  0.69196  1.0000
  H   H85       1.0  0.31014  0.21327  0.74682  1.0000
  H   H86       1.0  0.26382  0.20945  0.78248  1.0000
  H   H87       1.0  0.20675  0.19594  0.70240  1.0000
  H   H88       1.0  0.25313  0.19957  0.66680  1.0000
  C   C77       1.0  0.26705  0.25091  0.95603  1.0000
  C   C78       1.0  0.46630  0.16896  0.56619  1.0000
  H   H89       1.0  0.42193  0.02614  0.78500  1.0000
  C   C79       1.0  0.12970  0.25283  0.91070  1.0000
  C   C80       1.0  0.18275  0.26131  0.95505  1.0000
  H   H90       1.0  0.29085  0.24422  0.52435  1.0000
  C   C81       1.0  0.25053  0.23856  0.94089  1.0000
  C   C82       1.0  0.24158  0.22539  0.95803  1.0000
  H   H91       1.0  0.24508  0.23918  0.91587  1.0000
  C   C83       1.0  0.31331  0.10204  0.59075  1.0000
  C   C84       1.0  0.34280  0.10382  0.60584  1.0000
  C   C85       1.0  0.35711  0.11855  0.60815  1.0000
  C   C86       1.0  0.34213  0.13166  0.59548  1.0000
  C   C87       1.0  0.31256  0.12994  0.58049  1.0000
  C   C88       1.0  0.29825  0.11517  0.57812  1.0000
  H   H92       1.0  0.35462  0.09383  0.61569  1.0000
  H   H93       1.0  0.37991  0.11978  0.61991  1.0000
  H   H94       1.0  0.30085  0.13994  0.57053  1.0000
  H   H95       1.0  0.27544  0.11390  0.56638  1.0000
  C   C89       1.0  0.44052  0.11012  0.56961  1.0000
  H   H96       1.0  0.29411  0.17338  0.78759  1.0000
  C   C90       1.0  0.17831  0.10175  0.89608  1.0000
  C   C91       1.0  0.14911  0.10274  0.88025  1.0000
  C   C92       1.0  0.13757  0.11723  0.87058  1.0000
  C   C93       1.0  0.15513  0.13083  0.87650  1.0000
  C   C94       1.0  0.18435  0.12987  0.89230  1.0000
  C   C95       1.0  0.19588  0.11535  0.90203  1.0000
  H   H97       1.0  0.13537  0.09235  0.87561  1.0000
  H   H98       1.0  0.11502  0.11788  0.85824  1.0000
  H   H99       1.0  0.19808  0.14027  0.89695  1.0000
  H   H100      1.0  0.21850  0.11466  0.91428  1.0000
  N   N5        1.0  0.05535  0.16274  0.90666  1.0000
  C   C96       1.0  0.21109  0.03277  0.77800  1.0000
  C   C97       1.0  0.24043  0.03513  0.79316  1.0000
  C   C98       1.0  0.26845  0.03695  0.77515  1.0000
  C   C99       1.0  0.26758  0.03656  0.74177  1.0000
  C   C100      1.0  0.23819  0.03442  0.72662  1.0000
  C   C101      1.0  0.21021  0.03246  0.74464  1.0000
  H   H101      1.0  0.24163  0.03529  0.81876  1.0000
  H   H102      1.0  0.29099  0.03855  0.78721  1.0000
  H   H103      1.0  0.23703  0.03404  0.70103  1.0000
  H   H104      1.0  0.18771  0.03060  0.73261  1.0000
  H   H105      1.0  0.20103  0.14327  0.81788  1.0000
  C   C102      1.0  0.46416  0.04539  0.63900  1.0000
  C   C103      1.0  0.46528  0.03126  0.62287  1.0000
  H   H106      1.0  0.24818  0.09973  0.82349  1.0000
  H   H107      1.0  0.44352  0.02595  0.61424  1.0000
  H   H108      1.0  0.39081  0.99560  0.48633  1.0000
  H   H109      1.0  0.01654  0.22139  0.90831  1.0000
  H   H110      1.0  0.44946  0.17769  0.55849  1.0000
  H   H111      1.0  0.41983  0.09441  0.60323  1.0000
  H   H112      1.0  0.04062  0.03446  0.84562  1.0000
  H   H113      1.0  0.39044  0.04017  0.78420  1.0000
  H   H114      1.0  0.23635  0.06390  0.50375  1.0000
  H   H115      1.0  0.33450  0.05211  0.51497  1.0000
  C   C104      1.0  0.41193  0.03604  0.77144  1.0000
  C   C105      1.0  0.36982  0.23886  0.52023  1.0000
  C   C106      1.0  0.45874  0.00424  0.69185  1.0000
  H   H116      1.0  0.24770  0.12762  0.83305  1.0000
  C   C107      1.0  0.19685  0.23528  0.52392  1.0000
  C   C108      1.0  0.36685  0.99345  0.49452  1.0000
  H   H117      1.0  0.32357  0.06717  0.48794  1.0000
  C   C109      1.0  0.48945  0.02621  0.70988  1.0000
  N   N6        1.0  0.30045  0.15563  0.68318  1.0000
  C   C110      1.0  0.32483  0.14374  0.68997  1.0000
  C   C111      1.0  0.28039  0.14979  0.65657  1.0000
  C   C112      1.0  0.31671  0.16983  0.67198  1.0000
  C   C113      1.0  0.28227  0.15917  0.71226  1.0000
  C   C114      1.0  0.29822  0.16479  0.73977  1.0000
  C   C115      1.0  0.24862  0.15751  0.71414  1.0000
  C   C116      1.0  0.28159  0.16855  0.76729  1.0000
  H   H118      1.0  0.31372  0.13304  0.69965  1.0000
  H   H119      1.0  0.33813  0.14045  0.66816  1.0000
  H   H120      1.0  0.34301  0.14788  0.70725  1.0000
  H   H121      1.0  0.26814  0.13878  0.66278  1.0000
  H   H122      1.0  0.29489  0.14739  0.63512  1.0000
  H   H123      1.0  0.26241  0.15851  0.64919  1.0000
  H   H124      1.0  0.33345  0.17485  0.68975  1.0000
  H   H125      1.0  0.33088  0.16759  0.65030  1.0000
  H   H126      1.0  0.29916  0.17899  0.66627  1.0000
  H   H127      1.0  0.32363  0.16675  0.73991  1.0000
  H   H128      1.0  0.23425  0.15366  0.69437  1.0000
  H   H129      1.0  0.40973  0.00381  0.70282  1.0000
  C   C117      1.0  0.37670  0.02056  0.73972  1.0000
  C   C118      1.0  0.24868  0.16684  0.76830  1.0000
  H   H130      1.0  0.41775  0.25148  0.48842  1.0000
  C   C119      1.0  0.48771  0.01208  0.69408  1.0000
  H   H131      1.0  0.13910  0.22237  0.92225  1.0000
  C   C120      1.0  0.46782  0.08800  0.59151  1.0000
  H   H132      1.0  0.19338  0.25824  0.93266  1.0000
  H   H133      1.0  0.34472  0.23531  0.52456  1.0000
  H   H134      1.0  0.41945  0.11730  0.56809  1.0000
  H   H135      1.0  0.15254  0.25493  0.89826  1.0000
  C   C121      1.0  0.31649  0.06116  0.51010  1.0000
  N   N7        1.0  0.40430  0.03138  0.73834  1.0000
  H   H136      1.0  0.42928  0.04576  0.77273  1.0000
  H   H137      1.0  0.12486  0.26360  0.49890  1.0000
  C   C122      1.0  0.10228  0.24083  0.95382  1.0000
  H   H138      1.0  0.27390  0.26093  0.94232  1.0000
  H   H139      1.0  0.27493  0.05431  0.55768  1.0000
  C   C123      1.0  0.27798  0.24230  0.50246  1.0000
  C   C124      1.0  0.35577  0.00129  0.52171  1.0000
  C   C125      1.0  0.01205  0.21471  0.88704  1.0000
  H   H140      1.0  0.10354  0.15712  0.92037  1.0000
  H   H141      1.0  0.36677  0.01802  0.71576  1.0000
  C   C126      1.0  0.46739  0.11375  0.55185  1.0000
  H   H142      1.0  0.38310  0.00952  0.75153  1.0000
  H   H143      1.0  0.38906  0.04228  0.69536  1.0000
  C   C127      1.0  0.27604  0.04632  0.53698  1.0000
  H   H144      1.0  0.07362  0.14949  0.94602  1.0000
  C   C128      1.0  0.22760  0.12211  0.82132  1.0000
  H   H145      1.0  0.37241  0.05053  0.73046  1.0000
  H   H146      1.0  0.31849  0.06968  0.52990  1.0000
  C   C129      1.0  0.45604  0.15698  0.58567  1.0000
  H   H147      1.0  0.35649  0.02557  0.75323  1.0000
  C   C130      1.0  0.07906  0.15207  0.92083  1.0000
  H   H148      1.0  0.08199  0.18215  0.92575  1.0000
  S   S46       1.0  0.17937  0.01485  0.96955  1.0000
  H   H149      1.0  0.21485  0.21245  0.53263  1.0000
  H   H150      1.0  0.23568  0.17041  0.78919  1.0000
  H   H151      1.0  0.25266  0.04026  0.53506  1.0000
  H   H152      1.0  0.41316  0.05435  0.71995  1.0000
  H   H153      1.0  0.20648  0.16066  0.74248  1.0000
  C   C131      1.0  0.05724  0.17752  0.92462  1.0000
  C   C132      1.0  0.20140  0.13096  0.81271  1.0000
  H   H154      1.0  0.04298  0.18683  0.91352  1.0000
  C   C133      1.0  0.23224  0.16134  0.74182  1.0000
  H   H155      1.0  0.08069  0.14103  0.90724  1.0000
  C   C134      1.0  0.06501  0.16564  0.87348  1.0000
  C   C135      1.0  0.32483  0.99869  0.53258  1.0000
  C   C136      1.0  0.18009  0.21256  0.49497  1.0000
  H   H156      1.0  0.16777  0.08047  0.75763  1.0000
  H   H157      1.0  0.21190  0.24059  0.54190  1.0000
  C   C137      1.0  0.22753  0.10614  0.81589  1.0000
  H   H158      1.0  0.06586  0.15470  0.85954  1.0000
  H   H159      1.0  0.26352  0.07581  0.52562  1.0000
  N   N8        1.0  0.37979  0.23438  0.48789  1.0000
  H   H160      1.0  0.20496  0.06067  0.82410  1.0000
  H   H161      1.0  0.15102  0.07731  0.79671  1.0000
  C   C138      1.0  0.47776  0.14609  0.59659  1.0000
  C   C139      1.0  0.01846  0.03623  0.85801  1.0000
  C   C140      1.0  0.26155  0.06791  0.50471  1.0000
  C   C141      1.0  0.02227  0.15673  0.90713  1.0000
  C   C142      1.0  0.17498  0.12388  0.79875  1.0000
  C   C143      1.0  0.20595  0.07349  0.82688  1.0000
  C   C144      1.0  0.20103  0.09851  0.80165  1.0000
  H   H162      1.0  0.18698  0.07684  0.84375  1.0000
  C   C145      1.0  0.08894  0.00748  0.95756  1.0000
  H   H163      1.0  0.46465  0.04384  0.73440  1.0000
  C   C146      1.0  0.17209  0.07533  0.78137  1.0000
  H   H164      1.0  0.22901  0.07625  0.83862  1.0000
  H   H165      1.0  0.07473  0.99835  0.94538  1.0000
  H   H166      1.0  0.46972  0.13696  0.61224  1.0000
  C   C147      1.0  0.39433  0.04526  0.72046  1.0000
  C   C148      1.0  0.19852  0.21940  0.51874  1.0000
  N   N9        1.0  0.13426  0.24526  0.94192  1.0000
  N   N10       1.0  0.20165  0.08157  0.79623  1.0000
  C   C149      1.0  0.17460  0.10790  0.79324  1.0000
  C   C150      1.0  0.43146  0.01036  0.70592  1.0000
  H   H167      1.0  0.17336  0.06255  0.77775  1.0000
  H   H168      1.0  0.15427  0.13081  0.79320  1.0000
  C   C151      1.0  0.22857  0.07764  0.77514  1.0000
  H   H169      1.0  0.46705  0.12382  0.53658  1.0000
  H   H170      1.0  0.04863  0.17603  0.94930  1.0000
  H   H171      1.0  0.15310  0.10317  0.78292  1.0000
  H   H172      1.0  0.22858  0.06513  0.76882  1.0000
  H   H173      1.0  0.25205  0.08008  0.78634  1.0000
  H   H174      1.0  0.22728  0.08426  0.75260  1.0000
  C   C152      1.0  0.49473  0.02390  0.61824  1.0000
  H   H175      1.0  0.22416  0.27471  0.96872  1.0000
  H   H176      1.0  0.11435  0.00398  0.95802  1.0000
  C   C153      1.0  0.01891  0.04062  0.88990  1.0000
  H   H177      1.0  0.43127  0.15634  0.59274  1.0000
  C   C154      1.0  0.46229  0.03253  0.72370  1.0000
  H   H178      1.0  0.37125  0.00925  0.53432  1.0000
  H   H179      1.0  0.08789  0.01796  0.94229  1.0000
  H   H180      1.0  0.45739  0.99345  0.67876  1.0000
  H   H181      1.0  0.11748  0.26414  0.91332  1.0000
  H   H182      1.0  0.04864  0.17357  0.86099  1.0000
  C   C155      1.0  0.48320  0.20432  0.60292  1.0000
  C   C156      1.0  0.44076  0.09727  0.58941  1.0000
  C   C157      1.0  0.49828  0.17011  0.55742  1.0000
  H   H183      1.0  0.11512  0.24547  0.89429  1.0000
  H   H184      1.0  0.37158  0.25151  0.52449  1.0000
  H   H185      1.0  0.08907  0.17105  0.87226  1.0000
  H   H186      1.0  0.08922  0.23330  0.93657  1.0000
  H   H187      1.0  0.46676  0.07823  0.60744  1.0000
  C   C158      1.0  0.43261  0.02460  0.72293  1.0000
  H   H188      1.0  0.01114  0.00152  0.87661  1.0000
  H   H189      1.0  0.29404  0.03746  0.54308  1.0000
  H   H190      1.0  0.10396  0.23406  0.97613  1.0000
  H   H191      1.0  0.49548  0.01281  0.60635  1.0000
  H   H192      1.0  0.18200  0.20022  0.49075  1.0000
  C   C159      1.0  0.15249  0.23084  0.93715  1.0000
  C   C160      1.0  0.27245  0.22714  0.49181  1.0000
  H   H193      1.0  0.27146  0.26669  0.49333  1.0000
  H   H194      1.0  0.42961  0.23266  0.50019  1.0000
  C   C161      1.0  0.49251  0.05209  0.65034  1.0000
  N   N11       1.0  0.28382  0.05468  0.50736  1.0000
  H   H195      1.0  0.31803  0.02801  0.49894  1.0000
  C   C162      1.0  0.50067  0.21431  0.55258  1.0000
  H   H196      1.0  0.49285  0.99940  0.52970  1.0000
  C   C163      1.0  0.37814  0.21723  0.48581  1.0000
  H   H197      1.0  0.49161  0.06281  0.66359  1.0000
  C   C164      1.0  0.49557  0.09124  0.57357  1.0000
  H   H198      1.0  0.49522  0.21891  0.52941  1.0000
  C   C165      1.0  0.17676  0.24440  0.50534  1.0000
  H   H199      1.0  0.17682  0.25671  0.50994  1.0000
  H   H200      1.0  0.17553  0.23297  0.92506  1.0000
  C   C166      1.0  0.49463  0.10452  0.55373  1.0000
  H   H201      1.0  0.02773  0.00694  0.97727  1.0000
  H   H202      1.0  0.08713  0.25118  0.95769  1.0000
  H   H203      1.0  0.04219  0.02619  0.96968  1.0000
  C   C167      1.0  0.01417  0.14174  0.91850  1.0000
  H   H204      1.0  0.09868  0.24723  0.49431  1.0000
  C   C168      1.0  0.15225  0.25563  0.96366  1.0000
  C   C169      1.0  0.20068  0.27068  0.97556  1.0000
  Fe  Fe25      1.0  0.18360  0.41905  0.37498  1.0000
  S   S47       1.0  0.15176  0.41664  0.33277  1.0000
  S   S48       1.0  0.20806  0.39783  0.39539  1.0000
  Fe  Fe26      1.0  0.17063  0.45408  0.38103  1.0000
  S   S49       1.0  0.13824  0.45366  0.33807  1.0000
  S   S50       1.0  0.17848  0.47767  0.40523  1.0000
  Fe  Fe27      1.0  0.11820  0.43189  0.35924  1.0000
  S   S51       1.0  0.06819  0.42408  0.37117  1.0000
  Fe  Fe28      1.0  0.17553  0.43843  0.31538  1.0000
  S   S52       1.0  0.18849  0.43719  0.26269  1.0000
  S   S53       1.0  0.14868  0.43304  0.40309  1.0000
  S   S54       1.0  0.20929  0.44024  0.35678  1.0000
  Fe  Fe29      1.0  0.33955  0.41824  0.08434  1.0000
  S   S55       1.0  0.35811  0.41684  0.13414  1.0000
  S   S56       1.0  0.31689  0.39751  0.05947  1.0000
  Fe  Fe30      1.0  0.36266  0.45176  0.07505  1.0000
  S   S57       1.0  0.38359  0.45213  0.12447  1.0000
  S   S58       1.0  0.37407  0.47395  0.04699  1.0000
  Fe  Fe31      1.0  0.40176  0.42836  0.11427  1.0000
  S   S59       1.0  0.44948  0.41776  0.12701  1.0000
  Fe  Fe32      1.0  0.33788  0.44068  0.14012  1.0000
  S   S60       1.0  0.31775  0.44988  0.18689  1.0000
  S   S61       1.0  0.38429  0.42853  0.06400  1.0000
  S   S62       1.0  0.31587  0.44153  0.09127  1.0000
  C   C170      1.0  0.35676  0.48519  0.01597  1.0000
  H   H205      1.0  0.40272  0.34334  0.05510  1.0000
  H   H206      1.0  0.23746  0.42152  0.30142  1.0000
  H   H207      1.0  0.14263  0.37759  0.41918  1.0000
  H   H208      1.0  0.46419  0.37707  0.12857  1.0000
  H   H209      1.0  0.00371  0.41855  0.38768  1.0000
  H   H210      1.0  0.39647  0.50107  0.01501  1.0000
  C   C171      1.0  0.48440  0.42919  0.12634  1.0000
  H   H211      1.0  0.26623  0.37463  0.28893  1.0000
  H   H212      1.0  0.10932  0.32653  0.41644  1.0000
  H   H213      1.0  0.24087  0.37947  0.32157  1.0000
  H   H214      1.0  0.46260  0.44900  0.10464  1.0000
  C   C172      1.0  0.22003  0.39483  0.27212  1.0000
  C   C173      1.0  0.08389  0.46355  0.41891  1.0000
  H   H215      1.0  0.28108  0.38595  0.32165  1.0000
  H   H216      1.0  0.06511  0.38720  0.35640  1.0000
  C   C174      1.0  0.03263  0.43052  0.35347  1.0000
  H   H217      1.0  0.21127  0.40524  0.25924  1.0000
  C   C175      1.0  0.03243  0.44021  0.32701  1.0000
  N   N12       1.0  0.25028  0.39823  0.28924  1.0000
  H   H218      1.0  0.05464  0.44367  0.31621  1.0000
  C   C176      1.0  0.22506  0.44042  0.24242  1.0000
  C   C177      1.0  0.25174  0.44698  0.25731  1.0000
  C   C178      1.0  0.27986  0.44969  0.23997  1.0000
  C   C179      1.0  0.28192  0.44568  0.20769  1.0000
  C   C180      1.0  0.25537  0.43893  0.19288  1.0000
  C   C181      1.0  0.22712  0.43639  0.21014  1.0000
  H   H219      1.0  0.25057  0.45025  0.28202  1.0000
  H   H220      1.0  0.30019  0.45494  0.25167  1.0000
  H   H221      1.0  0.25645  0.43583  0.16808  1.0000
  H   H222      1.0  0.20663  0.43135  0.19832  1.0000
  C   C182      1.0  0.20007  0.37908  0.38000  1.0000
  C   C183      1.0  0.21165  0.36595  0.39585  1.0000
  C   C184      1.0  0.20643  0.35095  0.38342  1.0000
  C   C185      1.0  0.19013  0.34907  0.35467  1.0000
  C   C186      1.0  0.17844  0.36217  0.33902  1.0000
  C   C187      1.0  0.18299  0.37703  0.35180  1.0000
  H   H223      1.0  0.22489  0.36739  0.41772  1.0000
  H   H224      1.0  0.21579  0.34095  0.39557  1.0000
  H   H225      1.0  0.16571  0.36082  0.31683  1.0000
  H   H226      1.0  0.17362  0.38689  0.33951  1.0000
  C   C188      1.0  0.33634  0.34781  0.09309  1.0000
  C   C189      1.0  0.32090  0.35040  0.06419  1.0000
  C   C190      1.0  0.31497  0.36569  0.05412  1.0000
  C   C191      1.0  0.32472  0.37844  0.07267  1.0000
  C   C192      1.0  0.34031  0.37574  0.10144  1.0000
  C   C193      1.0  0.34590  0.36053  0.11164  1.0000
  H   H227      1.0  0.31336  0.34070  0.04970  1.0000
  H   H228      1.0  0.30285  0.36766  0.03184  1.0000
  H   H229      1.0  0.34802  0.38536  0.11592  1.0000
  H   H230      1.0  0.35809  0.35866  0.13391  1.0000
  C   C194      1.0  0.25608  0.32797  0.23684  1.0000
  H   H231      1.0  0.07782  0.50236  0.40948  1.0000
  C   C195      1.0  0.16945  0.48517  0.44353  1.0000
  C   C196      1.0  0.33108  0.41309  0.26195  1.0000
  C   C197      1.0  0.02140  0.48978  0.43390  1.0000
  C   C198      1.0  0.15591  0.47608  0.46734  1.0000
  H   H232      1.0  0.08138  0.46296  0.44510  1.0000
  H   H233      1.0  0.23574  0.33103  0.28343  1.0000
  H   H234      1.0  0.05682  0.35944  0.34700  1.0000
  H   H235      1.0  0.24542  0.33705  0.15631  1.0000
  S   S63       1.0  0.18522  0.33091  0.33591  1.0000
  H   H236      1.0  0.32779  0.52439  0.04145  1.0000
  C   C199      1.0  0.37363  0.49815  0.00460  1.0000
  H   H237      1.0  0.44923  0.32572  0.14546  1.0000
  H   H238      1.0  0.22266  0.38511  0.25504  1.0000
  H   H239      1.0  0.07310  0.45281  0.40882  1.0000
  H   H240      1.0  0.23351  0.45546  0.48364  1.0000
  H   H241      1.0  0.43660  0.65509  0.98834  1.0000
  C   C200      1.0  0.32710  0.48168  0.00244  1.0000
  C   C201      1.0  0.11946  0.35751  0.39879  1.0000
  H   H242      1.0  0.26351  0.41255  0.32968  1.0000
  H   H243      1.0  0.20068  0.39141  0.28863  1.0000
  N   N13       1.0  0.29846  0.48992  0.12141  1.0000
  C   C202      1.0  0.32977  0.48213  0.12086  1.0000
  C   C203      1.0  0.29869  0.50153  0.14734  1.0000
  C   C204      1.0  0.27413  0.47799  0.12925  1.0000
  C   C205      1.0  0.29273  0.49772  0.09070  1.0000
  C   C206      1.0  0.31480  0.50885  0.07923  1.0000
  C   C207      1.0  0.26557  0.49460  0.07139  1.0000
  C   C208      1.0  0.31012  0.51630  0.05023  1.0000
  C   C209      1.0  0.26109  0.50218  0.04245  1.0000
  C   C210      1.0  0.28328  0.51301  0.03194  1.0000
  H   H244      1.0  0.35010  0.49033  0.11894  1.0000
  H   H245      1.0  0.33406  0.47526  0.14276  1.0000
  H   H246      1.0  0.33133  0.47417  0.10022  1.0000
  H   H247      1.0  0.31812  0.51019  0.14461  1.0000
  H   H248      1.0  0.30235  0.49596  0.17088  1.0000
  H   H249      1.0  0.27579  0.50792  0.14812  1.0000
  H   H250      1.0  0.27330  0.46864  0.11106  1.0000
  H   H251      1.0  0.27944  0.47218  0.15223  1.0000
  H   H252      1.0  0.25004  0.48309  0.13172  1.0000
  H   H253      1.0  0.33622  0.51168  0.09231  1.0000
  H   H254      1.0  0.24763  0.48622  0.07783  1.0000
  H   H255      1.0  0.23214  0.48353  0.47362  1.0000
  H   H256      1.0  0.24058  0.49945  0.02775  1.0000
  H   H257      1.0  0.10979  0.46309  0.41344  1.0000
  C   C211      1.0  0.27633  0.40343  0.26822  1.0000
  H   H258      1.0  0.18643  0.50803  0.43185  1.0000
  H   H259      1.0  0.34633  0.41770  0.21426  1.0000
  C   C212      1.0  0.27336  0.40378  0.23463  1.0000
  C   C213      1.0  0.17602  0.50087  0.45009  1.0000
  N   N14       1.0  0.44445  0.32627  0.09441  1.0000
  C   C214      1.0  0.26009  0.38396  0.30600  1.0000
  H   H260      1.0  0.31031  0.40798  0.30651  1.0000
  H   H261      1.0  0.27334  0.33697  0.24156  1.0000
  H   H262      1.0  0.09794  0.47877  0.36382  1.0000
  H   H263      1.0  0.25155  0.40078  0.22243  1.0000
  N   N15       1.0  0.06911  0.47776  0.40603  1.0000
  C   C215      1.0  0.16953  0.50739  0.48008  1.0000
  C   C216      1.0  0.03491  0.47808  0.41441  1.0000
  H   H264      1.0  0.22289  0.40709  0.32836  1.0000
  C   C217      1.0  0.08753  0.49124  0.41841  1.0000
  C   C218      1.0  0.24337  0.41036  0.31312  1.0000
  H   H265      1.0  0.48839  0.35812  0.04668  1.0000
  H   H266      1.0  0.13703  0.32702  0.38376  1.0000
  H   H267      1.0  0.49497  0.38579  0.05311  1.0000
  C   C219      1.0  0.48454  0.44406  0.11339  1.0000
  C   C220      1.0  0.12360  0.37340  0.40385  1.0000
  H   H268      1.0  0.11831  0.33544  0.33027  1.0000
  H   H269      1.0  0.28920  0.34623  0.19251  1.0000
  H   H270      1.0  0.31369  0.47184  0.01096  1.0000
  C   C221      1.0  0.10408  0.38401  0.38855  1.0000
  H   H271      1.0  0.28016  0.51855  0.00909  1.0000
  H   H272      1.0  0.07652  0.33745  0.32298  1.0000
  H   H273      1.0  0.39539  0.37107  0.05442  1.0000
  C   C222      1.0  0.11180  0.32487  0.39044  1.0000
  C   C223      1.0  0.41299  0.36612  0.07032  1.0000
  S   S64       1.0  0.34434  0.32906  0.10770  1.0000
  C   C224      1.0  0.43948  0.34323  0.09247  1.0000
  C   C225      1.0  0.07256  0.47766  0.37104  1.0000
  C   C226      1.0  0.30615  0.40806  0.28124  1.0000
  C   C227      1.0  0.41750  0.35009  0.07101  1.0000
  H   H274      1.0  0.03868  0.33634  0.36649  1.0000
  H   H275      1.0  0.49422  0.32788  0.10817  1.0000
  C   C228      1.0  0.32729  0.41340  0.22918  1.0000
  C   C229      1.0  0.08009  0.37878  0.36826  1.0000
  H   H276      1.0  0.29570  0.40923  0.19005  1.0000
  H   H277      1.0  0.31644  0.33214  0.20935  1.0000
  C   C230      1.0  0.45634  0.35344  0.11311  1.0000
  H   H278      1.0  0.06375  0.46671  0.36008  1.0000
  H   H279      1.0  0.05927  0.48738  0.36003  1.0000
  C   C231      1.0  0.00369  0.42601  0.36714  1.0000
  H   H280      1.0  0.31780  0.33682  0.16830  1.0000
  H   H281      1.0  0.47297  0.34909  0.13048  1.0000
  C   C232      1.0  0.09510  0.35175  0.37830  1.0000
  C   C233      1.0  0.07558  0.36291  0.36314  1.0000
  C   C234      1.0  0.29866  0.40860  0.21557  1.0000
  H   H282      1.0  0.35336  0.41697  0.27241  1.0000
  C   C235      1.0  0.30125  0.33497  0.18850  1.0000
  H   H283      1.0  0.13607  0.35003  0.41081  1.0000
  H   H284      1.0  0.42552  0.38816  0.09099  1.0000
  C   C236      1.0  0.42981  0.37577  0.09099  1.0000
  H   H285      1.0  0.48695  0.32658  0.06623  1.0000
  C   C237      1.0  0.26042  0.32666  0.15238  1.0000
  H   H286      1.0  0.11284  0.49088  0.41072  1.0000
  H   H287      1.0  0.15089  0.46397  0.46285  1.0000
  C   C238      1.0  0.09431  0.33159  0.33824  1.0000
  C   C239      1.0  0.01386  0.46652  0.40257  1.0000
  N   N16       1.0  0.08982  0.33500  0.37238  1.0000
  H   H288      1.0  0.08820  0.49144  0.44479  1.0000
  H   H289      1.0  0.03549  0.49897  0.44431  1.0000
  H   H290      1.0  0.10772  0.39633  0.39221  1.0000
  H   H291      1.0  0.17491  0.51944  0.48469  1.0000
  H   H292      1.0  0.05218  0.33370  0.40656  1.0000
  H   H293      1.0  0.27702  0.32931  0.13253  1.0000
  C   C240      1.0  0.05691  0.33061  0.38141  1.0000
  H   H294      1.0  0.02245  0.45716  0.38803  1.0000
  C   C241      1.0  0.45153  0.36946  0.11227  1.0000
  C   C242      1.0  0.00327  0.44532  0.31431  1.0000
  H   H295      1.0  0.00312  0.45274  0.29372  1.0000
  H   H296      1.0  0.15384  0.65594  0.48528  1.0000
  H   H297      1.0  0.38446  0.44925  0.98720  1.0000
  H   H298      1.0  0.33128  0.58487  0.80404  1.0000
  C   C243      1.0  0.01904  0.51292  0.56661  1.0000
  Fe  Fe33      1.0  0.35705  0.56620  0.88226  1.0000
  S   S65       1.0  0.36608  0.55928  0.83189  1.0000
  S   S66       1.0  0.37355  0.59097  0.89048  1.0000
  Fe  Fe34      1.0  0.33511  0.53318  0.90054  1.0000
  S   S67       1.0  0.34182  0.52456  0.85051  1.0000
  S   S68       1.0  0.31447  0.51541  0.93565  1.0000
  Fe  Fe35      1.0  0.38795  0.53807  0.85286  1.0000
  S   S69       1.0  0.43480  0.52767  0.83738  1.0000
  Fe  Fe36      1.0  0.31909  0.54679  0.83397  1.0000
  S   S70       1.0  0.27910  0.55352  0.79920  1.0000
  S   S71       1.0  0.38227  0.54565  0.90333  1.0000
  S   S72       1.0  0.30905  0.55466  0.88400  1.0000
  Fe  Fe37      1.0  0.15315  0.56323  0.58745  1.0000
  S   S73       1.0  0.15132  0.55941  0.64016  1.0000
  S   S74       1.0  0.14626  0.58709  0.56554  1.0000
  Fe  Fe38      1.0  0.15284  0.52834  0.57093  1.0000
  S   S75       1.0  0.15084  0.52256  0.62275  1.0000
  S   S76       1.0  0.14818  0.50561  0.54263  1.0000
  Fe  Fe39      1.0  0.11475  0.54125  0.62764  1.0000
  S   S77       1.0  0.07178  0.53581  0.65788  1.0000
  Fe  Fe40      1.0  0.18780  0.54089  0.63137  1.0000
  S   S78       1.0  0.22888  0.53194  0.66213  1.0000
  S   S79       1.0  0.11403  0.54601  0.57561  1.0000
  S   S80       1.0  0.19239  0.54584  0.57890  1.0000
  C   C244      1.0  0.03275  0.55083  0.61553  1.0000
  C   C245      1.0  0.03454  0.54150  0.64244  1.0000
  C   C246      1.0  0.11873  0.62987  0.64318  1.0000
  H   H299      1.0  0.05426  0.55474  0.60415  1.0000
  H   H300      1.0  0.29555  0.59850  0.85797  1.0000
  C   C247      1.0  0.47008  0.53791  0.84745  1.0000
  C   C248      1.0  0.33177  0.50384  0.96621  1.0000
  C   C249      1.0  0.46889  0.55265  0.86117  1.0000
  C   C250      1.0  0.42339  0.46205  0.96696  1.0000
  H   H301      1.0  0.44612  0.55796  0.86577  1.0000
  C   C251      1.0  0.26691  0.54769  0.76037  1.0000
  C   C252      1.0  0.24236  0.55594  0.74525  1.0000
  C   C253      1.0  0.23091  0.55152  0.71503  1.0000
  C   C254      1.0  0.24346  0.53856  0.69967  1.0000
  C   C255      1.0  0.26820  0.53039  0.71467  1.0000
  C   C256      1.0  0.27999  0.53495  0.74472  1.0000
  H   H302      1.0  0.23202  0.56581  0.75705  1.0000
  H   H303      1.0  0.21247  0.55819  0.70364  1.0000
  H   H304      1.0  0.27831  0.52041  0.70302  1.0000
  H   H305      1.0  0.29885  0.52847  0.75597  1.0000
  H   H306      1.0  0.10130  0.63507  0.58196  1.0000
  H   H307      1.0  0.05888  0.58683  0.59314  1.0000
  C   C257      1.0  0.29710  0.65341  0.81238  1.0000
  H   H308      1.0  0.34489  0.60125  0.82667  1.0000
  H   H309      1.0  0.23991  0.46365  0.58332  1.0000
  C   C258      1.0  0.21115  0.49218  0.60381  1.0000
  C   C259      1.0  0.05162  0.59710  0.60604  1.0000
  C   C260      1.0  0.43271  0.47293  0.94428  1.0000
  C   C261      1.0  0.27954  0.59832  0.77926  1.0000
  C   C262      1.0  0.31667  0.63475  0.91131  1.0000
  C   C263      1.0  0.34115  0.63487  0.88907  1.0000
  C   C264      1.0  0.35713  0.62113  0.88154  1.0000
  C   C265      1.0  0.34872  0.60712  0.89603  1.0000
  C   C266      1.0  0.32327  0.60680  0.91720  1.0000
  C   C267      1.0  0.30728  0.62060  0.92477  1.0000
  H   H310      1.0  0.34806  0.64559  0.87794  1.0000
  H   H311      1.0  0.37664  0.62142  0.86493  1.0000
  H   H312      1.0  0.31681  0.59609  0.92877  1.0000
  H   H313      1.0  0.28822  0.62039  0.94190  1.0000
  C   C268      1.0  0.19371  0.63272  0.59752  1.0000
  C   C269      1.0  0.20346  0.61861  0.61075  1.0000
  C   C270      1.0  0.18900  0.60453  0.60148  1.0000
  C   C271      1.0  0.16527  0.60442  0.57816  1.0000
  C   C272      1.0  0.15587  0.61852  0.56456  1.0000
  C   C273      1.0  0.16963  0.63264  0.57456  1.0000
  H   H314      1.0  0.22230  0.61854  0.62833  1.0000
  H   H315      1.0  0.19659  0.59375  0.61201  1.0000
  H   H316      1.0  0.13774  0.61851  0.54627  1.0000
  H   H317      1.0  0.16217  0.64342  0.56398  1.0000
  C   C274      1.0  0.09298  0.64337  0.60019  1.0000
  C   C275      1.0  0.43879  0.61858  0.92671  1.0000
  H   H318      1.0  0.43661  0.65639  0.90095  1.0000
  C   C276      1.0  0.28362  0.62869  0.83590  1.0000
  H   H319      1.0  0.05579  0.65405  0.64516  1.0000
  C   C277      1.0  0.02135  0.59782  0.61919  1.0000
  H   H320      1.0  0.27332  0.62290  0.85606  1.0000
  H   H321      1.0  0.37413  0.51759  0.97231  1.0000
  C   C278      1.0  0.07728  0.64789  0.65389  1.0000
  H   H322      1.0  0.23348  0.50194  0.51682  1.0000
  C   C279      1.0  0.06464  0.62295  0.62718  1.0000
  N   N17       1.0  0.08783  0.63581  0.63121  1.0000
  H   H323      1.0  0.45512  0.59599  0.91287  1.0000
  H   H324      1.0  0.05705  0.50333  0.53905  1.0000
  H   H325      1.0  0.21233  0.48046  0.61443  1.0000
  H   H326      1.0  0.13035  0.62187  0.62634  1.0000
  H   H327      1.0  0.27486  0.65787  0.56400  1.0000
  H   H328      1.0  0.19347  0.63762  0.50681  1.0000
  H   H329      1.0  0.09584  0.60840  0.59845  1.0000
  H   H330      1.0  0.41577  0.61632  0.91611  1.0000
  C   C280      1.0  0.28362  0.64489  0.83686  1.0000
  H   H331      1.0  0.07229  0.64291  0.67763  1.0000
  C   C281      1.0  0.41497  0.65095  0.91135  1.0000
  H   H332      1.0  0.35928  0.47984  0.91229  1.0000
  C   C282      1.0  0.47723  0.63486  0.95401  1.0000
  H   H333      1.0  0.41473  0.50965  0.93468  1.0000
  H   H334      1.0  0.32136  0.62424  0.76498  1.0000
  C   C283      1.0  0.44575  0.63287  0.94204  1.0000
  H   H335      1.0  0.46537  0.48269  0.88893  1.0000
  C   C284      1.0  0.23701  0.45805  0.53432  1.0000
  H   H336      1.0  0.07066  0.64868  0.59110  1.0000
  N   N18       1.0  0.23824  0.49544  0.58240  1.0000
  C   C285      1.0  0.26838  0.49335  0.60030  1.0000
  C   C286      1.0  0.23638  0.51199  0.57329  1.0000
  C   C287      1.0  0.00630  0.53667  0.65720  1.0000
  C   C288      1.0  0.23717  0.48469  0.55496  1.0000
  C   C289      1.0  0.36919  0.46355  0.94846  1.0000
  C   C290      1.0  0.23505  0.48986  0.52304  1.0000
  H   H337      1.0  0.37924  0.50630  0.91176  1.0000
  H   H338      1.0  0.40721  0.64161  0.89497  1.0000
  H   H339      1.0  0.03457  0.52092  0.57931  1.0000
  H   H340      1.0  0.28934  0.49526  0.58473  1.0000
  H   H341      1.0  0.27034  0.50167  0.62052  1.0000
  H   H342      1.0  0.27045  0.48158  0.61056  1.0000
  H   H343      1.0  0.25669  0.51551  0.55808  1.0000
  H   H344      1.0  0.23707  0.51976  0.59443  1.0000
  H   H345      1.0  0.21373  0.51445  0.56049  1.0000
  S   S81       1.0  0.21343  0.65004  0.60895  1.0000
  H   H346      1.0  0.34440  0.46021  0.95079  1.0000
  H   H347      1.0  0.21034  0.50057  0.62389  1.0000
  C   C291      1.0  0.01206  0.61104  0.63558  1.0000
  C   C292      1.0  0.22764  0.65543  0.51868  1.0000
  N   N19       1.0  0.29739  0.60338  0.80793  1.0000
  H   H348      1.0  0.09572  0.65709  0.65716  1.0000
  H   H349      1.0  0.27823  0.58545  0.77748  1.0000
  C   C293      1.0  0.14940  0.48260  0.49733  1.0000
  N   N20       1.0  0.41889  0.49164  0.89982  1.0000
  C   C294      1.0  0.40536  0.48793  0.86807  1.0000
  C   C295      1.0  0.40569  0.50656  0.91066  1.0000
  H   H350      1.0  0.45946  0.50238  0.87719  1.0000
  C   C296      1.0  0.41023  0.47952  0.92300  1.0000
  H   H351      1.0  0.37265  0.64803  0.95898  1.0000
  H   H352      1.0  0.37899  0.48865  0.86741  1.0000
  H   H353      1.0  0.41362  0.49627  0.84971  1.0000
  H   H354      1.0  0.41234  0.47612  0.86030  1.0000
  H   H355      1.0  0.13932  0.47539  0.51566  1.0000
  H   H356      1.0  0.41236  0.51613  0.89450  1.0000
  C   C297      1.0  0.03170  0.50304  0.54389  1.0000
  C   C298      1.0  0.07285  0.60951  0.60961  1.0000
  C   C299      1.0  0.23829  0.46844  0.55978  1.0000
  C   C300      1.0  0.46141  0.60685  0.92443  1.0000
  C   C301      1.0  0.31480  0.49092  0.97767  1.0000
  C   C302      1.0  0.31066  0.62960  0.78544  1.0000
  C   C303      1.0  0.29724  0.62051  0.81006  1.0000
  C   C304      1.0  0.28267  0.59561  0.83563  1.0000
  H   H357      1.0  0.25719  0.59873  0.83821  1.0000
  C   C305      1.0  0.03321  0.62348  0.63952  1.0000
  H   H358      1.0  0.28348  0.58276  0.83341  1.0000
  C   C306      1.0  0.39173  0.45734  0.96898  1.0000
  H   H359      1.0  0.46529  0.49830  0.91787  1.0000
  C   C307      1.0  0.45380  0.49372  0.89593  1.0000
  N   N21       1.0  0.42136  0.64515  0.94373  1.0000
  H   H360      1.0  0.11567  0.62352  0.66586  1.0000
  H   H361      1.0  0.48509  0.64546  0.96528  1.0000
  H   H362      1.0  0.18809  0.49296  0.59078  1.0000
  H   H363      1.0  0.34298  0.60211  0.78425  1.0000
  C   C308      1.0  0.33055  0.59774  0.80556  1.0000
  H   H364      1.0  0.25473  0.60275  0.77957  1.0000
  C   C309      1.0  0.37807  0.47468  0.92619  1.0000
  H   H365      1.0  0.29085  0.60236  0.75703  1.0000
  C   C310      1.0  0.15627  0.49826  0.50398  1.0000
  H   H366      1.0  0.29184  0.48808  0.96745  1.0000
  N   N22       1.0  0.14317  0.52554  0.72993  1.0000
  C   C311      1.0  0.11228  0.52546  0.74682  1.0000
  C   C312      1.0  0.14653  0.54039  0.71285  1.0000
  C   C313      1.0  0.14178  0.51301  0.70577  1.0000
  C   C314      1.0  0.16984  0.52394  0.75276  1.0000
  C   C315      1.0  0.17317  0.53448  0.77848  1.0000
  C   C316      1.0  0.19367  0.51240  0.74977  1.0000
  C   C317      1.0  0.19851  0.53343  0.79995  1.0000
  C   C318      1.0  0.21883  0.51144  0.77149  1.0000
  C   C319      1.0  0.22122  0.52191  0.79652  1.0000
  H   H367      1.0  0.10948  0.53566  0.76258  1.0000
  H   H368      1.0  0.09175  0.52584  0.72993  1.0000
  H   H369      1.0  0.10964  0.51486  0.76151  1.0000
  H   H370      1.0  0.14734  0.55053  0.72907  1.0000
  H   H371      1.0  0.12630  0.54230  0.69624  1.0000
  H   H372      1.0  0.16877  0.54057  0.69870  1.0000
  H   H373      1.0  0.13912  0.50144  0.71697  1.0000
  H   H374      1.0  0.12115  0.51447  0.68929  1.0000
  H   H375      1.0  0.16340  0.51305  0.69061  1.0000
  H   H376      1.0  0.15662  0.54384  0.78178  1.0000
  H   H377      1.0  0.19386  0.50417  0.73052  1.0000
  H   H378      1.0  0.20122  0.54186  0.81888  1.0000
  H   H379      1.0  0.23717  0.50281  0.76843  1.0000
  H   H380      1.0  0.24136  0.52147  0.81268  1.0000
  H   H381      1.0  0.45751  0.47620  0.94437  1.0000
  C   C320      1.0  0.49182  0.60905  0.93694  1.0000
  C   C321      1.0  0.39132  0.63894  0.95721  1.0000
  H   H382      1.0  0.11113  0.65281  0.60186  1.0000
  H   H383      1.0  0.27359  0.65088  0.85708  1.0000
  H   H384      1.0  0.38050  0.62963  0.94254  1.0000
  H   H385      1.0  0.13640  0.63937  0.64721  1.0000
  H   H386      1.0  0.02435  0.63336  0.65237  1.0000
  H   H387      1.0  0.48999  0.63361  0.87692  1.0000
  S   S82       1.0  0.29796  0.65203  0.92335  1.0000
  H   H388      1.0  0.00752  0.52948  0.67810  1.0000
  C   C322      1.0  0.31058  0.64578  0.78671  1.0000
  H   H389      1.0  0.32106  0.65252  0.76775  1.0000
  C   C323      1.0  0.49985  0.53121  0.84153  1.0000
  C   C324      1.0  0.36121  0.50746  0.98007  1.0000
  H   H390      1.0  0.00507  0.58811  0.61668  1.0000
  C   C325      1.0  0.49723  0.56069  0.86844  1.0000
  H   H391      1.0  0.49603  0.57216  0.87868  1.0000
  H   H392      1.0  0.24405  0.64695  0.52783  1.0000
  H   H393      1.0  0.39532  0.63411  0.98129  1.0000
  C   C326      1.0  0.19870  0.64994  0.50650  1.0000
  H   H394      1.0  0.01039  0.62994  0.55234  1.0000
  H   H395      1.0  0.50099  0.51985  0.83080  1.0000
  H   H396      1.0  0.44061  0.45746  0.98362  1.0000
  C   C327      1.0  0.49978  0.62306  0.95149  1.0000
  H   H397      1.0  0.02172  0.48510  0.50988  1.0000
  C   C328      1.0  0.01176  0.49279  0.52753  1.0000
  H   H398      1.0  0.00197  0.56236  0.58237  1.0000
  C   C329      1.0  0.00305  0.55524  0.60337  1.0000
  H   H399      1.0  0.23754  0.44568  0.53855  1.0000
  C   C330      1.0  0.23485  0.46350  0.50339  1.0000
  C   C331      1.0  0.23411  0.47935  0.49778  1.0000
  Fe  Fe41      1.0  0.18013  0.77975  0.16173  1.0000
  S   S83       1.0  0.21250  0.78453  0.12062  1.0000
  S   S84       1.0  0.19184  0.77300  0.21280  1.0000
  Fe  Fe42      1.0  0.11850  0.78547  0.12208  1.0000
  S   S85       1.0  0.14695  0.79035  0.07784  1.0000
  S   S86       1.0  0.06620  0.79148  0.13292  1.0000
  Fe  Fe43      1.0  0.17835  0.77007  0.09137  1.0000
  S   S87       1.0  0.19387  0.74936  0.05994  1.0000
  Fe  Fe44      1.0  0.17920  0.80429  0.11000  1.0000
  S   S88       1.0  0.19745  0.82805  0.09587  1.0000
  S   S89       1.0  0.14718  0.76421  0.13363  1.0000
  S   S90       1.0  0.14971  0.80056  0.15310  1.0000
  Fe  Fe45      1.0  0.32182  0.80713  0.39613  1.0000
  S   S91       1.0  0.35506  0.80170  0.35683  1.0000
  S   S92       1.0  0.29606  0.83027  0.39570  1.0000
  Fe  Fe46      1.0  0.32525  0.77415  0.42263  1.0000
  S   S93       1.0  0.35951  0.76657  0.38390  1.0000
  C   C332      1.0  0.43909  0.90317  0.39580  1.0000
  Fe  Fe47      1.0  0.38545  0.78923  0.39256  1.0000
  S   S94       1.0  0.43788  0.79667  0.38577  1.0000
  Fe  Fe48      1.0  0.32720  0.77972  0.35032  1.0000
  S   S95       1.0  0.31832  0.77483  0.29749  1.0000
  S   S96       1.0  0.35328  0.79623  0.43286  1.0000
  S   S97       1.0  0.29171  0.78573  0.38802  1.0000
  Fe  Fe49      1.0  0.38247  0.93646  0.35496  1.0000
  S   S98       1.0  0.38504  0.93506  0.40754  1.0000
  S   S99       1.0  0.42695  0.93105  0.32722  1.0000
  Fe  Fe50      1.0  0.31000  0.93845  0.35469  1.0000
  S   S100      1.0  0.30764  0.93702  0.40844  1.0000
  S   S101      1.0  0.26251  0.93808  0.32752  1.0000
  Fe  Fe51      1.0  0.34863  0.95403  0.40866  1.0000
  S   S102      1.0  0.36279  0.97357  0.44343  1.0000
  Fe  Fe52      1.0  0.34432  0.91826  0.40359  1.0000
  S   S103      1.0  0.35129  0.89664  0.43351  1.0000
  S   S104      1.0  0.34884  0.95670  0.35517  1.0000
  S   S105      1.0  0.34382  0.91844  0.35067  1.0000
  Fe  Fe53      1.0  0.14062  0.91444  0.12831  1.0000
  S   S106      1.0  0.13538  0.93051  0.17013  1.0000
  S   S107      1.0  0.12865  0.88946  0.14086  1.0000
  Fe  Fe54      1.0  0.15824  0.94132  0.08325  1.0000
  S   S108      1.0  0.15521  0.95875  0.12235  1.0000
  S   S109      1.0  0.16932  0.94765  0.03183  1.0000
  Fe  Fe55      1.0  0.18088  0.94138  0.15308  1.0000
  S   S110      1.0  0.22710  0.94665  0.18044  1.0000
  Fe  Fe56      1.0  0.11018  0.94608  0.13554  1.0000
  S   S111      1.0  0.06512  0.96018  0.13913  1.0000
  S   S112      1.0  0.18721  0.92460  0.11257  1.0000
  S   S113      1.0  0.11217  0.92932  0.09510  1.0000
  C   C333      1.0  0.25335  0.94066  0.28649  1.0000
  C   C334      1.0  0.27661  0.94418  0.26399  1.0000
  C   C335      1.0  0.26814  0.94591  0.23174  1.0000
  C   C336      1.0  0.23639  0.94408  0.22145  1.0000
  C   C337      1.0  0.21316  0.94046  0.24392  1.0000
  C   C338      1.0  0.22161  0.93880  0.27617  1.0000
  H   H400      1.0  0.30111  0.94563  0.27145  1.0000
  H   H401      1.0  0.28636  0.94874  0.21470  1.0000
  H   H402      1.0  0.18858  0.93922  0.23662  1.0000
  H   H403      1.0  0.20338  0.93612  0.29331  1.0000
  C   C339      1.0  0.02662  0.93732  0.16456  1.0000
  C   C340      1.0  0.02827  0.95098  0.14695  1.0000
  H   H404      1.0  0.11391  0.85222  0.08470  1.0000
  H   H405      1.0  0.04829  0.93192  0.17275  1.0000
  C   C341      1.0  0.25125  0.98334  0.06640  1.0000
  C   C342      1.0  0.46551  0.95402  0.35274  1.0000
  C   C343      1.0  0.46387  0.93970  0.33731  1.0000
  H   H406      1.0  0.24059  0.96458  0.03243  1.0000
  H   H407      1.0  0.44383  0.95985  0.35940  1.0000
  H   H408      1.0  0.11986  0.82603  0.07979  1.0000
  H   H409      1.0  0.43246  0.89858  0.33236  1.0000
  H   H410      1.0  0.03759  0.77053  0.08513  1.0000
  C   C344      1.0  0.16882  0.96649  0.01475  1.0000
  C   C345      1.0  0.31411  0.84846  0.40391  1.0000
  C   C346      1.0  0.30099  0.86187  0.39047  1.0000
  C   C347      1.0  0.31303  0.87666  0.39832  1.0000
  C   C348      1.0  0.33763  0.87820  0.42055  1.0000
  C   C349      1.0  0.35084  0.86479  0.43393  1.0000
  C   C350      1.0  0.33951  0.84996  0.42528  1.0000
  H   H411      1.0  0.28112  0.86085  0.37420  1.0000
  H   H412      1.0  0.30248  0.88688  0.38801  1.0000
  H   H413      1.0  0.36975  0.86585  0.45129  1.0000
  H   H414      1.0  0.34969  0.83975  0.43595  1.0000
  C   C351      1.0  0.22716  0.77462  0.23598  1.0000
  C   C352      1.0  0.25674  0.77819  0.22276  1.0000
  C   C353      1.0  0.28434  0.77833  0.24197  1.0000
  C   C354      1.0  0.28262  0.77528  0.27468  1.0000
  C   C355      1.0  0.25290  0.77217  0.28801  1.0000
  C   C356      1.0  0.22543  0.77170  0.26870  1.0000
  H   H415      1.0  0.25850  0.78044  0.19765  1.0000
  H   H416      1.0  0.30724  0.78063  0.23135  1.0000
  H   H417      1.0  0.25120  0.76966  0.31304  1.0000
  H   H418      1.0  0.20269  0.76888  0.27915  1.0000
  C   C357      1.0  0.17982  0.84526  0.10989  1.0000
  C   C358      1.0  0.15816  0.84505  0.13486  1.0000
  C   C359      1.0  0.14316  0.85879  0.14439  1.0000
  C   C360      1.0  0.14984  0.87286  0.12920  1.0000
  C   C361      1.0  0.17238  0.87322  0.10501  1.0000
  C   C362      1.0  0.18730  0.85943  0.09539  1.0000
  H   H419      1.0  0.15268  0.83429  0.14662  1.0000
  H   H420      1.0  0.12599  0.85847  0.16338  1.0000
  H   H421      1.0  0.17777  0.88401  0.09320  1.0000
  H   H422      1.0  0.20423  0.85970  0.07617  1.0000
  C   C363      1.0  0.24659  0.75514  0.02066  1.0000
  C   C364      1.0  0.22372  0.74451  0.03123  1.0000
  H   H423      1.0  0.27897  0.96711  0.13467  1.0000
  H   H424      1.0  0.24662  0.76682  0.02991  1.0000
  C   C365      1.0  0.06648  0.98544  0.06312  1.0000
  H   H425      1.0  0.20206  0.98331  0.10527  1.0000
  H   H426      1.0  0.06006  0.82419  0.12577  1.0000
  H   H427      1.0  0.20692  0.72099  0.02645  1.0000
  H   H428      1.0  0.24426  0.75250  0.45137  1.0000
  H   H429      1.0  0.05634  0.84482  0.12854  1.0000
  C   C366      1.0  0.16804  0.97991  0.03333  1.0000
  C   C367      1.0  0.47693  0.78958  0.39434  1.0000
  C   C368      1.0  0.48265  0.77795  0.41664  1.0000
  H   H430      1.0  0.49615  0.97265  0.36836  1.0000
  H   H431      1.0  0.46282  0.77259  0.42869  1.0000
  H   H432      1.0  0.09482  0.83587  0.12998  1.0000
  C   C369      1.0  0.02615  0.78676  0.12200  1.0000
  H   H433      1.0  0.39886  0.89179  0.35451  1.0000
  H   H434      1.0  0.43238  0.86447  0.38457  1.0000
  C   C370      1.0  0.24724  0.72492  0.99583  1.0000
  S   S114      1.0  0.31161  0.75982  0.46726  1.0000
  H   H435      1.0  0.49867  0.98779  0.47710  1.0000
  H   H436      1.0  0.49110  0.92129  0.31631  1.0000
  H   H437      1.0  0.03396  0.85913  0.05532  1.0000
  C   C371      1.0  0.02399  0.84760  0.05662  1.0000
  C   C372      1.0  0.43348  0.87564  0.39760  1.0000
  C   C373      1.0  0.02500  0.82047  0.07064  1.0000
  C   C374      1.0  0.07103  0.83536  0.11844  1.0000
  C   C375      1.0  0.49521  0.96124  0.35784  1.0000
  C   C376      1.0  0.49218  0.93232  0.32847  1.0000
  H   H438      1.0  0.08805  0.81260  0.08084  1.0000
  H   H439      1.0  0.22084  0.97449  0.13905  1.0000
  N   N23       1.0  0.07341  0.83665  0.08355  1.0000
  C   C377      1.0  0.23834  0.95805  0.09092  1.0000
  C   C378      1.0  0.09473  0.82424  0.07181  1.0000
  C   C379      1.0  0.02587  0.76307  0.18571  1.0000
  H   H440      1.0  0.41391  0.90418  0.40353  1.0000
  H   H441      1.0  0.21465  0.95749  0.07907  1.0000
  H   H442      1.0  0.20232  0.73820  0.48087  1.0000
  C   C380      1.0  0.24652  0.97665  0.03588  1.0000
  H   H443      1.0  0.29845  0.96871  0.09688  1.0000
  C   C381      1.0  0.48755  0.87255  0.35321  1.0000
  C   C382      1.0  0.42415  0.88930  0.34868  1.0000
  H   H444      1.0  0.23606  0.95164  0.11364  1.0000
  C   C383      1.0  0.24983  0.74734  0.47402  1.0000
  H   H445      1.0  0.05122  0.76536  0.18394  1.0000
  C   C384      1.0  0.26939  0.75070  0.99779  1.0000
  H   H446      1.0  0.44941  0.87416  0.41849  1.0000
  H   H447      1.0  0.05777  0.98650  0.08721  1.0000
  C   C385      1.0  0.01068  0.75391  0.16299  1.0000
  C   C386      1.0  0.08992  0.96978  0.02226  1.0000
  C   C387      1.0  0.34732  0.98287  0.47786  1.0000
  H   H448      1.0  0.03612  0.81042  0.08086  1.0000
  H   H449      1.0  0.42450  0.87826  0.33514  1.0000
  C   C388      1.0  0.07843  0.97131  0.05296  1.0000
  H   H450      1.0  0.08981  0.85368  0.05002  1.0000
  H   H451      1.0  0.16639  0.97897  0.05877  1.0000
  C   C389      1.0  0.04111  0.83494  0.06965  1.0000
  H   H452      1.0  0.40892  0.87757  0.40660  1.0000
  H   H453      1.0  0.07677  0.86164  0.08762  1.0000
  N   N24       1.0  0.20846  0.89274  0.20802  1.0000
  C   C390      1.0  0.20469  0.90585  0.18580  1.0000
  C   C391      1.0  0.21891  0.87894  0.18993  1.0000
  C   C392      1.0  0.17651  0.88923  0.22120  1.0000
  C   C393      1.0  0.23259  0.89676  0.23243  1.0000
  C   C394      1.0  0.22557  0.89743  0.26534  1.0000
  C   C395      1.0  0.26430  0.90035  0.22346  1.0000
  C   C396      1.0  0.24898  0.90143  0.28762  1.0000
  C   C397      1.0  0.28746  0.90438  0.24596  1.0000
  C   C398      1.0  0.27980  0.90490  0.27796  1.0000
  H   H454      1.0  0.19721  0.91649  0.19855  1.0000
  H   H455      1.0  0.22695  0.90878  0.17306  1.0000
  H   H456      1.0  0.18637  0.90328  0.16738  1.0000
  H   H457      1.0  0.20070  0.87525  0.17216  1.0000
  H   H458      1.0  0.22327  0.86897  0.20597  1.0000
  H   H459      1.0  0.24102  0.88116  0.17634  1.0000
  H   H460      1.0  0.17721  0.87920  0.23763  1.0000
  H   H461      1.0  0.16647  0.89945  0.23373  1.0000
  H   H462      1.0  0.15901  0.88621  0.20218  1.0000
  H   H463      1.0  0.20202  0.89536  0.27449  1.0000
  H   H464      1.0  0.27124  0.90047  0.19887  1.0000
  H   H465      1.0  0.24293  0.90260  0.31247  1.0000
  H   H466      1.0  0.31122  0.90763  0.23851  1.0000
  H   H467      1.0  0.29738  0.90868  0.29526  1.0000
  C   C399      1.0  0.26677  0.80019  0.46000  1.0000
  H   H468      1.0  0.28604  0.82906  0.47222  1.0000
  H   H469      1.0  0.49922  0.80534  0.36166  1.0000
  H   H470      1.0  0.00646  0.80236  0.15659  1.0000
  H   H471      1.0  0.49656  0.90948  0.38187  1.0000
  C   C400      1.0  0.08888  0.85171  0.07604  1.0000
  C   C401      1.0  0.22528  0.98165  0.11756  1.0000
  H   H472      1.0  0.09471  0.82373  0.04548  1.0000
  C   C402      1.0  0.00829  0.76974  0.20997  1.0000
  N   N25       1.0  0.24872  0.97432  0.09610  1.0000
  C   C403      1.0  0.22437  0.72937  0.01863  1.0000
  H   H473      1.0  0.28322  0.80560  0.44268  1.0000
  C   C404      1.0  0.01867  0.77623  0.09782  1.0000
  H   H474      1.0  0.28857  0.98575  0.11904  1.0000
  N   N26       1.0  0.28577  0.82387  0.28822  1.0000
  C   C405      1.0  0.27379  0.81424  0.31476  1.0000
  C   C406      1.0  0.31757  0.81794  0.27941  1.0000
  C   C407      1.0  0.28938  0.83992  0.30046  1.0000
  C   C408      1.0  0.26472  0.82368  0.25993  1.0000
  C   C409      1.0  0.23669  0.81441  0.25781  1.0000
  C   C410      1.0  0.27256  0.83265  0.23288  1.0000
  C   C411      1.0  0.21795  0.81418  0.23030  1.0000
  C   C412      1.0  0.25372  0.83226  0.20543  1.0000
  C   C413      1.0  0.22650  0.82301  0.20413  1.0000
  H   H475      1.0  0.25018  0.81822  0.32317  1.0000
  H   H476      1.0  0.27214  0.80183  0.30807  1.0000
  H   H477      1.0  0.29011  0.81467  0.33559  1.0000
  H   H478      1.0  0.31580  0.80596  0.26972  1.0000
  H   H479      1.0  0.33396  0.81750  0.30016  1.0000
  H   H480      1.0  0.32949  0.82518  0.26129  1.0000
  H   H481      1.0  0.26578  0.84503  0.30594  1.0000
  H   H482      1.0  0.30374  0.84027  0.32279  1.0000
  H   H483      1.0  0.30165  0.84767  0.28349  1.0000
  H   H484      1.0  0.22904  0.80692  0.27676  1.0000
  H   H485      1.0  0.29375  0.83978  0.23254  1.0000
  H   H486      1.0  0.19706  0.80674  0.22896  1.0000
  H   H487      1.0  0.26053  0.83891  0.18476  1.0000
  H   H488      1.0  0.21225  0.82249  0.18261  1.0000
  N   N27       1.0  0.25458  0.74024  0.14062  1.0000
  C   C414      1.0  0.25618  0.72563  0.12219  1.0000
  C   C415      1.0  0.22052  0.74326  0.14733  1.0000
  C   C416      1.0  0.26650  0.75308  0.12055  1.0000
  C   C417      1.0  0.27447  0.73910  0.16960  1.0000
  C   C418      1.0  0.30775  0.73663  0.16721  1.0000
  C   C419      1.0  0.26193  0.74077  0.20067  1.0000
  C   C420      1.0  0.32731  0.73628  0.19412  1.0000
  C   C421      1.0  0.28170  0.74029  0.22740  1.0000
  C   C422      1.0  0.31432  0.73823  0.22414  1.0000
  H   H489      1.0  0.24814  0.71561  0.13666  1.0000
  H   H490      1.0  0.24079  0.72610  0.10055  1.0000
  H   H491      1.0  0.28061  0.72313  0.11375  1.0000
  H   H492      1.0  0.20962  0.73382  0.16158  1.0000
  H   H493      1.0  0.20615  0.74403  0.12518  1.0000
  H   H494      1.0  0.21739  0.75442  0.16014  1.0000
  H   H495      1.0  0.29060  0.75082  0.11098  1.0000
  H   H496      1.0  0.25086  0.75499  0.09951  1.0000
  H   H497      1.0  0.26774  0.76411  0.13422  1.0000
  H   H498      1.0  0.31896  0.73522  0.14442  1.0000
  H   H499      1.0  0.23703  0.74288  0.20512  1.0000
  H   H500      1.0  0.35275  0.73468  0.19172  1.0000
  H   H501      1.0  0.27176  0.74203  0.25081  1.0000
  H   H502      1.0  0.32956  0.73833  0.24499  1.0000
  H   H503      1.0  0.28672  0.75910  0.98977  1.0000
  N   N28       1.0  0.44438  0.88871  0.37752  1.0000
  H   H504      1.0  0.02439  0.74914  0.14362  1.0000
  H   H505      1.0  0.35231  0.92988  0.46515  1.0000
  H   H506      1.0  0.24710  0.71328  0.98637  1.0000
  C   C423      1.0  0.47795  0.88653  0.36805  1.0000
  C   C424      1.0  0.34623  0.93853  0.48366  1.0000
  H   H507      1.0  0.30069  0.97248  0.47590  1.0000
  H   H508      1.0  0.24212  0.80173  0.45082  1.0000
  H   H509      1.0  0.09988  0.95880  0.01479  1.0000
  H   H510      1.0  0.07905  0.96156  0.06909  1.0000
  H   H511      1.0  0.47074  0.86329  0.34859  1.0000
  C   C425      1.0  0.08968  0.98239  0.00154  1.0000
  H   H512      1.0  0.25567  0.95147  0.07640  1.0000
  C   C426      1.0  0.28006  0.97399  0.11234  1.0000
  C   C427      1.0  0.24782  0.98568  0.00847  1.0000
  H   H513      1.0  0.45418  0.90364  0.41750  1.0000
  H   H514      1.0  0.27174  0.78755  0.45991  1.0000
  H   H515      1.0  0.44392  0.91364  0.38128  1.0000
  H   H516      1.0  0.33071  0.94741  0.47260  1.0000
  H   H517      1.0  0.24434  0.82738  0.47751  1.0000
  H   H518      1.0  0.30956  0.91371  0.47987  1.0000
  H   H519      1.0  0.02019  0.77709  0.22724  1.0000
  C   C428      1.0  0.50160  0.89826  0.37180  1.0000
  H   H520      1.0  0.16554  0.68406  0.48502  1.0000
  Fe  Fe57      1.0  0.12689  0.69141  0.61270  1.0000
  S   S115      1.0  0.15987  0.68490  0.57282  1.0000
  S   S116      1.0  0.07455  0.68327  0.61462  1.0000
  Fe  Fe58      1.0  0.18359  0.70087  0.65636  1.0000
  S   S117      1.0  0.22025  0.69528  0.61928  1.0000
  S   S118      1.0  0.18832  0.70774  0.70887  1.0000
  Fe  Fe59      1.0  0.18745  0.70696  0.58412  1.0000
  S   S119      1.0  0.20075  0.72237  0.54097  1.0000
  Fe  Fe60      1.0  0.19048  0.67382  0.60990  1.0000
  S   S120      1.0  0.15217  0.71413  0.62209  1.0000
  S   S121      1.0  0.15631  0.67875  0.64884  1.0000
  Fe  Fe61      1.0  0.37831  0.69469  0.90030  1.0000
  S   S122      1.0  0.34561  0.69042  0.94183  1.0000
  S   S123      1.0  0.43138  0.68995  0.91156  1.0000
  Fe  Fe62      1.0  0.32002  0.69891  0.85500  1.0000
  S   S124      1.0  0.28427  0.69485  0.89361  1.0000
  S   S125      1.0  0.30922  0.70240  0.80200  1.0000
  Fe  Fe63      1.0  0.31542  0.71019  0.92446  1.0000
  S   S126      1.0  0.29885  0.73095  0.95524  1.0000
  Fe  Fe64      1.0  0.31709  0.67551  0.90828  1.0000
  S   S127      1.0  0.35003  0.71548  0.88456  1.0000
  S   S128      1.0  0.35084  0.67857  0.86796  1.0000
  H   H521      1.0  0.25880  0.73236  0.82489  1.0000
  H   H522      1.0  0.17112  0.95771  0.96697  1.0000
  H   H523      1.0  0.07698  0.70192  0.74147  1.0000
  H   H524      1.0  0.27883  0.76500  0.82599  1.0000
  C   C429      1.0  0.00854  0.73873  0.68087  1.0000
  H   H525      1.0  0.36886  0.94445  0.49021  1.0000
  C   C430      1.0  0.22574  0.77706  0.53998  1.0000
  H   H526      1.0  0.29400  0.67550  0.57494  1.0000
  H   H527      1.0  0.08177  0.72182  0.75297  1.0000
  C   C431      1.0  0.28997  0.94546  0.54502  1.0000
  H   H528      1.0  0.11570  0.71048  0.74156  1.0000
  C   C432      1.0  0.29175  0.67161  0.51032  1.0000
  C   C433      1.0  0.23229  0.73240  0.52065  1.0000
  C   C434      1.0  0.23269  0.72880  0.88595  1.0000
  C   C435      1.0  0.26310  0.73396  0.53319  1.0000
  H   H529      1.0  0.17411  0.98367  0.94174  1.0000
  H   H530      1.0  0.26853  0.72907  0.55612  1.0000
  C   C436      1.0  0.22189  0.70497  0.73451  1.0000
  C   C437      1.0  0.25273  0.70316  0.72280  1.0000
  C   C438      1.0  0.27892  0.70220  0.74385  1.0000
  C   C439      1.0  0.27476  0.70266  0.77692  1.0000
  C   C440      1.0  0.24380  0.70400  0.78870  1.0000
  C   C441      1.0  0.21765  0.70537  0.76762  1.0000
  H   H531      1.0  0.25656  0.70291  0.69750  1.0000
  H   H532      1.0  0.30268  0.70120  0.73437  1.0000
  H   H533      1.0  0.24003  0.70424  0.81400  1.0000
  H   H534      1.0  0.19398  0.70675  0.77705  1.0000
  C   C442      1.0  0.47579  0.70639  0.87494  1.0000
  C   C443      1.0  0.47048  0.69551  0.89886  1.0000
  H   H535      1.0  0.21843  0.82089  0.52282  1.0000
  H   H536      1.0  0.45573  0.71180  0.86337  1.0000
  H   H537      1.0  0.01158  0.67086  0.62286  1.0000
  H   H538      1.0  0.24959  0.69886  0.54951  1.0000
  C   C444      1.0  0.03645  0.69240  0.61499  1.0000
  C   C445      1.0  0.03264  0.70834  0.61092  1.0000
  H   H539      1.0  0.30035  0.76237  0.89502  1.0000
  H   H540      1.0  0.05327  0.71564  0.60729  1.0000
  H   H541      1.0  0.32229  0.75472  0.86245  1.0000
  C   C446      1.0  0.17206  0.98272  0.96719  1.0000
  C   C447      1.0  0.27991  0.73555  0.83957  1.0000
  H   H542      1.0  0.31050  0.74329  0.52652  1.0000
  H   H543      1.0  0.27005  0.93885  0.53593  1.0000
  H   H544      1.0  0.39600  0.65990  0.91128  1.0000
  C   C448      1.0  0.20113  0.78569  0.55286  1.0000
  C   C449      1.0  0.20242  0.73538  0.93270  1.0000
  N   N29       1.0  0.33017  0.93112  0.51087  1.0000
  C   C450      1.0  0.30515  0.98826  0.51568  1.0000
  H   H545      1.0  0.26682  0.77695  0.51098  1.0000
  N   N30       1.0  0.27259  0.74799  0.86275  1.0000
  H   H546      1.0  0.25812  0.77192  0.85998  1.0000
  H   H547      1.0  0.10604  0.73515  0.67232  1.0000
  H   H548      1.0  0.23830  0.75908  0.83268  1.0000
  H   H549      1.0  0.29894  0.73901  0.82269  1.0000
  H   H550      1.0  0.28109  0.98622  0.52368  1.0000
  H   H551      1.0  0.03409  0.98255  0.91407  1.0000
  H   H552      1.0  0.27040  0.83023  0.51157  1.0000
  C   C451      1.0  0.23916  0.75400  0.91049  1.0000
  H   H553      1.0  0.37513  0.92515  0.53264  1.0000
  H   H554      1.0  0.28877  0.72498  0.85161  1.0000
  H   H555      1.0  0.30136  0.97536  0.59667  1.0000
  H   H556      1.0  0.09982  0.98045  0.97845  1.0000
  N   N31       1.0  0.08561  0.71779  0.70288  1.0000
  C   C452      1.0  0.09594  0.70514  0.68163  1.0000
  C   C453      1.0  0.10724  0.73118  0.69738  1.0000
  C   C454      1.0  0.05161  0.72123  0.69686  1.0000
  H   H557      1.0  0.25187  0.67330  0.57979  1.0000
  H   H558      1.0  0.31563  0.67569  0.51848  1.0000
  C   C455      1.0  0.32172  0.94302  0.53466  1.0000
  N   N32       1.0  0.26622  0.67698  0.53167  1.0000
  C   C456      1.0  0.17051  0.96801  0.98160  1.0000
  H   H559      1.0  0.09185  0.70828  0.65640  1.0000
  H   H560      1.0  0.10175  0.74103  0.71342  1.0000
  H   H561      1.0  0.13263  0.72813  0.70190  1.0000
  H   H562      1.0  0.25855  0.95881  0.57461  1.0000
  H   H563      1.0  0.28521  0.93026  0.48596  1.0000
  H   H564      1.0  0.30636  0.80758  0.52870  1.0000
  C   C457      1.0  0.26864  0.69411  0.53412  1.0000
  H   H565      1.0  0.28975  0.91586  0.51689  1.0000
  C   C458      1.0  0.30343  0.80400  0.50352  1.0000
  C   C459      1.0  0.35222  0.91974  0.52520  1.0000
  H   H566      1.0  0.37031  0.95163  0.54134  1.0000
  C   C460      1.0  0.09012  0.71279  0.73617  1.0000
  C   C461      1.0  0.24815  0.74350  0.88624  1.0000
  H   H567      1.0  0.34147  0.91425  0.54646  1.0000
  C   C462      1.0  0.28695  0.74210  0.51628  1.0000
  H   H568      1.0  0.30979  0.79153  0.50175  1.0000
  C   C463      1.0  0.21191  0.68165  0.50629  1.0000
  H   H569      1.0  0.21526  0.69405  0.50549  1.0000
  H   H570      1.0  0.31080  0.74245  0.89459  1.0000
  C   C464      1.0  0.22160  0.80869  0.52704  1.0000
  H   H571      1.0  0.29175  0.69796  0.54459  1.0000
  C   C465      1.0  0.23508  0.67149  0.51924  1.0000
  H   H572      1.0  0.08301  0.69410  0.68579  1.0000
  C   C466      1.0  0.26147  0.76161  0.84460  1.0000
  H   H573      1.0  0.23787  0.72001  0.86855  1.0000
  C   C467      1.0  0.28294  0.95689  0.56743  1.0000
  H   H574      1.0  0.35829  0.91035  0.50810  1.0000
  H   H575      1.0  0.41180  0.66747  0.96482  1.0000
  H   H576      1.0  0.22718  0.76473  0.54471  1.0000
  H   H577      1.0  0.29727  0.66598  0.81338  1.0000
  H   H578      1.0  0.21102  0.75795  0.95231  1.0000
  C   C468      1.0  0.21036  0.72484  0.90905  1.0000
  C   C469      1.0  0.24703  0.80017  0.51350  1.0000
  H   H579      1.0  0.18352  0.78009  0.56767  1.0000
  C   C470      1.0  0.00907  0.68317  0.61949  1.0000
  C   C471      1.0  0.00857  0.98416  0.91298  1.0000
  C   C472      1.0  0.18301  0.67603  0.49423  1.0000
  C   C473      1.0  0.27203  0.67064  0.56383  1.0000
  C   C474      1.0  0.30271  0.75212  0.87930  1.0000
  C   C475      1.0  0.34571  0.95264  0.54827  1.0000
  H   H580      1.0  0.05672  0.74570  0.68344  1.0000
  C   C476      1.0  0.04079  0.73605  0.68704  1.0000
  H   H581      1.0  0.35684  0.97166  0.57978  1.0000
  C   C477      1.0  0.24837  0.78416  0.52066  1.0000
  C   C478      1.0  0.22598  0.73920  0.49094  1.0000
  H   H582      1.0  0.25011  0.76530  0.91255  1.0000
  C   C479      1.0  0.30705  0.96617  0.58010  1.0000
  C   C480      1.0  0.21663  0.74996  0.93330  1.0000
  H   H583      1.0  0.12169  0.70257  0.68482  1.0000
  H   H584      1.0  0.19964  0.71340  0.90901  1.0000
  H   H585      1.0  0.17978  0.80813  0.55648  1.0000
  C   C481      1.0  0.33836  0.96405  0.57055  1.0000
  C   C482      1.0  0.26758  0.82420  0.48840  1.0000
  C   C483      1.0  0.49719  0.68868  0.91351  1.0000
  C   C484      1.0  0.30232  0.92240  0.49803  1.0000
  C   C485      1.0  0.19910  0.80148  0.54648  1.0000
  C   C486      1.0  0.43098  0.65862  0.96364  1.0000
  H   H586      1.0  0.18579  0.73212  0.95110  1.0000
  N   N33       1.0  0.27069  0.80716  0.49188  1.0000
  H   H587      1.0  0.29268  0.65876  0.50892  1.0000
  H   H588      1.0  0.49371  0.68035  0.93217  1.0000
  C   C487      1.0  0.31629  0.98035  0.48861  1.0000
  C   C488      1.0  0.26994  0.73558  0.98503  1.0000
  H   H589      1.0  0.32173  0.81025  0.48940  1.0000
  C   C489      1.0  0.17637  0.66022  0.49442  1.0000
  C   C490      1.0  0.02817  0.70946  0.70030  1.0000
  H   H590      1.0  0.26703  0.69980  0.51052  1.0000
  H   H591      1.0  0.03455  0.69786  0.70725  1.0000
  H   H592      1.0  0.45178  0.66486  0.95357  1.0000
  C   C491      1.0  0.28066  0.74886  0.48652  1.0000
  H   H593      1.0  0.28798  0.67600  0.48580  1.0000
  H   H594      1.0  0.24286  0.98047  0.98555  1.0000
  Fe  Fe65      1.0  0.68492  0.30905  0.08401  1.0000
  S   S129      1.0  0.64841  0.29778  0.11516  1.0000
  C   C492      1.0  0.72512  0.01601  0.07035  1.0000
  Fe  Fe66      1.0  0.70040  0.27792  0.04974  1.0000
  S   S130      1.0  0.66444  0.26487  0.07925  1.0000
  S   S131      1.0  0.73558  0.26899  0.01171  1.0000
  Fe  Fe67      1.0  0.63145  0.28525  0.07137  1.0000
  S   S132      1.0  0.57972  0.28559  0.05247  1.0000
  Fe  Fe68      1.0  0.68441  0.27874  0.12077  1.0000
  S   S133      1.0  0.69464  0.26972  0.17085  1.0000
  S   S134      1.0  0.66661  0.29766  0.03951  1.0000
  S   S135      1.0  0.72165  0.29054  0.09186  1.0000
  Fe  Fe69      1.0  0.88875  0.28949  0.35367  1.0000
  S   S136      1.0  0.85973  0.30173  0.39094  1.0000
  S   S137      1.0  0.94286  0.29274  0.34416  1.0000
  Fe  Fe70      1.0  0.82681  0.28196  0.31375  1.0000
  S   S138      1.0  0.79468  0.29366  0.34888  1.0000
  S   S139      1.0  0.81656  0.27473  0.26215  1.0000
  Fe  Fe71      1.0  0.83178  0.31261  0.35131  1.0000
  C   C493      1.0  0.98821  0.28073  0.38657  1.0000
  Fe  Fe72      1.0  0.82443  0.28161  0.38643  1.0000
  S   S140      1.0  0.80439  0.27250  0.43423  1.0000
  S   S141      1.0  0.86208  0.30143  0.31460  1.0000
  S   S142      1.0  0.85524  0.26882  0.35078  1.0000
  C   C494      1.0  0.77592  0.25892  0.45001  1.0000
  C   C495      1.0  0.76176  0.24716  0.43173  1.0000
  H   H595      1.0  0.76712  0.24637  0.40676  1.0000
  C   C496      1.0  0.78534  0.00267  0.06962  1.0000
  H   H596      1.0  0.80514  0.00522  0.14254  1.0000
  C   C497      1.0  0.73860  0.31212  0.24399  1.0000
  H   H597      1.0  0.81213  0.23900  0.22120  1.0000
  H   H598      1.0  0.69022  0.29916  0.20626  1.0000
  C   C498      1.0  0.78167  0.27515  0.23793  1.0000
  C   C499      1.0  0.75138  0.27183  0.24984  1.0000
  C   C500      1.0  0.72504  0.27038  0.22905  1.0000
  C   C501      1.0  0.72843  0.27251  0.19618  1.0000
  C   C502      1.0  0.75859  0.27618  0.18440  1.0000
  C   C503      1.0  0.78499  0.27738  0.20509  1.0000
  H   H599      1.0  0.74847  0.26980  0.27493  1.0000
  H   H600      1.0  0.70196  0.26738  0.23851  1.0000
  H   H601      1.0  0.76182  0.27763  0.15923  1.0000
  H   H602      1.0  0.80834  0.27971  0.19551  1.0000
  H   H603      1.0  0.51856  0.28857  0.02246  1.0000
  C   C504      1.0  0.98224  0.28813  0.35770  1.0000
  H   H604      1.0  0.79178  0.01467  0.02542  1.0000
  C   C505      1.0  0.76464  0.31235  0.26473  1.0000
  C   C506      1.0  0.53759  0.99223  0.42052  1.0000
  C   C507      1.0  0.53422  0.27697  0.09760  1.0000
  C   C508      1.0  0.54032  0.28216  0.06684  1.0000
  H   H605      1.0  0.81102  0.32173  0.27475  1.0000
  H   H606      1.0  0.55390  0.27496  0.11365  1.0000
  H   H607      1.0  0.70410  0.31190  0.14599  1.0000
  H   H608      1.0  0.73708  0.23992  0.15331  1.0000
  H   H609      1.0  0.81091  0.22681  0.46487  1.0000
  C   C509      1.0  0.86466  0.99728  0.01766  1.0000
  H   H610      1.0  0.75972  0.00975  0.40861  1.0000
  N   N34       1.0  0.77469  0.24686  0.09963  1.0000
  H   H611      1.0  0.72852  0.25614  0.11038  1.0000
  C   C510      1.0  0.75402  0.00402  0.43057  1.0000
  H   H612      1.0  0.78021  0.27148  0.10537  1.0000
  H   H613      1.0  0.96845  0.27740  0.40143  1.0000
  H   H614      1.0  0.90845  0.32027  0.35530  1.0000
  H   H615      1.0  0.75519  0.23670  0.20725  1.0000
  H   H616      1.0  0.78033  0.23635  0.05359  1.0000
  C   C511      1.0  0.80465  0.23986  0.19663  1.0000
  H   H617      1.0  0.76497  0.30483  0.28526  1.0000
  C   C512      1.0  0.75250  0.01317  0.45791  1.0000
  C   C513      1.0  0.72366  0.31400  0.16322  1.0000
  H   H618      1.0  0.77844  0.26513  0.06486  1.0000
  H   H619      1.0  0.66454  0.01550  0.45221  1.0000
  H   H620      1.0  0.66425  0.31172  0.18570  1.0000
  H   H621      1.0  0.71705  0.00408  0.11329  1.0000
  C   C514      1.0  0.74037  0.23726  0.99709  1.0000
  H   H622      1.0  0.81392  0.23425  0.07923  1.0000
  H   H623      1.0  0.81369  0.26225  0.08728  1.0000
  H   H624      1.0  0.85189  0.24383  0.17950  1.0000
  C   C515      1.0  0.73808  0.32149  0.21634  1.0000
  C   C516      1.0  0.68397  0.31157  0.20345  1.0000
  H   H625      1.0  0.73069  0.22709  0.43140  1.0000
  H   H626      1.0  0.77870  0.22294  0.08610  1.0000
  C   C517      1.0  0.78453  0.24396  0.13285  1.0000
  C   C518      1.0  0.74578  0.01909  0.04540  1.0000
  C   C519      1.0  0.78750  0.23457  0.07880  1.0000
  C   C520      1.0  0.74106  0.23617  0.44588  1.0000
  H   H627      1.0  0.83540  0.24688  0.12425  1.0000
  C   C521      1.0  0.81719  0.24463  0.14161  1.0000
  H   H628      1.0  0.73500  0.30271  0.16768  1.0000
  H   H629      1.0  0.72257  0.23525  0.01502  1.0000
  C   C522      1.0  0.73435  0.00616  0.09498  1.0000
  H   H630      1.0  0.73292  0.24989  0.07019  1.0000
  C   C523      1.0  0.80612  0.99306  0.13391  1.0000
  H   H631      1.0  0.80871  0.99764  0.06809  1.0000
  C   C524      1.0  0.77255  0.23857  0.18870  1.0000
  H   H632      1.0  0.88433  0.00234  0.03078  1.0000
  C   C525      1.0  0.85314  0.00479  0.99027  1.0000
  H   H633      1.0  0.73845  0.02655  0.02612  1.0000
  H   H634      1.0  0.82604  0.99219  0.11673  1.0000
  H   H635      1.0  0.75642  0.02557  0.45658  1.0000
  H   H636      1.0  0.72848  0.23576  0.10053  1.0000
  C   C526      1.0  0.78736  0.26205  0.08894  1.0000
  C   C527      1.0  0.76839  0.25959  0.48254  1.0000
  C   C528      1.0  0.82696  0.24275  0.17309  1.0000
  H   H637      1.0  0.74143  0.32151  0.15118  1.0000
  C   C529      1.0  0.76245  0.24055  0.15735  1.0000
  C   C530      1.0  0.77584  0.01244  0.04506  1.0000
  C   C531      1.0  0.73963  0.24715  0.09512  1.0000
  C   C532      1.0  0.66355  0.00581  0.46834  1.0000
  H   H638      1.0  0.70167  0.02116  0.07040  1.0000
  H   H639      1.0  0.84983  0.24794  0.47287  1.0000
  C   C533      1.0  0.75062  0.25240  0.99089  1.0000
  C   C534      1.0  0.76490  0.99916  0.09529  1.0000
  H   H640      1.0  0.67427  0.31598  0.22619  1.0000
  C   C535      1.0  0.51421  0.28466  0.04638  1.0000
  C   C536      1.0  0.79079  0.32181  0.25871  1.0000
  H   H641      1.0  0.71960  0.30419  0.24982  1.0000
  H   H642      1.0  0.74800  0.99770  0.15860  1.0000
  H   H643      1.0  0.54734  0.00423  0.42124  1.0000
  H   H644      1.0  0.73380  0.99700  0.36980  1.0000
  N   N35       1.0  0.71174  0.32093  0.19292  1.0000
  C   C537      1.0  0.73397  0.23669  0.47851  1.0000
  H   H645      1.0  0.95796  0.32456  0.32954  1.0000
  H   H646      1.0  0.51152  0.99286  0.42439  1.0000
  C   C538      1.0  0.50262  0.27412  0.10747  1.0000
  H   H647      1.0  0.59973  0.99182  0.43228  1.0000
  Fe  Fe73      1.0  0.80419  0.04153  0.84275  1.0000
  S   S143      1.0  0.79374  0.04711  0.89397  1.0000
  S   S144      1.0  0.75858  0.04085  0.81234  1.0000
  Fe  Fe74      1.0  0.87559  0.03821  0.85831  1.0000
  S   S145      1.0  0.86948  0.04337  0.90992  1.0000
  S   S146      1.0  0.92399  0.03301  0.83735  1.0000
  Fe  Fe75      1.0  0.82671  0.02762  0.90698  1.0000
  S   S147      1.0  0.81107  0.00762  0.93921  1.0000
  Fe  Fe76      1.0  0.83735  0.06225  0.89225  1.0000
  S   S148      1.0  0.84333  0.08584  0.91526  1.0000
  S   S149      1.0  0.83481  0.02117  0.85590  1.0000
  S   S150      1.0  0.84589  0.05807  0.84055  1.0000
  Fe  Fe77      1.0  0.60528  0.03462  0.61807  1.0000
  S   S151      1.0  0.60620  0.04831  0.57322  1.0000
  S   S152      1.0  0.55946  0.02092  0.62470  1.0000
  Fe  Fe78      1.0  0.67477  0.04303  0.63498  1.0000
  S   S153      1.0  0.67987  0.05688  0.58986  1.0000
  S   S154      1.0  0.72073  0.04367  0.66488  1.0000
  Fe  Fe79      1.0  0.63195  0.06654  0.60168  1.0000
  S   S155      1.0  0.61585  0.09159  0.60693  1.0000
  Fe  Fe80      1.0  0.65378  0.03712  0.56539  1.0000
  S   S156      1.0  0.66423  0.02813  0.51524  1.0000
  S   S157      1.0  0.62761  0.05355  0.64764  1.0000
  S   S158      1.0  0.65206  0.02260  0.60931  1.0000
  Fe  Fe81      1.0  0.70022  0.19738  0.60717  1.0000
  S   S159      1.0  0.71399  0.18957  0.55816  1.0000
  S   S160      1.0  0.74130  0.19275  0.64202  1.0000
  Fe  Fe82      1.0  0.63083  0.20310  0.58498  1.0000
  S   S161      1.0  0.64135  0.19598  0.53484  1.0000
  S   S162      1.0  0.58065  0.20545  0.60617  1.0000
  Fe  Fe83      1.0  0.66805  0.17633  0.55709  1.0000
  S   S163      1.0  0.66588  0.15193  0.53692  1.0000
  Fe  Fe84      1.0  0.68700  0.21006  0.53959  1.0000
  H   H648      1.0  0.55190  0.14196  0.52533  1.0000
  S   S164      1.0  0.65601  0.18261  0.60684  1.0000
  S   S165      1.0  0.67484  0.21867  0.58898  1.0000
  Fe  Fe85      1.0  0.88077  0.19731  0.85116  1.0000
  S   S166      1.0  0.85708  0.18352  0.89012  1.0000
  S   S167      1.0  0.93462  0.19603  0.84011  1.0000
  Fe  Fe86      1.0  0.81563  0.20360  0.81764  1.0000
  S   S168      1.0  0.78927  0.19002  0.85435  1.0000
  S   S169      1.0  0.78387  0.21565  0.78076  1.0000
  Fe  Fe87      1.0  0.81954  0.20253  0.89062  1.0000
  S   S170      1.0  0.79034  0.21029  0.93448  1.0000
  Fe  Fe88      1.0  0.82828  0.17252  0.85091  1.0000
  S   S171      1.0  0.81740  0.14741  0.83785  1.0000
  S   S172      1.0  0.84503  0.21698  0.85385  1.0000
  S   S173      1.0  0.85290  0.18542  0.81197  1.0000
  C   C539      1.0  0.75141  0.19894  0.68123  1.0000
  C   C540      1.0  0.77615  0.19132  0.69742  1.0000
  C   C541      1.0  0.78579  0.19600  0.72811  1.0000
  C   C542      1.0  0.77126  0.20861  0.74286  1.0000
  C   C543      1.0  0.74656  0.21627  0.72663  1.0000
  C   C544      1.0  0.73649  0.21140  0.69615  1.0000
  H   H649      1.0  0.78820  0.18178  0.68615  1.0000
  H   H650      1.0  0.80496  0.19006  0.74011  1.0000
  H   H651      1.0  0.73520  0.22608  0.73766  1.0000
  H   H652      1.0  0.71756  0.21746  0.68407  1.0000
  C   C545      1.0  0.90017  0.00676  0.91736  1.0000
  H   H653      1.0  0.94298  0.15083  0.82449  1.0000
  H   H654      1.0  0.75757  0.23714  0.57372  1.0000
  C   C546      1.0  0.98918  0.03404  0.84214  1.0000
  H   H655      1.0  0.74229  0.24946  0.52158  1.0000
  C   C547      1.0  0.50979  0.14709  0.58789  1.0000
  C   C548      1.0  0.91475  0.13180  0.84153  1.0000
  H   H656      1.0  0.54888  0.17116  0.51446  1.0000
  C   C549      1.0  0.77568  0.22685  0.95571  1.0000
  H   H657      1.0  0.89284  0.13843  0.84159  1.0000
  H   H658      1.0  0.70285  0.22461  0.91089  1.0000
  H   H659      1.0  0.57093  0.07763  0.55731  1.0000
  C   C550      1.0  0.97393  0.20208  0.85134  1.0000
  C   C551      1.0  0.81116  0.22754  0.54629  1.0000
  H   H660      1.0  0.91755  0.06959  0.84610  1.0000
  H   H661      1.0  0.59177  0.14632  0.53814  1.0000
  H   H662      1.0  0.96085  0.21437  0.89360  1.0000
  H   H663      1.0  0.86388  0.01552  0.98255  1.0000
  C   C552      1.0  0.54048  0.20714  0.59219  1.0000
  C   C553      1.0  0.53286  0.21272  0.56199  1.0000
  H   H664      1.0  0.59898  0.16601  0.58418  1.0000
  H   H665      1.0  0.55174  0.21618  0.54617  1.0000
  C   C554      1.0  0.63222  0.10801  0.58813  1.0000
  C   C555      1.0  0.64656  0.10706  0.55841  1.0000
  C   C556      1.0  0.65693  0.12062  0.54311  1.0000
  C   C557      1.0  0.65354  0.13518  0.55757  1.0000
  C   C558      1.0  0.63980  0.13608  0.58758  1.0000
  C   C559      1.0  0.62877  0.12257  0.60257  1.0000
  H   H666      1.0  0.64912  0.09592  0.54696  1.0000
  H   H667      1.0  0.66758  0.11983  0.51988  1.0000
  H   H668      1.0  0.63743  0.14717  0.59912  1.0000
  H   H669      1.0  0.61771  0.12338  0.62559  1.0000
  H   H670      1.0  0.99370  0.10895  0.84054  1.0000
  C   C560      1.0  0.81799  0.23008  0.48875  1.0000
  N   N36       1.0  0.55527  0.16020  0.55997  1.0000
  C   C561      1.0  0.52316  0.03080  0.62908  1.0000
  C   C562      1.0  0.52197  0.04498  0.64493  1.0000
  H   H671      1.0  0.55687  0.07394  0.61267  1.0000
  H   H672      1.0  0.54368  0.05019  0.65400  1.0000
  H   H673      1.0  0.93352  0.14237  0.90939  1.0000
  C   C563      1.0  0.83753  0.10296  0.89332  1.0000
  C   C564      1.0  0.84171  0.11741  0.90815  1.0000
  C   C565      1.0  0.83648  0.13123  0.89132  1.0000
  C   C566      1.0  0.82687  0.13062  0.85958  1.0000
  C   C567      1.0  0.82353  0.11616  0.84459  1.0000
  C   C568      1.0  0.82892  0.10239  0.86135  1.0000
  H   H674      1.0  0.84848  0.11793  0.93290  1.0000
  H   H675      1.0  0.83907  0.14232  0.90307  1.0000
  H   H676      1.0  0.81624  0.11565  0.82001  1.0000
  H   H677      1.0  0.82594  0.09134  0.84974  1.0000
  C   C569      1.0  0.74759  0.24865  0.49664  1.0000
  C   C570      1.0  0.96021  0.03630  0.85793  1.0000
  C   C571      1.0  0.96073  0.04073  0.88979  1.0000
  H   H678      1.0  0.71611  0.28156  0.91604  1.0000
  H   H679      1.0  0.93872  0.04249  0.90230  1.0000
  C   C572      1.0  0.52102  0.15908  0.56784  1.0000
  C   C573      1.0  0.74884  0.04142  0.77111  1.0000
  C   C574      1.0  0.71662  0.04040  0.76186  1.0000
  C   C575      1.0  0.70749  0.04112  0.72962  1.0000
  C   C576      1.0  0.73053  0.04284  0.70608  1.0000
  C   C577      1.0  0.76273  0.04400  0.71538  1.0000
  C   C578      1.0  0.77186  0.04332  0.74762  1.0000
  H   H680      1.0  0.69856  0.03886  0.77974  1.0000
  H   H681      1.0  0.68267  0.04014  0.72296  1.0000
  H   H682      1.0  0.78080  0.04531  0.69742  1.0000
  H   H683      1.0  0.79671  0.04412  0.75421  1.0000
  N   N37       1.0  0.73966  0.08734  0.81849  1.0000
  C   C579      1.0  0.72779  0.09611  0.79064  1.0000
  C   C580      1.0  0.77030  0.08021  0.80951  1.0000
  C   C581      1.0  0.71616  0.07487  0.82505  1.0000
  C   C582      1.0  0.74460  0.09704  0.84711  1.0000
  C   C583      1.0  0.75327  0.09010  0.87635  1.0000
  C   C584      1.0  0.74258  0.11347  0.84667  1.0000
  C   C585      1.0  0.75924  0.09901  0.90343  1.0000
  C   C586      1.0  0.74877  0.12227  0.87390  1.0000
  C   C587      1.0  0.75707  0.11507  0.90219  1.0000
  H   H684      1.0  0.72333  0.08832  0.76994  1.0000
  H   H685      1.0  0.70496  0.10199  0.79604  1.0000
  H   H686      1.0  0.74550  0.10487  0.78261  1.0000
  H   H687      1.0  0.78875  0.08917  0.80474  1.0000
  H   H688      1.0  0.76783  0.07287  0.78789  1.0000
  H   H689      1.0  0.77965  0.07253  0.82843  1.0000
  H   H690      1.0  0.71085  0.06780  0.80352  1.0000
  H   H691      1.0  0.72495  0.06640  0.84279  1.0000
  H   H692      1.0  0.69341  0.07969  0.83393  1.0000
  H   H693      1.0  0.75659  0.07775  0.87828  1.0000
  H   H694      1.0  0.73725  0.11990  0.82545  1.0000
  H   H695      1.0  0.76699  0.09347  0.92515  1.0000
  H   H696      1.0  0.74842  0.13482  0.87274  1.0000
  H   H697      1.0  0.76292  0.12198  0.92290  1.0000
  H   H698      1.0  0.54524  0.09384  0.61503  1.0000
  N   N38       1.0  0.72622  0.14424  0.63830  1.0000
  C   C588      1.0  0.70023  0.15202  0.65570  1.0000
  C   C589      1.0  0.75693  0.14795  0.65420  1.0000
  C   C590      1.0  0.72744  0.15104  0.60604  1.0000
  C   C591      1.0  0.72072  0.12727  0.63833  1.0000
  C   C592      1.0  0.71553  0.11852  0.61015  1.0000
  C   C593      1.0  0.72016  0.11899  0.66736  1.0000
  C   C594      1.0  0.71045  0.10250  0.61119  1.0000
  C   C595      1.0  0.71507  0.10297  0.66807  1.0000
  C   C596      1.0  0.71023  0.09475  0.64004  1.0000
  H   H699      1.0  0.69942  0.14862  0.68103  1.0000
  H   H700      1.0  0.70308  0.16486  0.65542  1.0000
  H   H701      1.0  0.67666  0.14918  0.64497  1.0000
  H   H702      1.0  0.75692  0.14497  0.67977  1.0000
  H   H703      1.0  0.76249  0.16057  0.65311  1.0000
  H   H704      1.0  0.77692  0.14165  0.64285  1.0000
  H   H705      1.0  0.70444  0.14956  0.59327  1.0000
  H   H706      1.0  0.73210  0.16373  0.60681  1.0000
  H   H707      1.0  0.74666  0.14583  0.59156  1.0000
  H   H708      1.0  0.71491  0.12374  0.58695  1.0000
  H   H709      1.0  0.72356  0.12487  0.68974  1.0000
  H   H710      1.0  0.70622  0.09604  0.58949  1.0000
  H   H711      1.0  0.71474  0.09682  0.69040  1.0000
  H   H712      1.0  0.70615  0.08232  0.64068  1.0000
  C   C597      1.0  0.96531  0.16090  0.89686  1.0000
  C   C598      1.0  0.66289  0.00864  0.50121  1.0000
  H   H713      1.0  0.56393  0.17387  0.60177  1.0000
  H   H714      1.0  0.82286  0.19952  0.56942  1.0000
  N   N39       1.0  0.73745  0.23640  0.85892  1.0000
  C   C599      1.0  0.77248  0.23831  0.86016  1.0000
  C   C600      1.0  0.73047  0.21952  0.85860  1.0000
  C   C601      1.0  0.72552  0.24283  0.82855  1.0000
  C   C602      1.0  0.72294  0.24470  0.88592  1.0000
  C   C603      1.0  0.72623  0.26102  0.88871  1.0000
  C   C604      1.0  0.70564  0.23703  0.91019  1.0000
  H   H715      1.0  0.89282  0.08620  0.84535  1.0000
  C   C605      1.0  0.69200  0.24531  0.93513  1.0000
  N   N40       1.0  0.94133  0.09077  0.86061  1.0000
  H   H716      1.0  0.78409  0.23247  0.83977  1.0000
  H   H717      1.0  0.78009  0.25062  0.85941  1.0000
  H   H718      1.0  0.78247  0.23319  0.88221  1.0000
  H   H719      1.0  0.74075  0.21368  0.87982  1.0000
  H   H720      1.0  0.74110  0.21373  0.83757  1.0000
  H   H721      1.0  0.70445  0.21717  0.85752  1.0000
  H   H722      1.0  0.73310  0.25502  0.82493  1.0000
  H   H723      1.0  0.73480  0.23627  0.80777  1.0000
  H   H724      1.0  0.69908  0.24236  0.82740  1.0000
  H   H725      1.0  0.73968  0.26760  0.87163  1.0000
  C   C606      1.0  0.98034  0.21075  0.87875  1.0000
  C   C607      1.0  0.77363  0.25461  0.96711  1.0000
  H   H726      1.0  0.97031  0.07024  0.86412  1.0000
  H   H727      1.0  0.99302  0.13590  0.82450  1.0000
  C   C608      1.0  0.51636  0.99799  0.51972  1.0000
  C   C609      1.0  0.69555  0.26131  0.93701  1.0000
  C   C610      1.0  0.54295  0.00291  0.53696  1.0000
  H   H728      1.0  0.92247  0.08366  0.81526  1.0000
  S   S174      1.0  0.70882  0.22188  0.49527  1.0000
  H   H729      1.0  0.91142  0.01542  0.90145  1.0000
  C   C611      1.0  0.79752  0.20306  0.57114  1.0000
  H   H730      1.0  0.78706  0.19720  0.59215  1.0000
  C   C612      1.0  0.97110  0.11479  0.84124  1.0000
  C   C613      1.0  0.84789  0.24679  0.52381  1.0000
  H   H731      1.0  0.58838  0.17265  0.53019  1.0000
  H   H732      1.0  0.52588  0.13861  0.59763  1.0000
  C   C614      1.0  0.57355  0.16353  0.58933  1.0000
  H   H733      1.0  0.74303  0.01367  0.50797  1.0000
  H   H734      1.0  0.93025  0.07744  0.90236  1.0000
  H   H735      1.0  0.66151  0.99790  0.54709  1.0000
  H   H736      1.0  0.86454  0.25630  0.52705  1.0000
  H   H737      1.0  0.74876  0.22040  0.55037  1.0000
  H   H738      1.0  0.90779  0.09472  0.89849  1.0000
  C   C615      1.0  0.95808  0.14628  0.90870  1.0000
  H   H739      1.0  0.98055  0.08273  0.83226  1.0000
  C   C616      1.0  0.71275  0.26915  0.91394  1.0000
  H   H740      1.0  0.79543  0.21869  0.62453  1.0000
  H   H741      1.0  0.80382  0.24404  0.93175  1.0000
  C   C617      1.0  0.82722  0.99859  0.97353  1.0000
  H   H742      1.0  0.51842  0.07890  0.62699  1.0000
  C   C618      1.0  0.97221  0.08264  0.85725  1.0000
  C   C619      1.0  0.91755  0.08225  0.84098  1.0000
  H   H743      1.0  0.51186  0.03249  0.71056  1.0000
  C   C620      1.0  0.55023  0.08554  0.55470  1.0000
  C   C621      1.0  0.94257  0.10725  0.85093  1.0000
  H   H744      1.0  0.57286  0.15377  0.60637  1.0000
  H   H745      1.0  0.98900  0.03054  0.81750  1.0000
  H   H746      1.0  0.67944  0.23924  0.95375  1.0000
  C   C622      1.0  0.75290  0.22463  0.97975  1.0000
  C   C623      1.0  0.99980  0.19752  0.83242  1.0000
  C   C624      1.0  0.93171  0.08970  0.89428  1.0000
  N   N41       1.0  0.79479  0.22016  0.57337  1.0000
  H   H747      1.0  0.99096  0.08775  0.87285  1.0000
  C   C625      1.0  0.91455  0.11633  0.85113  1.0000
  C   C626      1.0  0.98245  0.13669  0.91930  1.0000
  C   C627      1.0  0.80768  0.22489  0.60483  1.0000
  H   H748      1.0  0.83348  0.22224  0.60694  1.0000
  H   H749      1.0  0.89215  0.11150  0.85864  1.0000
  H   H750      1.0  0.51457  0.10800  0.53937  1.0000
  H   H751      1.0  0.54270  0.08499  0.52942  1.0000
  C   C628      1.0  0.51496  0.06489  0.56897  1.0000
  N   N42       1.0  0.52388  0.08118  0.57631  1.0000
  H   H752      1.0  0.54025  0.00807  0.56026  1.0000
  H   H753      1.0  0.52081  0.19868  0.63595  1.0000
  C   C629      1.0  0.78600  0.24200  0.94964  1.0000
  H   H754      1.0  0.78519  0.21451  0.50977  1.0000
  H   H755      1.0  0.95383  0.00498  0.87299  1.0000
  C   C630      1.0  0.56659  0.14540  0.54621  1.0000
  C   C631      1.0  0.56274  0.17260  0.53680  1.0000
  C   C632      1.0  0.97109  0.13033  0.83186  1.0000
  H   H756      1.0  0.56631  0.13575  0.56352  1.0000
  H   H757      1.0  0.90900  0.00903  0.94185  1.0000
  C   C633      1.0  0.83390  0.23968  0.55009  1.0000
  H   H758      1.0  0.55985  0.09729  0.56019  1.0000
  H   H759      1.0  0.80399  0.23744  0.60945  1.0000
  H   H760      1.0  0.97667  0.12531  0.92836  1.0000
  H   H761      1.0  0.94640  0.16835  0.88822  1.0000
  C   C634      1.0  0.99564  0.99472  0.89173  1.0000
  C   C635      1.0  0.76069  0.22437  0.57254  1.0000
  C   C636      1.0  0.94295  0.13878  0.83180  1.0000
  H   H762      1.0  0.74744  0.21916  0.59269  1.0000
  C   C637      1.0  0.80350  0.22304  0.51475  1.0000
  H   H763      1.0  0.78461  0.19821  0.55031  1.0000
  H   H764      1.0  0.94882  0.09594  0.91001  1.0000
  C   C638      1.0  0.53651  0.08199  0.60913  1.0000
  C   C639      1.0  0.98994  0.04284  0.90568  1.0000
  H   H765      1.0  0.87421  0.00911  0.91705  1.0000
  H   H766      1.0  0.78187  0.26621  0.96200  1.0000
  H   H767      1.0  0.99527  0.19089  0.81107  1.0000
  H   H768      1.0  0.84087  0.24410  0.57303  1.0000
  C   C640      1.0  0.51537  0.20293  0.61248  1.0000
  H   H769      1.0  0.55817  0.18429  0.54682  1.0000
  H   H770      1.0  0.99010  0.04621  0.93038  1.0000
  H   H771      1.0  0.53584  0.05703  0.57038  1.0000
  H   H772      1.0  0.90508  0.99753  0.85787  1.0000
  H   H773      1.0  0.77903  0.26858  0.49705  1.0000
  H   H774      1.0  0.68580  0.26760  0.95698  1.0000
  C   C641      1.0  0.96269  0.99662  0.88980  1.0000
  H   H775      1.0  0.50464  0.17999  0.54315  1.0000
  C   C642      1.0  0.57320  0.00121  0.52423  1.0000
  H   H776      1.0  0.50456  0.06385  0.54477  1.0000
  H   H777      1.0  0.59388  0.00515  0.53763  1.0000
  C   C643      1.0  0.99685  0.16604  0.89602  1.0000
  C   C644      1.0  0.57707  0.99448  0.49434  1.0000
  C   C645      1.0  0.66185  0.99596  0.52176  1.0000
  C   C646      1.0  0.74523  0.00649  0.48696  1.0000
  C   C647      1.0  0.83989  0.24202  0.49323  1.0000
  H   H778      1.0  0.50873  0.00744  0.68271  1.0000
  H   H779      1.0  0.60117  0.99354  0.48609  1.0000
  H   H780      1.0  0.00114  0.17747  0.88664  1.0000
  H   H781      1.0  0.74464  0.21303  0.98480  1.0000
  Fe  Fe89      1.0  0.89443  0.44442  0.34291  1.0000
  S   S175      1.0  0.89383  0.43997  0.39519  1.0000
  S   S176      1.0  0.93797  0.44743  0.31217  1.0000
  Fe  Fe90      1.0  0.82226  0.44810  0.33839  1.0000
  S   S177      1.0  0.81603  0.44437  0.39094  1.0000
  S   S178      1.0  0.78118  0.45543  0.30617  1.0000
  Fe  Fe91      1.0  0.85916  0.45972  0.39851  1.0000
  S   S179      1.0  0.87082  0.48092  0.42971  1.0000
  Fe  Fe92      1.0  0.85113  0.42495  0.38377  1.0000
  S   S180      1.0  0.84394  0.40174  0.40804  1.0000
  S   S181      1.0  0.86240  0.46494  0.34637  1.0000
  S   S182      1.0  0.85462  0.42783  0.33099  1.0000
  Fe  Fe93      1.0  0.62547  0.44578  0.11254  1.0000
  S   S183      1.0  0.63857  0.44281  0.06151  1.0000
  S   S184      1.0  0.57733  0.45703  0.11930  1.0000
  Fe  Fe94      1.0  0.69231  0.43663  0.13620  1.0000
  S   S185      1.0  0.70995  0.43374  0.08602  1.0000
  S   S186      1.0  0.72669  0.42851  0.17527  1.0000
  Fe  Fe95      1.0  0.68330  0.45568  0.07425  1.0000
  S   S187      1.0  0.70123  0.47764  0.04930  1.0000
  Fe  Fe96      1.0  0.66353  0.42122  0.07767  1.0000
  S   S188      1.0  0.65529  0.39942  0.04843  1.0000
  S   S189      1.0  0.66944  0.45953  0.12522  1.0000
  S   S190      1.0  0.64664  0.42312  0.12787  1.0000
  H   H782      1.0  0.58960  0.35204  0.04467  1.0000
  C   C648      1.0  0.83258  0.45546  0.14493  1.0000
  H   H783      1.0  0.62875  0.48039  0.04009  1.0000
  H   H784      1.0  0.71815  0.34406  0.17392  1.0000
  H   H785      1.0  0.62351  0.47439  0.07988  1.0000
  C   C649      1.0  0.54733  0.38576  0.05255  1.0000
  H   H786      1.0  0.56173  0.40150  0.10592  1.0000
  C   C650      1.0  0.86389  0.50320  0.47593  1.0000
  H   H787      1.0  0.82390  0.45310  0.12115  1.0000
  H   H788      1.0  0.88456  0.34754  0.31442  1.0000
  C   C651      1.0  0.76637  0.44766  0.26990  1.0000
  C   C652      1.0  0.74401  0.45624  0.25241  1.0000
  C   C653      1.0  0.73173  0.45066  0.22333  1.0000
  C   C654      1.0  0.74156  0.43635  0.21147  1.0000
  C   C655      1.0  0.76397  0.42778  0.22897  1.0000
  C   C656      1.0  0.77629  0.43336  0.25802  1.0000
  H   H789      1.0  0.73612  0.46731  0.26138  1.0000
  H   H790      1.0  0.71454  0.45739  0.21018  1.0000
  H   H791      1.0  0.77165  0.41667  0.22005  1.0000
  H   H792      1.0  0.79324  0.42655  0.27122  1.0000
  C   C657      1.0  0.54168  0.43132  0.13564  1.0000
  C   C658      1.0  0.54189  0.44610  0.12229  1.0000
  C   C659      1.0  0.95860  0.33684  0.33782  1.0000
  H   H793      1.0  0.56355  0.42646  0.14475  1.0000
  H   H794      1.0  0.53534  0.34092  0.04236  1.0000
  C   C660      1.0  0.97468  0.43126  0.35471  1.0000
  C   C661      1.0  0.97432  0.44091  0.32824  1.0000
  H   H795      1.0  0.95223  0.36810  0.31259  1.0000
  H   H796      1.0  0.95257  0.42777  0.36549  1.0000
  H   H797      1.0  0.50932  0.40784  0.08020  1.0000
  C   C662      1.0  0.83058  0.35509  0.35680  1.0000
  C   C663      1.0  0.83106  0.35585  0.38987  1.0000
  C   C664      1.0  0.83527  0.37023  0.40524  1.0000
  C   C665      1.0  0.83960  0.38389  0.38772  1.0000
  C   C666      1.0  0.83999  0.38304  0.35466  1.0000
  C   C667      1.0  0.83510  0.36874  0.33932  1.0000
  H   H798      1.0  0.82737  0.34544  0.40360  1.0000
  H   H799      1.0  0.83500  0.37078  0.43085  1.0000
  H   H800      1.0  0.84381  0.39339  0.34091  1.0000
  H   H801      1.0  0.83482  0.36824  0.31371  1.0000
  C   C668      1.0  0.68610  0.35155  0.08435  1.0000
  C   C669      1.0  0.66866  0.35293  0.05620  1.0000
  C   C670      1.0  0.65963  0.36767  0.04529  1.0000
  C   C671      1.0  0.66731  0.38110  0.06274  1.0000
  C   C672      1.0  0.68420  0.37966  0.09117  1.0000
  C   C673      1.0  0.69379  0.36497  0.10173  1.0000
  H   H802      1.0  0.66292  0.34269  0.04245  1.0000
  H   H803      1.0  0.64690  0.36869  0.02307  1.0000
  H   H804      1.0  0.69041  0.38990  0.10473  1.0000
  H   H805      1.0  0.70750  0.36404  0.12337  1.0000
  H   H806      1.0  0.65618  0.50380  0.05988  1.0000
  H   H807      1.0  0.59324  0.40303  0.02407  1.0000
  H   H808      1.0  0.87851  0.51028  0.46067  1.0000
  H   H809      1.0  0.65011  0.49818  0.09959  1.0000
  H   H810      1.0  0.92217  0.33147  0.38805  1.0000
  C   C674      1.0  0.92784  0.35911  0.35428  1.0000
  H   H811      1.0  0.79283  0.40838  0.32173  1.0000
  H   H812      1.0  0.72196  0.43059  0.32317  1.0000
  C   C675      1.0  0.91539  0.36382  0.38403  1.0000
  H   H813      1.0  0.96557  0.45806  0.39891  1.0000
  H   H814      1.0  0.69216  0.43449  0.27430  1.0000
  C   C676      1.0  0.67238  0.47791  0.98951  1.0000
  H   H815      1.0  0.77037  0.38610  0.37488  1.0000
  C   C677      1.0  0.57345  0.37552  0.04995  1.0000
  H   H816      1.0  0.66484  0.46615  0.99420  1.0000
  H   H817      1.0  0.92114  0.34852  0.29288  1.0000
  C   C678      1.0  0.56955  0.40846  0.02720  1.0000
  H   H818      1.0  0.88456  0.33578  0.36892  1.0000
  C   C679      1.0  0.69073  0.48590  0.01203  1.0000
  C   C680      1.0  0.86425  0.45969  0.15004  1.0000
  C   C681      1.0  0.94230  0.37079  0.33549  1.0000
  H   H819      1.0  0.63628  0.51681  0.08625  1.0000
  H   H820      1.0  0.78736  0.45074  0.16652  1.0000
  C   C682      1.0  0.59629  0.51634  0.99009  1.0000
  C   C683      1.0  0.98869  0.48999  0.44016  1.0000
  H   H821      1.0  0.57406  0.42116  0.02864  1.0000
  H   H822      1.0  0.95459  0.39501  0.33082  1.0000
  H   H823      1.0  0.88019  0.46060  0.13002  1.0000
  H   H824      1.0  0.56468  0.49101  0.09575  1.0000
  H   H825      1.0  0.81175  0.33827  0.22704  1.0000
  H   H826      1.0  0.82952  0.46755  0.47889  1.0000
  C   C684      1.0  0.96864  0.47863  0.42748  1.0000
  H   H827      1.0  0.93159  0.40241  0.38244  1.0000
  C   C685      1.0  0.57315  0.40584  0.08393  1.0000
  H   H828      1.0  0.90349  0.35591  0.39985  1.0000
  H   H829      1.0  0.59972  0.49044  0.11923  1.0000
  S   S191      1.0  0.70011  0.33351  0.09830  1.0000
  H   H830      1.0  0.97194  0.34345  0.31968  1.0000
  C   C686      1.0  0.70043  0.50117  0.00527  1.0000
  C   C687      1.0  0.76528  0.33090  0.21077  1.0000
  H   H831      1.0  0.55551  0.40603  0.00532  1.0000
  C   C688      1.0  0.98125  0.46687  0.40886  1.0000
  H   H832      1.0  0.69259  0.34279  0.20793  1.0000
  C   C689      1.0  0.63872  0.50443  0.07948  1.0000
  S   S192      1.0  0.82309  0.33761  0.33605  1.0000
  H   H833      1.0  0.63256  0.50319  0.01212  1.0000
  C   C690      1.0  0.59285  0.50631  0.04444  1.0000
  C   C691      1.0  0.90962  0.33226  0.36487  1.0000
  C   C692      1.0  0.85540  0.48812  0.46612  1.0000
  C   C693      1.0  0.56211  0.51305  0.04633  1.0000
  H   H834      1.0  0.59762  0.37983  0.05035  1.0000
  H   H835      1.0  0.58334  0.50889  0.10935  1.0000
  H   H836      1.0  0.76710  0.33789  0.18967  1.0000
  N   N43       1.0  0.92606  0.34292  0.34271  1.0000
  H   H837      1.0  0.94320  0.47895  0.43189  1.0000
  N   N44       1.0  0.60744  0.49751  0.07078  1.0000
  H   H838      1.0  0.54754  0.51211  0.06721  1.0000
  C   C694      1.0  0.91711  0.37926  0.39396  1.0000
  N   N45       1.0  0.55291  0.40264  0.05572  1.0000
  H   H839      1.0  0.57789  0.41845  0.08695  1.0000
  H   H840      1.0  0.90662  0.38270  0.41633  1.0000
  C   C695      1.0  0.56906  0.35956  0.04656  1.0000
  N   N46       1.0  0.74881  0.40372  0.34553  1.0000
  C   C696      1.0  0.75686  0.38731  0.35221  1.0000
  C   C697      1.0  0.77900  0.41247  0.34251  1.0000
  C   C698      1.0  0.73132  0.40973  0.37341  1.0000
  C   C699      1.0  0.72980  0.40580  0.31621  1.0000
  C   C700      1.0  0.72447  0.39367  0.29390  1.0000
  C   C701      1.0  0.71754  0.42059  0.30829  1.0000
  C   C702      1.0  0.70791  0.39630  0.26558  1.0000
  C   C703      1.0  0.69606  0.41093  0.25871  1.0000
  H   H841      1.0  0.77251  0.38233  0.33367  1.0000
  H   H842      1.0  0.73510  0.37999  0.35424  1.0000
  H   H843      1.0  0.77497  0.42509  0.33928  1.0000
  H   H844      1.0  0.79428  0.41118  0.36397  1.0000
  H   H845      1.0  0.70735  0.40427  0.37517  1.0000
  H   H846      1.0  0.74439  0.40745  0.39596  1.0000
  H   H847      1.0  0.72815  0.42249  0.37264  1.0000
  H   H848      1.0  0.73331  0.38210  0.29745  1.0000
  H   H849      1.0  0.70470  0.38702  0.24849  1.0000
  H   H850      1.0  0.68412  0.41306  0.23629  1.0000
  N   N47       1.0  0.86608  0.46411  0.24038  1.0000
  C   C704      1.0  0.86328  0.44947  0.25833  1.0000
  C   C705      1.0  0.89973  0.46939  0.24286  1.0000
  C   C706      1.0  0.84607  0.47602  0.25590  1.0000
  C   C707      1.0  0.85504  0.46148  0.20740  1.0000
  C   C708      1.0  0.87553  0.46263  0.18077  1.0000
  C   C709      1.0  0.82297  0.45717  0.20121  1.0000
  C   C710      1.0  0.60936  0.50816  0.01546  1.0000
  C   C711      1.0  0.70005  0.33675  0.18593  1.0000
  C   C712      1.0  0.52323  0.41172  0.05929  1.0000
  H   H851      1.0  0.87655  0.43996  0.24656  1.0000
  H   H852      1.0  0.87313  0.45071  0.28269  1.0000
  H   H853      1.0  0.83817  0.44565  0.26089  1.0000
  H   H854      1.0  0.90700  0.47147  0.26800  1.0000
  H   H855      1.0  0.90364  0.48043  0.22994  1.0000
  H   H856      1.0  0.91643  0.46045  0.23388  1.0000
  H   H857      1.0  0.82097  0.47217  0.25888  1.0000
  H   H858      1.0  0.85472  0.47882  0.28024  1.0000
  H   H859      1.0  0.84580  0.48693  0.24198  1.0000
  H   H860      1.0  0.90036  0.46569  0.18304  1.0000
  H   H861      1.0  0.80611  0.45595  0.22017  1.0000
  H   H862      1.0  0.59696  0.40040  0.08238  1.0000
  H   H863      1.0  0.52830  0.42427  0.06307  1.0000
  C   C713      1.0  0.90855  0.34231  0.31210  1.0000
  C   C714      1.0  0.93105  0.39043  0.37477  1.0000
  C   C715      1.0  0.81199  0.45418  0.17049  1.0000
  C   C716      1.0  0.70062  0.42300  0.28017  1.0000
  C   C717      1.0  0.58780  0.49708  0.09993  1.0000
  C   C718      1.0  0.61249  0.48130  0.06061  1.0000
  H   H864      1.0  0.58963  0.47553  0.05404  1.0000
  H   H865      1.0  0.67944  0.33648  0.16916  1.0000
  H   H866      1.0  0.71471  0.50747  0.02244  1.0000
  C   C719      1.0  0.94380  0.38621  0.34566  1.0000
  C   C720      1.0  0.56628  0.52292  0.99276  1.0000
  H   H867      1.0  0.52576  0.52633  0.02268  1.0000
  H   H868      1.0  0.97867  0.49914  0.45456  1.0000
  C   C721      1.0  0.53849  0.35330  0.04538  1.0000
  C   C722      1.0  0.54920  0.52125  0.02078  1.0000
  H   H869      1.0  0.97251  0.33714  0.36031  1.0000
  H   H870      1.0  0.51308  0.46403  0.10162  1.0000
  C   C723      1.0  0.51317  0.45252  0.11159  1.0000
  C   C724      1.0  0.79111  0.33110  0.23182  1.0000
  H   H871      1.0  0.90495  0.33017  0.30371  1.0000
  H   H872      1.0  0.51299  0.41147  0.14806  1.0000
  C   C725      1.0  0.51301  0.42291  0.13772  1.0000
  C   C726      1.0  0.51637  0.37899  0.05141  1.0000
  H   H873      1.0  0.50775  0.41083  0.03790  1.0000
  C   C727      1.0  0.51220  0.36299  0.04781  1.0000
  S   S193      1.0  0.85829  0.64995  0.63771  1.0000
  S   S194      1.0  0.65459  0.65332  0.93992  1.0000
  Fe  Fe97      1.0  0.66203  0.53304  0.89518  1.0000
  S   S195      1.0  0.63037  0.53220  0.85177  1.0000
  S   S196      1.0  0.66205  0.50870  0.91705  1.0000
  Fe  Fe98      1.0  0.67839  0.56733  0.88262  1.0000
  S   S197      1.0  0.64801  0.56817  0.83902  1.0000
  S   S198      1.0  0.70779  0.58922  0.88904  1.0000
  Fe  Fe99      1.0  0.61199  0.55518  0.86788  1.0000
  S   S199      1.0  0.56188  0.56486  0.87124  1.0000
  Fe  Fe100     1.0  0.66964  0.54521  0.82707  1.0000
  S   S200      1.0  0.68312  0.53921  0.77611  1.0000
  S   S201      1.0  0.64124  0.55557  0.91272  1.0000
  S   S202      1.0  0.70228  0.54491  0.86920  1.0000
  Fe  Fe101     1.0  0.82374  0.56341  0.60656  1.0000
  S   S203      1.0  0.85758  0.56314  0.64753  1.0000
  S   S204      1.0  0.79941  0.58576  0.59238  1.0000
  Fe  Fe102     1.0  0.83407  0.52878  0.59180  1.0000
  S   S205      1.0  0.86842  0.52641  0.63273  1.0000
  S   S206      1.0  0.82294  0.50666  0.56362  1.0000
  Fe  Fe103     1.0  0.83317  0.54078  0.66042  1.0000
  S   S207      1.0  0.82084  0.53733  0.71257  1.0000
  Fe  Fe104     1.0  0.88891  0.54901  0.61600  1.0000
  S   S208      1.0  0.93847  0.55654  0.60158  1.0000
  S   S209      1.0  0.79749  0.54171  0.62082  1.0000
  S   S210      1.0  0.85638  0.55063  0.57373  1.0000
  C   C728      1.0  0.72170  0.53912  0.75902  1.0000
  C   C729      1.0  0.74946  0.53987  0.77743  1.0000
  C   C730      1.0  0.77954  0.53928  0.76282  1.0000
  C   C731      1.0  0.78232  0.53822  0.72969  1.0000
  C   C732      1.0  0.75457  0.53775  0.71124  1.0000
  C   C733      1.0  0.72447  0.53807  0.72587  1.0000
  H   H874      1.0  0.74785  0.54084  0.80289  1.0000
  H   H875      1.0  0.80085  0.53971  0.77731  1.0000
  H   H876      1.0  0.75628  0.53682  0.68575  1.0000
  H   H877      1.0  0.70317  0.53743  0.71142  1.0000
  C   C734      1.0  0.97484  0.55048  0.61811  1.0000
  H   H878      1.0  0.55433  0.59595  0.84009  1.0000
  C   C735      1.0  0.97644  0.54114  0.64506  1.0000
  C   C736      1.0  0.74154  0.61041  0.77291  1.0000
  H   H879      1.0  0.95479  0.53744  0.65662  1.0000
  C   C737      1.0  0.52824  0.53921  0.84908  1.0000
  C   C738      1.0  0.52701  0.55404  0.86238  1.0000
  H   H880      1.0  0.50927  0.59990  0.93516  1.0000
  H   H881      1.0  0.55103  0.53400  0.84418  1.0000
  H   H882      1.0  0.76493  0.60069  0.64949  1.0000
  C   C739      1.0  0.91302  0.48935  0.54867  1.0000
  C   C740      1.0  0.67344  0.50041  0.95402  1.0000
  H   H883      1.0  0.78135  0.61090  0.68248  1.0000
  C   C741      1.0  0.53563  0.62292  0.86961  1.0000
  C   C742      1.0  0.55991  0.65306  0.87016  1.0000
  N   N48       1.0  0.91687  0.60186  0.57450  1.0000
  C   C743      1.0  0.83459  0.50021  0.52523  1.0000
  C   C744      1.0  0.82602  0.48516  0.51537  1.0000
  C   C745      1.0  0.51529  0.63552  0.87376  1.0000
  H   H884      1.0  0.81151  0.47804  0.53067  1.0000
  C   C746      1.0  0.66860  0.63559  0.92458  1.0000
  C   C747      1.0  0.65690  0.62161  0.93696  1.0000
  C   C748      1.0  0.66780  0.60729  0.92540  1.0000
  C   C749      1.0  0.69127  0.60688  0.90205  1.0000
  C   C750      1.0  0.70314  0.62087  0.88986  1.0000
  C   C751      1.0  0.69150  0.63517  0.90069  1.0000
  H   H885      1.0  0.63936  0.62185  0.95560  1.0000
  H   H886      1.0  0.65890  0.59659  0.93530  1.0000
  H   H887      1.0  0.72151  0.62064  0.87202  1.0000
  H   H888      1.0  0.70078  0.64586  0.89105  1.0000
  C   C752      1.0  0.83873  0.63269  0.62630  1.0000
  C   C753      1.0  0.81689  0.63198  0.60121  1.0000
  C   C754      1.0  0.80447  0.61755  0.59130  1.0000
  C   C755      1.0  0.81408  0.60380  0.60616  1.0000
  C   C756      1.0  0.83511  0.60466  0.63183  1.0000
  C   C757      1.0  0.84729  0.61901  0.64186  1.0000
  H   H889      1.0  0.81013  0.64248  0.58906  1.0000
  H   H890      1.0  0.78790  0.61702  0.57160  1.0000
  H   H891      1.0  0.84215  0.59430  0.64401  1.0000
  H   H892      1.0  0.86393  0.61951  0.66149  1.0000
  N   N49       1.0  0.70637  0.49634  0.81854  1.0000
  C   C758      1.0  0.71262  0.48143  0.83465  1.0000
  C   C759      1.0  0.71791  0.50912  0.83912  1.0000
  C   C760      1.0  0.67131  0.49800  0.81546  1.0000
  C   C761      1.0  0.72336  0.49687  0.78789  1.0000
  C   C762      1.0  0.70746  0.49872  0.75832  1.0000
  C   C763      1.0  0.75709  0.49597  0.78713  1.0000
  C   C764      1.0  0.72446  0.49971  0.72999  1.0000
  C   C765      1.0  0.77383  0.49719  0.75871  1.0000
  C   C766      1.0  0.75755  0.49907  0.73021  1.0000
  H   H893      1.0  0.73822  0.47987  0.84039  1.0000
  H   H894      1.0  0.69965  0.48063  0.85759  1.0000
  H   H895      1.0  0.70497  0.47148  0.81956  1.0000
  H   H896      1.0  0.74335  0.50797  0.84581  1.0000
  H   H897      1.0  0.70447  0.50972  0.86178  1.0000
  H   H898      1.0  0.71520  0.52038  0.82677  1.0000
  H   H899      1.0  0.66062  0.48847  0.80111  1.0000
  H   H900      1.0  0.65938  0.49778  0.83901  1.0000
  H   H901      1.0  0.66492  0.50929  0.80447  1.0000
  H   H902      1.0  0.68198  0.49996  0.75645  1.0000
  H   H903      1.0  0.77084  0.49470  0.80864  1.0000
  H   H904      1.0  0.71195  0.50157  0.70782  1.0000
  H   H905      1.0  0.79963  0.49706  0.75878  1.0000
  H   H906      1.0  0.95211  0.58458  0.56341  1.0000
  H   H907      1.0  0.74677  0.56842  0.74182  1.0000
  H   H908      1.0  0.90264  0.60397  0.62345  1.0000
  H   H909      1.0  0.98831  0.61164  0.64542  1.0000
  C   C767      1.0  0.92812  0.62906  0.59315  1.0000
  C   C768      1.0  0.93789  0.61567  0.57628  1.0000
  H   H910      1.0  0.89616  0.58526  0.60647  1.0000
  C   C769      1.0  0.96555  0.50204  0.55748  1.0000
  H   H911      1.0  0.90178  0.49763  0.60650  1.0000
  C   C770      1.0  0.91266  0.59541  0.60670  1.0000
  N   N50       1.0  0.58978  0.61148  0.86055  1.0000
  H   H912      1.0  0.70850  0.58533  0.68298  1.0000
  H   H913      1.0  0.88761  0.48908  0.55613  1.0000
  C   C771      1.0  0.94706  0.64239  0.59457  1.0000
  H   H914      1.0  0.73612  0.57764  0.65453  1.0000
  C   C772      1.0  0.96843  0.61628  0.56194  1.0000
  H   H915      1.0  0.97821  0.60661  0.54909  1.0000
  C   C773      1.0  0.92734  0.49900  0.60004  1.0000
  H   H916      1.0  0.80817  0.58757  0.70305  1.0000
  H   H917      1.0  0.73049  0.56807  0.69123  1.0000
  C   C774      1.0  0.58049  0.64055  0.86590  1.0000
  H   H918      1.0  0.62429  0.62268  0.83051  1.0000
  H   H919      1.0  0.91930  0.51929  0.53169  1.0000
  H   H920      1.0  0.59379  0.59164  0.82954  1.0000
  C   C775      1.0  0.97654  0.64273  0.57972  1.0000
  C   C776      1.0  0.62309  0.61573  0.85261  1.0000
  H   H921      1.0  0.60697  0.59229  0.88832  1.0000
  H   H922      1.0  0.72996  0.59990  0.81775  1.0000
  H   H923      1.0  0.89085  0.51686  0.56291  1.0000
  C   C777      1.0  0.97912  0.49228  0.53400  1.0000
  H   H924      1.0  0.73870  0.61059  0.67552  1.0000
  C   C778      1.0  0.69164  0.50844  0.97660  1.0000
  H   H925      1.0  0.92268  0.47766  0.55372  1.0000
  H   H926      1.0  0.52365  0.62483  0.96078  1.0000
  H   H927      1.0  0.91262  0.57921  0.55298  1.0000
  H   H928      1.0  0.63463  0.62240  0.87206  1.0000
  C   C779      1.0  0.78818  0.58085  0.69226  1.0000
  H   H929      1.0  0.78724  0.56948  0.70451  1.0000
  H   H930      1.0  0.88739  0.61144  0.53763  1.0000
  H   H931      1.0  0.73313  0.57319  0.79702  1.0000
  H   H932      1.0  0.56675  0.59737  0.89597  1.0000
  H   H933      1.0  0.93568  0.59139  0.61679  1.0000
  H   H934      1.0  0.96508  0.48410  0.52041  1.0000
  H   H935      1.0  0.60542  0.64341  0.86348  1.0000
  C   C780      1.0  0.75063  0.59264  0.72826  1.0000
  C   C781      1.0  0.73761  0.58290  0.78135  1.0000
  H   H936      1.0  0.52518  0.61147  0.87014  1.0000
  C   C782      1.0  0.88524  0.60621  0.56158  1.0000
  H   H937      1.0  0.91255  0.49124  0.52258  1.0000
  C   C783      1.0  0.85334  0.50927  0.50511  1.0000
  H   H938      1.0  0.86883  0.59604  0.55970  1.0000
  H   H939      1.0  0.59842  0.60954  0.91060  1.0000
  H   H940      1.0  0.93996  0.48835  0.60767  1.0000
  H   H941      1.0  0.69926  0.52018  0.97187  1.0000
  H   H942      1.0  0.79443  0.57835  0.66715  1.0000
  C   C784      1.0  0.74893  0.60789  0.74098  1.0000
  N   N51       1.0  0.93128  0.50168  0.56555  1.0000
  C   C785      1.0  0.66401  0.48509  0.96066  1.0000
  H   H943      1.0  0.57460  0.60819  0.81217  1.0000
  C   C786      1.0  0.91674  0.51674  0.55738  1.0000
  H   H944      1.0  0.92764  0.52654  0.57075  1.0000
  H   H945      1.0  0.74027  0.62211  0.78219  1.0000
  C   C787      1.0  0.59047  0.60232  0.89016  1.0000
  C   C788      1.0  0.57754  0.60149  0.83445  1.0000
  H   H946      1.0  0.63826  0.60532  0.84910  1.0000
  C   C789      1.0  0.56882  0.62505  0.86500  1.0000
  N   N52       1.0  0.75780  0.58940  0.69454  1.0000
  H   H947      1.0  0.90551  0.62944  0.60523  1.0000
  H   H948      1.0  0.87279  0.61472  0.57672  1.0000
  C   C790      1.0  0.73210  0.57972  0.68029  1.0000
  H   H949      1.0  0.93646  0.50882  0.61464  1.0000
  H   H950      1.0  0.85966  0.52095  0.51198  1.0000
  C   C791      1.0  0.92934  0.58929  0.55402  1.0000
  H   H951      1.0  0.75323  0.61807  0.72684  1.0000
  C   C792      1.0  0.52740  0.65056  0.87389  1.0000
  H   H952      1.0  0.55627  0.52929  0.97301  1.0000
  C   C793      1.0  0.74519  0.58027  0.74959  1.0000
  H   H953      1.0  0.65001  0.47873  0.94338  1.0000
  C   C794      1.0  0.73575  0.59795  0.79301  1.0000
  C   C795      1.0  0.76078  0.60357  0.67488  1.0000
  H   H954      1.0  0.77067  0.50044  0.70834  1.0000
  C   C796      1.0  0.98649  0.51251  0.57323  1.0000
  H   H955      1.0  0.99091  0.65318  0.58044  1.0000
  H   H956      1.0  0.93285  0.59328  0.52926  1.0000
  H   H957      1.0  0.93849  0.65256  0.60700  1.0000
  C   C797      1.0  0.98733  0.62966  0.56371  1.0000
  H   H958      1.0  0.60959  0.51753  0.96821  1.0000
  H   H959      1.0  0.97783  0.52049  0.59088  1.0000
  C   C798      1.0  0.83622  0.47916  0.48598  1.0000
  Fe  Fe105     1.0  0.80084  0.77287  0.09806  1.0000
  S   S211      1.0  0.83877  0.76230  0.12934  1.0000
  S   S212      1.0  0.76209  0.75783  0.07324  1.0000
  Fe  Fe106     1.0  0.81888  0.80595  0.12149  1.0000
  S   S213      1.0  0.85816  0.79728  0.15273  1.0000
  S   S214      1.0  0.80368  0.83061  0.13256  1.0000
  Fe  Fe107     1.0  0.87091  0.78163  0.11231  1.0000
  S   S215      1.0  0.92137  0.77518  0.09587  1.0000
  Fe  Fe108     1.0  0.82314  0.77889  0.16754  1.0000
  S   S216      1.0  0.82218  0.77489  0.22116  1.0000
  S   S217      1.0  0.83359  0.79158  0.07911  1.0000
  S   S218      1.0  0.78338  0.78815  0.13801  1.0000
  Fe  Fe109     1.0  0.69987  0.77592  0.43093  1.0000
  S   S219      1.0  0.66803  0.76303  0.39665  1.0000
  C   C799      1.0  0.76866  0.71076  0.04563  1.0000
  Fe  Fe110     1.0  0.67989  0.80753  0.40227  1.0000
  S   S220      1.0  0.64731  0.79671  0.36589  1.0000
  S   S221      1.0  0.69190  0.83298  0.41010  1.0000
  Fe  Fe111     1.0  0.63085  0.78136  0.40584  1.0000
  S   S222      1.0  0.57978  0.77478  0.42046  1.0000
  Fe  Fe112     1.0  0.68697  0.77939  0.35939  1.0000
  S   S223      1.0  0.69968  0.77021  0.31013  1.0000
  S   S224      1.0  0.66165  0.79319  0.44275  1.0000
  S   S225      1.0  0.72056  0.79135  0.39299  1.0000
  Fe  Fe113     1.0  0.63708  0.91978  0.37267  1.0000
  S   S226      1.0  0.63198  0.93368  0.32774  1.0000
  S   S227      1.0  0.62075  0.89459  0.36887  1.0000
  Fe  Fe114     1.0  0.65425  0.94903  0.41250  1.0000
  S   S228      1.0  0.65079  0.96435  0.37011  1.0000
  C   C800      1.0  0.55455  0.85071  0.43065  1.0000
  Fe  Fe115     1.0  0.60621  0.95079  0.35859  1.0000
  S   S229      1.0  0.56008  0.96399  0.35297  1.0000
  Fe  Fe116     1.0  0.67722  0.94569  0.34350  1.0000
  S   S230      1.0  0.72368  0.95140  0.31733  1.0000
  S   S231      1.0  0.60852  0.93632  0.40226  1.0000
  S   S232      1.0  0.68348  0.93091  0.38723  1.0000
  Fe  Fe117     1.0  0.85411  0.95326  0.09335  1.0000
  S   S233      1.0  0.85479  0.95679  0.14648  1.0000
  S   S234      1.0  0.86477  0.97527  0.06466  1.0000
  Fe  Fe118     1.0  0.84676  0.91773  0.10103  1.0000
  S   S235      1.0  0.84576  0.91920  0.15393  1.0000
  S   S236      1.0  0.85132  0.89471  0.07521  1.0000
  Fe  Fe119     1.0  0.81392  0.93979  0.14766  1.0000
  S   S237      1.0  0.76596  0.94368  0.17227  1.0000
  Fe  Fe120     1.0  0.88664  0.93592  0.14797  1.0000
  S   S238      1.0  0.93152  0.93055  0.17576  1.0000
  S   S239      1.0  0.81174  0.93712  0.09412  1.0000
  S   S240      1.0  0.88895  0.93359  0.09541  1.0000
  C   C801      1.0  0.96847  0.93817  0.16305  1.0000
  H   H960      1.0  0.75676  0.74295  0.32502  1.0000
  C   C802      1.0  0.97014  0.95149  0.14437  1.0000
  H   H961      1.0  0.72218  0.72157  0.37121  1.0000
  H   H962      1.0  0.94848  0.95708  0.13670  1.0000
  C   C803      1.0  0.52351  0.95397  0.34858  1.0000
  H   H963      1.0  0.78866  0.99025  0.38216  1.0000
  H   H964      1.0  0.78095  0.97140  0.36615  1.0000
  H   H965      1.0  0.70517  0.74254  0.05076  1.0000
  H   H966      1.0  0.58399  0.88751  0.43112  1.0000
  C   C804      1.0  0.73504  0.94817  0.27711  1.0000
  C   C805      1.0  0.76742  0.94938  0.26890  1.0000
  C   C806      1.0  0.77747  0.94758  0.23720  1.0000
  C   C807      1.0  0.75514  0.94481  0.21309  1.0000
  C   C808      1.0  0.72277  0.94363  0.22130  1.0000
  C   C809      1.0  0.71279  0.94514  0.25308  1.0000
  H   H967      1.0  0.78490  0.95175  0.28719  1.0000
  H   H968      1.0  0.80241  0.94860  0.23137  1.0000
  H   H969      1.0  0.70522  0.94154  0.20292  1.0000
  H   H970      1.0  0.68781  0.94424  0.25886  1.0000
  H   H971      1.0  0.71479  0.73574  0.40140  1.0000
  H   H972      1.0  0.93219  0.90577  0.12525  1.0000
  H   H973      1.0  0.72753  0.66192  0.03282  1.0000
  H   H974      1.0  0.91465  0.89055  0.10186  1.0000
  H   H975      1.0  0.52569  0.85967  0.33170  1.0000
  C   C810      1.0  0.82487  0.97720  0.01169  1.0000
  C   C811      1.0  0.77053  0.73654  0.34345  1.0000
  C   C812      1.0  0.54048  0.78029  0.40865  1.0000
  C   C813      1.0  0.53474  0.79171  0.38588  1.0000
  C   C814      1.0  0.95914  0.75797  0.18884  1.0000
  H   H976      1.0  0.55453  0.79699  0.37366  1.0000
  C   C815      1.0  0.89846  0.88829  0.16335  1.0000
  C   C816      1.0  0.64296  0.87771  0.37737  1.0000
  C   C817      1.0  0.67094  0.87827  0.39538  1.0000
  C   C818      1.0  0.68595  0.86444  0.40457  1.0000
  C   C819      1.0  0.67345  0.84994  0.39550  1.0000
  C   C820      1.0  0.64625  0.84940  0.37631  1.0000
  C   C821      1.0  0.63090  0.86322  0.36762  1.0000
  H   H977      1.0  0.68046  0.88932  0.40307  1.0000
  H   H978      1.0  0.70711  0.86497  0.41925  1.0000
  H   H979      1.0  0.63674  0.83838  0.36854  1.0000
  H   H980      1.0  0.60935  0.86265  0.35359  1.0000
  C   C822      1.0  0.96140  0.78016  0.10639  1.0000
  C   C823      1.0  0.96891  0.79088  0.13026  1.0000
  C   C824      1.0  0.59780  0.81925  0.41584  1.0000
  H   H981      1.0  0.95003  0.79661  0.14290  1.0000
  C   C825      1.0  0.99682  0.93108  0.17298  1.0000
  C   C826      1.0  0.73375  0.77272  0.28571  1.0000
  C   C827      1.0  0.76347  0.77723  0.29787  1.0000
  C   C828      1.0  0.79021  0.77795  0.27779  1.0000
  C   C829      1.0  0.78746  0.77463  0.24520  1.0000
  C   C830      1.0  0.75756  0.77064  0.23290  1.0000
  C   C831      1.0  0.73104  0.76947  0.25312  1.0000
  H   H982      1.0  0.76599  0.77997  0.32275  1.0000
  H   H983      1.0  0.81318  0.78114  0.28757  1.0000
  H   H984      1.0  0.75501  0.76798  0.20794  1.0000
  H   H985      1.0  0.70821  0.76597  0.24341  1.0000
  C   C832      1.0  0.81762  0.84820  0.11616  1.0000
  C   C833      1.0  0.83664  0.84864  0.08911  1.0000
  C   C834      1.0  0.84678  0.86298  0.07681  1.0000
  C   C835      1.0  0.83816  0.87695  0.09152  1.0000
  C   C836      1.0  0.81943  0.87648  0.11875  1.0000
  C   C837      1.0  0.80910  0.86217  0.13090  1.0000
  H   H986      1.0  0.84315  0.83797  0.07743  1.0000
  H   H987      1.0  0.86117  0.86326  0.05566  1.0000
  H   H988      1.0  0.81239  0.88716  0.13010  1.0000
  H   H989      1.0  0.79419  0.86195  0.15169  1.0000
  C   C838      1.0  0.75233  0.74902  0.03577  1.0000
  C   C839      1.0  0.77394  0.74818  0.01069  1.0000
  N   N53       1.0  0.92424  0.75569  0.19093  1.0000
  H   H990      1.0  0.58598  0.82322  0.39367  1.0000
  H   H991      1.0  0.79749  0.97344  0.40542  1.0000
  N   N54       1.0  0.74766  0.97860  0.40186  1.0000
  S   S241      1.0  0.73436  0.76688  0.46952  1.0000
  C   C840      1.0  0.53282  0.89598  0.36156  1.0000
  C   C841      1.0  0.70372  0.66674  0.02693  1.0000
  N   N55       1.0  0.58165  0.82533  0.44425  1.0000
  N   N56       1.0  0.75809  0.73959  0.37567  1.0000
  C   C842      1.0  0.75763  0.75661  0.38023  1.0000
  C   C843      1.0  0.77764  0.73142  0.39961  1.0000
  C   C844      1.0  0.79452  0.73927  0.42424  1.0000
  C   C845      1.0  0.77977  0.71502  0.39905  1.0000
  C   C846      1.0  0.81186  0.73111  0.44702  1.0000
  C   C847      1.0  0.79690  0.70699  0.42220  1.0000
  C   C848      1.0  0.81275  0.71502  0.44625  1.0000
  H   H992      1.0  0.76907  0.72410  0.33689  1.0000
  H   H993      1.0  0.78178  0.76183  0.37805  1.0000
  H   H994      1.0  0.74238  0.76236  0.36218  1.0000
  H   H995      1.0  0.74771  0.75975  0.40377  1.0000
  H   H996      1.0  0.79395  0.75169  0.42719  1.0000
  H   H997      1.0  0.76769  0.70828  0.38103  1.0000
  H   H998      1.0  0.53610  0.81957  0.42275  1.0000
  H   H999      1.0  0.92194  0.73363  0.16686  1.0000
  C   C849      1.0  0.66256  0.97789  0.47672  1.0000
  H   H1000     1.0  0.66015  0.68939  0.02830  1.0000
  C   C850      1.0  0.72466  0.73403  0.37720  1.0000
  C   C851      1.0  0.52194  0.93930  0.33460  1.0000
  H   H1001     1.0  0.56558  0.88053  0.33905  1.0000
  H   H1002     1.0  0.69047  0.72900  0.00066  1.0000
  H   H1003     1.0  0.81362  0.96666  0.01986  1.0000
  C   C852      1.0  0.77898  0.97266  0.10541  1.0000
  C   C853      1.0  0.93349  0.89313  0.11984  1.0000
  H   H1004     1.0  0.70905  0.74034  0.36017  1.0000
  H   H1005     1.0  0.51818  0.76460  0.44147  1.0000
  H   H1006     1.0  0.53289  0.84494  0.42336  1.0000
  H   H1007     1.0  0.79585  0.74026  0.34154  1.0000
  H   H1008     1.0  0.68951  0.66696  0.04901  1.0000
  H   H1009     1.0  0.78587  0.96394  0.12341  1.0000
  H   H1010     1.0  0.96753  0.74473  0.14509  1.0000
  H   H1011     1.0  0.72905  0.98148  0.13826  1.0000
  C   C854      1.0  0.54920  0.81841  0.44557  1.0000
  C   C855      1.0  0.71376  0.73422  0.00320  1.0000
  N   N57       1.0  0.75736  0.82820  0.22120  1.0000
  C   C856      1.0  0.73529  0.83372  0.19620  1.0000
  C   C857      1.0  0.78573  0.83853  0.22205  1.0000
  C   C858      1.0  0.76846  0.81256  0.21176  1.0000
  C   C859      1.0  0.74106  0.82851  0.25225  1.0000
  C   C860      1.0  0.73405  0.81487  0.26973  1.0000
  C   C861      1.0  0.73121  0.84278  0.26574  1.0000
  C   C862      1.0  0.71899  0.81559  0.29917  1.0000
  C   C863      1.0  0.71627  0.84337  0.29528  1.0000
  C   C864      1.0  0.71035  0.82981  0.31205  1.0000
  H   H1012     1.0  0.72778  0.84588  0.20017  1.0000
  H   H1013     1.0  0.74651  0.83334  0.17231  1.0000
  H   H1014     1.0  0.71339  0.82641  0.19513  1.0000
  H   H1015     1.0  0.77943  0.85090  0.22498  1.0000
  H   H1016     1.0  0.79948  0.83788  0.19958  1.0000
  H   H1017     1.0  0.80205  0.83529  0.24177  1.0000
  H   H1018     1.0  0.78524  0.80767  0.22955  1.0000
  H   H1019     1.0  0.74829  0.80431  0.20824  1.0000
  H   H1020     1.0  0.78144  0.81283  0.18882  1.0000
  H   H1021     1.0  0.73987  0.80348  0.26115  1.0000
  H   H1022     1.0  0.73492  0.85360  0.25353  1.0000
  H   H1023     1.0  0.71389  0.80502  0.31207  1.0000
  H   H1024     1.0  0.70918  0.85440  0.30532  1.0000
  H   H1025     1.0  0.69893  0.83032  0.33504  1.0000
  C   C865      1.0  0.72216  0.74201  0.03164  1.0000
  C   C866      1.0  0.51888  0.87038  0.34319  1.0000
  H   H1026     1.0  0.71310  0.96155  0.41627  1.0000
  H   H1027     1.0  0.73552  0.96925  0.46490  1.0000
  H   H1028     1.0  0.73729  0.95566  0.38378  1.0000
  H   H1029     1.0  0.91480  0.77905  0.20709  1.0000
  C   C867      1.0  0.50326  0.79641  0.37908  1.0000
  H   H1030     1.0  0.88971  0.74667  0.22388  1.0000
  H   H1031     1.0  0.59715  0.80716  0.47589  1.0000
  H   H1032     1.0  0.58900  0.97502  0.41015  1.0000
  C   C868      1.0  0.78012  0.97845  0.38834  1.0000
  C   C869      1.0  0.58290  0.87511  0.43490  1.0000
  C   C870      1.0  0.60916  0.85127  0.44922  1.0000
  H   H1033     1.0  0.88186  0.76955  0.18878  1.0000
  H   H1034     1.0  0.62524  0.82217  0.47140  1.0000
  H   H1035     1.0  0.71843  0.70909  0.10801  1.0000
  C   C871      1.0  0.54141  0.88210  0.34729  1.0000
  C   C872      1.0  0.72560  0.98553  0.37832  1.0000
  C   C873      1.0  0.91582  0.74889  0.22205  1.0000
  C   C874      1.0  0.58135  0.84244  0.44230  1.0000
  H   H1036     1.0  0.81319  0.98560  0.15423  1.0000
  H   H1037     1.0  0.54216  0.96088  0.42007  1.0000
  C   C875      1.0  0.93011  0.86704  0.14010  1.0000
  C   C876      1.0  0.95912  0.86015  0.13051  1.0000
  N   N58       1.0  0.70676  0.68227  0.01230  1.0000
  H   H1038     1.0  0.92838  0.73775  0.22587  1.0000
  C   C877      1.0  0.95474  0.88755  0.17178  1.0000
  H   H1039     1.0  0.97883  0.88704  0.16122  1.0000
  H   H1040     1.0  0.53491  0.82366  0.46487  1.0000
  H   H1041     1.0  0.92188  0.75671  0.24216  1.0000
  H   H1042     1.0  0.79720  0.75346  0.01330  1.0000
  C   C878      1.0  0.93354  0.83515  0.12380  1.0000
  H   H1043     1.0  0.62308  0.82314  0.41490  1.0000
  C   C879      1.0  0.85060  0.98347  0.02861  1.0000
  C   C880      1.0  0.90820  0.77083  0.18786  1.0000
  H   H1044     1.0  0.67578  0.70023  0.99571  1.0000
  H   H1045     1.0  0.70149  0.98701  0.38853  1.0000
  H   H1046     1.0  0.55054  0.90511  0.36425  1.0000
  C   C881      1.0  0.98654  0.77295  0.09017  1.0000
  H   H1047     1.0  0.82519  0.70878  0.46479  1.0000
  C   C882      1.0  0.90267  0.85732  0.14021  1.0000
  S   S242      1.0  0.66338  0.95839  0.46266  1.0000
  H   H1048     1.0  0.89919  0.90052  0.17168  1.0000
  C   C883      1.0  0.99403  0.81866  0.05893  1.0000
  H   H1049     1.0  0.75647  0.96854  0.09413  1.0000
  C   C884      1.0  0.97543  0.76724  0.21163  1.0000
  H   H1050     1.0  0.72300  0.97817  0.35674  1.0000
  H   H1051     1.0  0.91426  0.77640  0.16494  1.0000
  H   H1052     1.0  0.53510  0.87287  0.41759  1.0000
  C   C885      1.0  0.72447  0.69285  0.03382  1.0000
  C   C886      1.0  0.75310  0.70053  0.02492  1.0000
  C   C887      1.0  0.90455  0.84161  0.13230  1.0000
  C   C888      1.0  0.73759  0.96226  0.40650  1.0000
  H   H1053     1.0  0.89274  0.88106  0.18432  1.0000
  C   C889      1.0  0.91101  0.74531  0.16595  1.0000
  C   C890      1.0  0.75217  0.98645  0.14650  1.0000
  C   C891      1.0  0.55052  0.98925  0.47613  1.0000
  H   H1054     1.0  0.98228  0.80744  0.06015  1.0000
  H   H1055     1.0  0.93476  0.82299  0.11750  1.0000
  H   H1056     1.0  0.96278  0.77285  0.23063  1.0000
  C   C892      1.0  0.72832  0.70643  0.08498  1.0000
  H   H1057     1.0  0.91454  0.75025  0.14183  1.0000
  H   H1058     1.0  0.78979  0.71694  0.03800  1.0000
  N   N59       1.0  0.92903  0.88367  0.14871  1.0000
  N   N60       1.0  0.55373  0.98228  0.44417  1.0000
  H   H1059     1.0  0.69099  0.69076  0.07298  1.0000
  H   H1060     1.0  0.79776  0.97256  0.08692  1.0000
  H   H1061     1.0  0.95686  0.89107  0.10853  1.0000
  C   C893      1.0  0.51417  0.77344  0.42385  1.0000
  H   H1062     1.0  0.95262  0.89963  0.18083  1.0000
  H   H1063     1.0  0.54357  0.93366  0.32712  1.0000
  C   C894      1.0  0.53882  0.96667  0.44347  1.0000
  H   H1064     1.0  0.88320  0.83446  0.13245  1.0000
  C   C895      1.0  0.96079  0.84439  0.12297  1.0000
  H   H1065     1.0  0.59774  0.80639  0.41550  1.0000
  H   H1066     1.0  0.87838  0.88763  0.14607  1.0000
  H   H1067     1.0  0.66058  0.68085  0.98989  1.0000
  H   H1068     1.0  0.82369  0.73729  0.46618  1.0000
  H   H1069     1.0  0.69149  0.65837  0.01065  1.0000
  C   C896      1.0  0.71274  0.69603  0.06464  1.0000
  H   H1070     1.0  0.54993  0.80569  0.44994  1.0000
  H   H1071     1.0  0.63132  0.87382  0.45094  1.0000
  H   H1072     1.0  0.98111  0.76470  0.07156  1.0000
  H   H1073     1.0  0.79750  0.69445  0.42188  1.0000
  H   H1074     1.0  0.87930  0.86159  0.14593  1.0000
  C   C897      1.0  0.60959  0.86736  0.44612  1.0000
  C   C898      1.0  0.75617  0.71382  0.07544  1.0000
  C   C899      1.0  0.58728  0.98046  0.43402  1.0000
  C   C900      1.0  0.97779  0.75144  0.16421  1.0000
  H   H1075     1.0  0.99578  0.92088  0.18770  1.0000
  H   H1076     1.0  0.76758  0.72234  0.09073  1.0000
  H   H1077     1.0  0.75404  0.95595  0.42256  1.0000
  H   H1078     1.0  0.88485  0.74363  0.16854  1.0000
  C   C901      1.0  0.55546  0.86680  0.42714  1.0000
  H   H1079     1.0  0.98034  0.85544  0.03488  1.0000
  H   H1080     1.0  0.63135  0.84585  0.45573  1.0000
  C   C902      1.0  0.66315  0.99056  0.45615  1.0000
  H   H1081     1.0  0.76097  0.97823  0.16490  1.0000
  H   H1082     1.0  0.71867  0.73352  0.46407  1.0000
  H   H1083     1.0  0.98325  0.83932  0.11621  1.0000
  H   H1084     1.0  0.51274  0.96701  0.44736  1.0000
  C   C903      1.0  0.59920  0.81995  0.47283  1.0000
  H   H1085     1.0  0.95401  0.82980  0.03694  1.0000
  C   C904      1.0  0.97809  0.83123  0.04593  1.0000
  H   H1086     1.0  0.98066  0.86695  0.12860  1.0000
  C   C905      1.0  0.74761  0.98787  0.43146  1.0000
  H   H1087     1.0  0.60067  0.97281  0.45047  1.0000
  H   H1088     1.0  0.66368  0.98863  0.43089  1.0000
  C   C906      1.0  0.74106  0.98136  0.46167  1.0000
  H   H1089     1.0  0.95395  0.87972  0.19263  1.0000
  C   C907      1.0  0.99300  0.84567  0.04482  1.0000
  C   C908      1.0  0.73732  0.73495  0.48157  1.0000
  H   H1090     1.0  0.76347  0.69927  0.00173  1.0000
  C   C909      1.0  0.99993  0.95800  0.13679  1.0000
  H   H1091     1.0  0.54085  0.98777  0.39595  1.0000
  H   H1092     1.0  0.54957  0.95906  0.46183  1.0000
  N   N61       1.0  0.77512  0.98812  0.12002  1.0000
  C   C910      1.0  0.67446  0.68846  0.00637  1.0000
  C   C911      1.0  0.00103  0.79415  0.13793  1.0000
  H   H1093     1.0  0.00100  0.96860  0.12328  1.0000
  Fe  Fe121     1.0  0.84661  0.67470  0.62408  1.0000
  S   S243      1.0  0.86700  0.69120  0.66051  1.0000
  Fe  Fe122     1.0  0.82161  0.70138  0.58225  1.0000
  S   S244      1.0  0.84173  0.71919  0.61579  1.0000
  S   S245      1.0  0.78950  0.70629  0.53879  1.0000
  Fe  Fe123     1.0  0.88586  0.70420  0.61851  1.0000
  S   S246      1.0  0.93635  0.71476  0.61705  1.0000
  Fe  Fe124     1.0  0.82121  0.70423  0.65470  1.0000
  S   S247      1.0  0.79020  0.71585  0.69240  1.0000
  S   S248      1.0  0.86712  0.68729  0.58214  1.0000
  S   S249      1.0  0.79956  0.68690  0.62114  1.0000
  Fe  Fe125     1.0  0.68676  0.69141  0.85171  1.0000
  S   S250      1.0  0.70811  0.68599  0.89933  1.0000
  S   S251      1.0  0.71913  0.68457  0.81025  1.0000
  Fe  Fe126     1.0  0.62335  0.70132  0.88250  1.0000
  S   S252      1.0  0.64175  0.69738  0.93210  1.0000
  S   S253      1.0  0.57304  0.70959  0.86914  1.0000
  Fe  Fe127     1.0  0.68786  0.70856  0.91658  1.0000
  S   S254      1.0  0.72697  0.72312  0.94192  1.0000
  Fe  Fe128     1.0  0.66125  0.67531  0.91149  1.0000
  S   S255      1.0  0.66811  0.71446  0.86798  1.0000
  S   S256      1.0  0.64098  0.67869  0.86282  1.0000
  C   C912      1.0  0.94161  0.98805  0.90931  1.0000
  C   C913      1.0  0.79567  0.73200  0.87924  1.0000
  H   H1094     1.0  0.89309  0.98200  0.95335  1.0000
  H   H1095     1.0  0.69509  0.75793  0.53578  1.0000
  C   C914      1.0  0.53388  0.70370  0.88091  1.0000
  H   H1096     1.0  0.51163  0.66035  0.87692  1.0000
  C   C915      1.0  0.52858  0.69268  0.90459  1.0000
  C   C916      1.0  0.77313  0.75129  0.51169  1.0000
  H   H1097     1.0  0.54869  0.68742  0.91635  1.0000
  H   H1098     1.0  0.82130  0.72926  0.88256  1.0000
  C   C917      1.0  0.75783  0.72772  0.61494  1.0000
  H   H1099     1.0  0.65534  0.77100  0.56944  1.0000
  H   H1100     1.0  0.79348  0.74536  0.81788  1.0000
  H   H1101     1.0  0.78231  0.76268  0.51746  1.0000
  C   C918      1.0  0.97447  0.70568  0.61556  1.0000
  C   C919      1.0  0.97833  0.68973  0.61974  1.0000
  H   H1102     1.0  0.89184  0.96780  0.92156  1.0000
  H   H1103     1.0  0.95760  0.68249  0.62338  1.0000
  H   H1104     1.0  0.97862  0.70300  0.69557  1.0000
  C   C920      1.0  0.77447  0.72334  0.52001  1.0000
  H   H1105     1.0  0.79312  0.97986  0.97171  1.0000
  H   H1106     1.0  0.76224  0.73838  0.62920  1.0000
  C   C921      1.0  0.72219  0.68018  0.98103  1.0000
  H   H1107     1.0  0.72108  0.72803  0.66553  1.0000
  C   C922      1.0  0.73708  0.69349  0.77660  1.0000
  C   C923      1.0  0.75712  0.68453  0.75729  1.0000
  C   C924      1.0  0.77287  0.69106  0.73100  1.0000
  C   C925      1.0  0.76908  0.70674  0.72385  1.0000
  C   C926      1.0  0.74870  0.71566  0.74285  1.0000
  C   C927      1.0  0.73260  0.70908  0.76890  1.0000
  H   H1108     1.0  0.76069  0.67245  0.76284  1.0000
  H   H1109     1.0  0.78844  0.68402  0.71669  1.0000
  H   H1110     1.0  0.74553  0.72779  0.73756  1.0000
  H   H1111     1.0  0.71678  0.71608  0.78292  1.0000
  C   C928      1.0  0.79731  0.72053  0.82656  1.0000
  C   C929      1.0  0.80235  0.73442  0.80933  1.0000
  H   H1112     1.0  0.79386  0.74415  0.87098  1.0000
  N   N62       1.0  0.72378  0.72320  0.61534  1.0000
  H   H1113     1.0  0.69064  0.71486  0.65042  1.0000
  H   H1114     1.0  0.99879  0.96747  0.94936  1.0000
  H   H1115     1.0  0.59005  0.82559  0.49464  1.0000
  H   H1116     1.0  0.73276  0.69926  0.60373  1.0000
  H   H1117     1.0  0.72787  0.71129  0.57024  1.0000
  H   H1118     1.0  0.67688  0.74088  0.64635  1.0000
  H   H1119     1.0  0.80465  0.73964  0.54462  1.0000
  H   H1120     1.0  0.66150  0.97103  0.52577  1.0000
  C   C930      1.0  0.68156  0.74403  0.62209  1.0000
  N   N63       1.0  0.78017  0.72085  0.85712  1.0000
  C   C931      1.0  0.74691  0.72577  0.85162  1.0000
  H   H1121     1.0  0.74535  0.73725  0.83996  1.0000
  C   C932      1.0  0.99604  0.71227  0.69396  1.0000
  C   C933      1.0  0.81815  0.73441  0.78027  1.0000
  H   H1122     1.0  0.94159  0.97068  0.94728  1.0000
  C   C934      1.0  0.66404  0.75641  0.60984  1.0000
  H   H1123     1.0  0.78272  0.73976  0.96334  1.0000
  H   H1124     1.0  0.72563  0.73631  0.55628  1.0000
  H   H1125     1.0  0.69365  0.70604  0.59319  1.0000
  H   H1126     1.0  0.77303  0.71850  0.62510  1.0000
  H   H1127     1.0  0.83243  0.69603  0.77301  1.0000
  H   H1128     1.0  0.73360  0.72672  0.87425  1.0000
  C   C935      1.0  0.71920  0.70939  0.59477  1.0000
  C   C936      1.0  0.82473  0.70679  0.78369  1.0000
  H   H1129     1.0  0.73399  0.71729  0.83633  1.0000
  C   C937      1.0  0.70858  0.74159  0.57185  1.0000
  C   C938      1.0  0.78586  0.73820  0.52723  1.0000
  C   C939      1.0  0.75009  0.72185  0.49708  1.0000
  C   C940      1.0  0.82943  0.72063  0.76755  1.0000
  H   H1130     1.0  0.80476  0.69539  0.82306  1.0000
  H   H1131     1.0  0.76548  0.69688  0.85904  1.0000
  H   H1132     1.0  0.76674  0.72982  0.59060  1.0000
  C   C941      1.0  0.80871  0.70662  0.81262  1.0000
  C   C942      1.0  0.77910  0.70560  0.87324  1.0000
  H   H1133     1.0  0.90224  0.97702  0.86482  1.0000
  H   H1134     1.0  0.73066  0.70858  0.65631  1.0000
  C   C943      1.0  0.66189  0.98071  0.50957  1.0000
  H   H1135     1.0  0.82106  0.74507  0.76710  1.0000
  H   H1136     1.0  0.76685  0.70634  0.89652  1.0000
  H   H1137     1.0  0.78423  0.73184  0.90303  1.0000
  C   C944      1.0  0.76560  0.74034  0.98229  1.0000
  H   H1138     1.0  0.84077  0.72058  0.74453  1.0000
  H   H1139     1.0  0.64673  0.76224  0.62454  1.0000
  H   H1140     1.0  0.80341  0.70111  0.87792  1.0000
  C   C945      1.0  0.70439  0.73620  0.60328  1.0000
  C   C946      1.0  0.69112  0.75399  0.55989  1.0000
  C   C947      1.0  0.71592  0.71855  0.64828  1.0000
  C   C948      1.0  0.95561  0.97754  0.93112  1.0000
  H   H1141     1.0  0.99926  0.72723  0.60792  1.0000
  C   C949      1.0  0.66883  0.76137  0.57883  1.0000
  C   C950      1.0  0.98626  0.72688  0.68427  1.0000
  H   H1142     1.0  0.73378  0.98550  0.51149  1.0000
  H   H1143     1.0  0.86909  0.98956  0.87244  1.0000
  H   H1144     1.0  0.74105  0.71045  0.49116  1.0000
  H   H1145     1.0  0.86177  0.98224  0.92499  1.0000
  H   H1146     1.0  0.96143  0.72886  0.67840  1.0000
  C   C951      1.0  0.89548  0.98858  0.87422  1.0000
  C   C952      1.0  0.88782  0.98016  0.92771  1.0000
  C   C953      1.0  0.50720  0.71047  0.86616  1.0000
  H   H1147     1.0  0.51088  0.71901  0.84785  1.0000
  C   C954      1.0  0.73550  0.73325  0.97826  1.0000
  H   H1148     1.0  0.72390  0.69135  0.96804  1.0000
  H   H1149     1.0  0.74640  0.67518  0.98348  1.0000
  H   H1150     1.0  0.70834  0.67210  0.96549  1.0000
  C   C955      1.0  0.98863  0.97563  0.93270  1.0000
  H   H1151     1.0  0.56924  0.66483  0.87054  1.0000
  C   C956      1.0  0.74887  0.74980  0.48865  1.0000
  C   C957      1.0  0.73998  0.99061  0.48889  1.0000
  N   N64       1.0  0.90687  0.99069  0.90734  1.0000
  C   C958      1.0  0.81325  0.98475  0.98440  1.0000
  H   H1152     1.0  0.00073  0.74998  0.67268  1.0000
  C   C959      1.0  0.00188  0.71489  0.61113  1.0000
  C   C960      1.0  0.51998  0.99130  0.48970  1.0000
