data_image0
_chemical_formula_structural       FeS2FeS2FeSFeS3FeS2FeS2FeSFeS3FeS2FeS2FeSFeS3FeS2FeS2FeSFeS3CH4C3H2C2H2C7H4C2H5C6H5CH3C3H2C6H4C6H5CNC9H14CHCHCH5CHCH2NC2H3NHC2H3CHCH6CNCHCH3CHC2HC3H4CHC4H2CH2C3H2CH2C4HCH2C2H2C2H3C4NH2C3HCH5CH4CHC4H3CHC2NH6CHCH2C3HC2H3CHC2HCHCH2C2FeS2FeCSHCFeS3FeS2FeHSH2FeS3C2H2C7H4CHCH2C3H4NFeHCSCNH3C3HCH7CH2SCHCHC2HNCH3CH2CHCHFeH7CHC4H2CHC2HC3HC3H3C3H2CHCHCHCHFeS2FeS2FeSFeS3FeS2FeS2FeSFeS3C6H4C3HCHC2H2C6H4C6H5CHCSHC3HCH2CH2CHCHCH6NH11CSHC2H3C2N2H2C2H3CHC2NH6CH5C2H4CHC3H2CNCHCHCH3C3H2NC3H2C2H2C6HCNH4C2H5CHCHCHCHC2HCHCFeS2FeS2FeSFeS3FeS2FeS2FeSFeS3C4HC2HCH2C6H4C2H4C8H4C6H6C3H4CHC2H5C3H4CHC2H2CH2NC4HCH2SH11CH2CNCHC2HCHC2HCHCNC2HCHCHNC2H2CSC2HCH2CNH3C2H2CHC3H3NH2CH3CHCHCH3C3HCHCHCH2CFeS2FeS2FeCFeS3FeS2FeS2FeHFeS3HCH3C6H4C3H2CHC2H2C3H2CH2NH2C4H5CH3CH2CH4CHCH3C2NH3C4H4CH2C3H4C2H2C4H5FeS2FeS2FeSFeS3FeS2FeS2FeSFeHS2FeS2FeSCFeSFeS3FeS2FeS2FeSFeS3CHC2NCHC3H3CNH6C6H6CHC7H4CNH2C8H4C6H5C11H8C2H2CH2SH6CHC4HCHC2H3C2H3CH2CHC2NC9H14C2H2NC2HC6HNH4CSH8CHNC2H4CH2C3H8C2HC3HCHC4H4CH3CH2CH2C4H2C3H2FeS2FeS2FeSFeS3FeS2FeS2FeSFeS3FeS2FeS2FeSFeS3FeS2FeS2FeSFeS3CH4NCH2C7H4CHCH2C2HCHCHC6H4C3H2C6H4C6H4CHCHNH3C2HCN2H2CHCHCH2C2H2CHCHCNC5H10NH2CHCH8CH8CHCH2C3H3C2H2C2NC3H2C2H3CH5CH3NC9H14C4HC4H7CH2CH4CH2CHCHC2H3CHC5H2CH3CH2C3NCHFeS2FeS2HSFeS3CSCFeS2FeSFeS3C4HC6HCH2C2H4C2H2C2HC3HCH3C4HCHCFeNC9H12CHNC8H14CH4CH4FeH2CHC3FeS2FeS2FeSFeS3FeS2FeS2FeSFeS3C3H2C6H4C6H4C6H4C2H3CHC2HC3H3CNH6CHCHNC9H15CHCH2CHNH3CH3CNCH3CHC2H5C3HCH3C6H2CH3FeS2FeS2FeSFeS3FeS2FeS2FeSFeS3CHCH2C6H6CH3CH3C6H4C6H4CHCH2NC9H11NC2NH4C2HC2H5C2H9C2H2C2H3CHCH2C4HNH4NCH7C2HC2HCSHSC2HCHCH2NCHC7HC2H2CHCHC3H2C2H2C2HCH3CH2C2FeSHFeS2FeSFeS3FeS2FeS2FeSFeHS2C2H3C6H5C2H7C3H2CH3NC10H2SH12CHCHCHC2H2CH7NH2NSC4H4NH2CH3CHC3H3C3HC3HC4H5CH3CHCH2C4HCFeS2FeS2FeHFeS3FeS2FeS2FeSFeS3FeS2FeSHFeSFeS3FeS2FeS2FeSFeS3CHC2H4C2H3CH3C6H4C3H2NHC7H4C3H8NHC6H2CHC6H4NCHC3H3CHC2HCH5CHC2HCH3CH2C3HCH3CHC2H2CHCH3C2HCH6NC6H2CH11C2HNC4HCH2CH11CH2C2H2CH3CHCNCHC2H4C4H3NHCHCH2C5HC5HCNH2CSH3C
_chemical_formula_sum              "Fe128 S256 C960 H1152 N64"
_cell_length_a       36.9031
_cell_length_b       79.0538
_cell_length_c       46.9791
_cell_angle_alpha    89.8805
_cell_angle_beta     89.5946
_cell_angle_gamma    88.7902

_space_group_name_H-M_alt    "P 1"
_space_group_IT_number       1

loop_
  _space_group_symop_operation_xyz
  'x, y, z'

loop_
  _atom_site_type_symbol
  _atom_site_label
  _atom_site_symmetry_multiplicity
  _atom_site_fract_x
  _atom_site_fract_y
  _atom_site_fract_z
  _atom_site_occupancy
  Fe  Fe1       1.0  0.30332  0.03632  0.38970  1.0000
  S   S1        1.0  0.35136  0.05315  0.38357  1.0000
  S   S2        1.0  0.29226  0.02993  0.43678  1.0000
  Fe  Fe2       1.0  0.28413  0.03891  0.32528  1.0000
  S   S3        1.0  0.33180  0.05516  0.31551  1.0000
  S   S4        1.0  0.23867  0.03483  0.29316  1.0000
  Fe  Fe3       1.0  0.36316  0.03771  0.34461  1.0000
  S   S5        1.0  0.41928  0.02678  0.33490  1.0000
  Fe  Fe4       1.0  0.31545  0.06915  0.35537  1.0000
  S   S6        1.0  0.31679  0.09788  0.35496  1.0000
  S   S7        1.0  0.31662  0.01997  0.35162  1.0000
  S   S8        1.0  0.26645  0.05377  0.36415  1.0000
  Fe  Fe5       1.0  0.18423  0.17562  0.36660  1.0000
  S   S9        1.0  0.23366  0.19113  0.35971  1.0000
  S   S10       1.0  0.18465  0.14841  0.38227  1.0000
  Fe  Fe6       1.0  0.13301  0.20212  0.34040  1.0000
  S   S11       1.0  0.17935  0.21962  0.33104  1.0000
  S   S12       1.0  0.07750  0.20814  0.32067  1.0000
  Fe  Fe7       1.0  0.21071  0.19655  0.31625  1.0000
  S   S13       1.0  0.24957  0.19137  0.27901  1.0000
  Fe  Fe8       1.0  0.19940  0.21323  0.37541  1.0000
  S   S14       1.0  0.22579  0.23546  0.39888  1.0000
  S   S15       1.0  0.16340  0.17957  0.32244  1.0000
  S   S16       1.0  0.15070  0.19721  0.38567  1.0000
  Fe  Fe9       1.0  0.16966  0.03103  0.06774  1.0000
  S   S17       1.0  0.14185  0.05580  0.05687  1.0000
  S   S18       1.0  0.15960  0.00609  0.04420  1.0000
  Fe  Fe10      1.0  0.20202  0.04542  0.12326  1.0000
  S   S19       1.0  0.17628  0.07106  0.11648  1.0000
  S   S20       1.0  0.24486  0.04002  0.15739  1.0000
  Fe  Fe11      1.0  0.12655  0.05710  0.10311  1.0000
  S   S21       1.0  0.07220  0.06824  0.11718  1.0000
  Fe  Fe12      1.0  0.19328  0.06819  0.07087  1.0000
  S   S22       1.0  0.21534  0.08984  0.04443  1.0000
  S   S23       1.0  0.15071  0.03154  0.11378  1.0000
  S   S24       1.0  0.22261  0.04326  0.07785  1.0000
  Fe  Fe13      1.0  0.27730  0.18553  0.08335  1.0000
  S   S25       1.0  0.24550  0.20981  0.09035  1.0000
  S   S26       1.0  0.24651  0.16207  0.09713  1.0000
  Fe  Fe14      1.0  0.34825  0.20471  0.07449  1.0000
  S   S27       1.0  0.32065  0.22988  0.08273  1.0000
  S   S28       1.0  0.40610  0.20321  0.05618  1.0000
  Fe  Fe15      1.0  0.29135  0.21684  0.11870  1.0000
  S   S29       1.0  0.27478  0.22947  0.16078  1.0000
  Fe  Fe16      1.0  0.27685  0.22077  0.05360  1.0000
  S   S30       1.0  0.25262  0.24144  0.02421  1.0000
  S   S31       1.0  0.32264  0.19238  0.11291  1.0000
  S   S32       1.0  0.30509  0.19580  0.04410  1.0000
  C   C1        1.0  0.28993  0.13626  0.42867  1.0000
  H   H1        1.0  0.11907  0.08793  0.08304  1.0000
  H   H2        1.0  0.32138  0.22901  0.99647  1.0000
  H   H3        1.0  0.44255  0.99514  0.46743  1.0000
  H   H4        1.0  0.10168  0.11151  0.01541  1.0000
  C   C2        1.0  0.44922  0.20702  0.07154  1.0000
  C   C3        1.0  0.44283  0.16771  0.09815  1.0000
  C   C4        1.0  0.45352  0.21038  0.10054  1.0000
  H   H5        1.0  0.35105  0.07439  0.43957  1.0000
  H   H6        1.0  0.42995  0.21116  0.11433  1.0000
  C   C5        1.0  0.03236  0.04700  0.08335  1.0000
  C   C6        1.0  0.03170  0.06009  0.10333  1.0000
  H   H7        1.0  0.49157  0.21449  0.13447  1.0000
  H   H8        1.0  0.05802  0.04158  0.07626  1.0000
  C   C7        1.0  0.17010  0.99915  0.00888  1.0000
  C   C8        1.0  0.22814  0.10930  0.05971  1.0000
  C   C9        1.0  0.22376  0.11242  0.08884  1.0000
  C   C10       1.0  0.23033  0.12857  0.09989  1.0000
  C   C11       1.0  0.24238  0.14168  0.08217  1.0000
  C   C12       1.0  0.24795  0.13847  0.05319  1.0000
  C   C13       1.0  0.24061  0.12235  0.04200  1.0000
  H   H9        1.0  0.21470  0.10248  0.10281  1.0000
  H   H10       1.0  0.22598  0.13093  0.12233  1.0000
  H   H11       1.0  0.25692  0.14849  0.03928  1.0000
  H   H12       1.0  0.24407  0.12007  0.01943  1.0000
  C   C14       1.0  0.23713  0.23974  0.43521  1.0000
  C   C15       1.0  0.48918  0.06389  0.35590  1.0000
  H   H13       1.0  0.22140  0.19964  0.16236  1.0000
  H   H14       1.0  0.35087  0.22185  0.23533  1.0000
  H   H15       1.0  0.25121  0.22342  0.30772  1.0000
  H   H16       1.0  0.24133  0.15157  0.43336  1.0000
  H   H17       1.0  0.26279  0.26319  0.42456  1.0000
  C   C16       1.0  0.25548  0.20227  0.24630  1.0000
  C   C17       1.0  0.23736  0.21754  0.24011  1.0000
  C   C18       1.0  0.24339  0.22570  0.21379  1.0000
  C   C19       1.0  0.26721  0.21859  0.19333  1.0000
  C   C20       1.0  0.28524  0.20332  0.19956  1.0000
  C   C21       1.0  0.27970  0.19533  0.22603  1.0000
  H   H18       1.0  0.21883  0.22309  0.25557  1.0000
  H   H19       1.0  0.22954  0.23758  0.20925  1.0000
  H   H20       1.0  0.30395  0.19781  0.18416  1.0000
  H   H21       1.0  0.29415  0.18362  0.23075  1.0000
  H   H22       1.0  0.35706  0.09587  0.45035  1.0000
  C   C22       1.0  0.03269  0.20549  0.33426  1.0000
  H   H23       1.0  0.21955  0.15506  0.18877  1.0000
  H   H24       1.0  0.04843  0.19690  0.37594  1.0000
  H   H25       1.0  0.21484  0.18662  0.13225  1.0000
  C   C23       1.0  0.45872  0.03789  0.34396  1.0000
  C   C24       1.0  0.18650  0.99853  0.21408  1.0000
  C   C25       1.0  0.45706  0.05507  0.35104  1.0000
  H   H26       1.0  0.40639  0.23795  0.03361  1.0000
  H   H27       1.0  0.43108  0.06165  0.35205  1.0000
  C   C26       1.0  0.24092  0.03741  0.25557  1.0000
  C   C27       1.0  0.20852  0.03859  0.23995  1.0000
  C   C28       1.0  0.20909  0.04010  0.20998  1.0000
  C   C29       1.0  0.24217  0.04005  0.19523  1.0000
  C   C30       1.0  0.27453  0.03912  0.21091  1.0000
  C   C31       1.0  0.27396  0.03798  0.24089  1.0000
  H   H28       1.0  0.18278  0.03811  0.25106  1.0000
  H   H29       1.0  0.18397  0.04067  0.19824  1.0000
  H   H30       1.0  0.30027  0.03906  0.19974  1.0000
  H   H31       1.0  0.29911  0.03706  0.25256  1.0000
  C   C32       1.0  0.27854  0.11150  0.36015  1.0000
  C   C33       1.0  0.28265  0.12900  0.35660  1.0000
  C   C34       1.0  0.25371  0.14039  0.36235  1.0000
  C   C35       1.0  0.22051  0.13439  0.37219  1.0000
  C   C36       1.0  0.21608  0.11685  0.37509  1.0000
  C   C37       1.0  0.24478  0.10543  0.36870  1.0000
  H   H32       1.0  0.30852  0.13381  0.34976  1.0000
  H   H33       1.0  0.25745  0.15384  0.35993  1.0000
  H   H34       1.0  0.19042  0.11212  0.38256  1.0000
  H   H35       1.0  0.24085  0.09200  0.37095  1.0000
  H   H36       1.0  0.17207  0.15875  0.06255  1.0000
  C   C38       1.0  0.29209  0.01032  0.45572  1.0000
  N   N1        1.0  0.23111  0.09033  0.27856  1.0000
  C   C39       1.0  0.19915  0.08105  0.28932  1.0000
  C   C40       1.0  0.23426  0.08703  0.24752  1.0000
  C   C41       1.0  0.26353  0.08303  0.29282  1.0000
  C   C42       1.0  0.22888  0.10880  0.28387  1.0000
  C   C43       1.0  0.25663  0.11949  0.27372  1.0000
  C   C44       1.0  0.19987  0.11668  0.29935  1.0000
  C   C45       1.0  0.25516  0.13697  0.27840  1.0000
  C   C46       1.0  0.19869  0.13417  0.30386  1.0000
  C   C47       1.0  0.22623  0.14428  0.29340  1.0000
  H   H37       1.0  0.20150  0.06726  0.28459  1.0000
  H   H38       1.0  0.19655  0.08199  0.31291  1.0000
  H   H39       1.0  0.17364  0.08574  0.27928  1.0000
  H   H40       1.0  0.21126  0.09303  0.23577  1.0000
  H   H41       1.0  0.23429  0.07323  0.24272  1.0000
  H   H42       1.0  0.25989  0.09177  0.23823  1.0000
  H   H43       1.0  0.28919  0.08864  0.28520  1.0000
  H   H44       1.0  0.26609  0.06914  0.28916  1.0000
  H   H45       1.0  0.28004  0.11437  0.26251  1.0000
  H   H46       1.0  0.17815  0.10962  0.30879  1.0000
  H   H47       1.0  0.27686  0.14491  0.27089  1.0000
  H   H48       1.0  0.17695  0.13988  0.31650  1.0000
  H   H49       1.0  0.22567  0.15776  0.29758  1.0000
  H   H50       1.0  0.16660  0.28015  0.41283  1.0000
  C   C48       1.0  0.32460  0.23085  0.27376  1.0000
  H   H51       1.0  0.32205  0.25809  0.01202  1.0000
  C   C49       1.0  0.14018  0.13623  0.06163  1.0000
  H   H52       1.0  0.04146  0.14312  0.33362  1.0000
  C   C50       1.0  0.16659  0.16614  0.15505  1.0000
  H   H53       1.0  0.24038  0.16367  0.15781  1.0000
  H   H54       1.0  0.14067  0.17301  0.15035  1.0000
  H   H55       1.0  0.17890  0.16202  0.13434  1.0000
  H   H56       1.0  0.15995  0.15440  0.16683  1.0000
  H   H57       1.0  0.41416  0.17052  0.10115  1.0000
  C   C51       1.0  0.46700  0.17019  0.12030  1.0000
  H   H58       1.0  0.00776  0.21359  0.29502  1.0000
  C   C52       1.0  0.23379  0.99506  0.17853  1.0000
  H   H59       1.0  0.26463  0.00596  0.12809  1.0000
  H   H60       1.0  0.21387  0.21739  0.45328  1.0000
  N   N2        1.0  0.30122  0.08897  0.44505  1.0000
  C   C53       1.0  0.20158  0.19123  0.15214  1.0000
  C   C54       1.0  0.25391  0.13918  0.43657  1.0000
  H   H61       1.0  0.14451  0.21809  0.23469  1.0000
  H   H62       1.0  0.06141  0.09078  0.06185  1.0000
  H   H63       1.0  0.25199  0.07680  0.43180  1.0000
  N   N3        1.0  0.37006  0.24371  0.99878  1.0000
  H   H64       1.0  0.27043  0.26655  0.27649  1.0000
  C   C55       1.0  0.08069  0.15779  0.07150  1.0000
  C   C56       1.0  0.48029  0.20614  0.05399  1.0000
  H   H65       1.0  0.27850  0.27045  0.47433  1.0000
  H   H66       1.0  0.02776  0.00930  0.99550  1.0000
  H   H67       1.0  0.22215  0.01474  0.11739  1.0000
  C   C57       1.0  0.32410  0.24289  0.33492  1.0000
  H   H68       1.0  0.30526  0.14647  0.41940  1.0000
  C   C58       1.0  0.28573  0.10634  0.44240  1.0000
  H   H69       1.0  0.22933  0.30622  0.48061  1.0000
  H   H70       1.0  0.29232  0.06433  0.42733  1.0000
  H   H71       1.0  0.42731  0.03604  0.26649  1.0000
  H   H72       1.0  0.16805  0.15724  0.21554  1.0000
  H   H73       1.0  0.29331  0.21432  0.31916  1.0000
  H   H74       1.0  0.34455  0.09085  0.41410  1.0000
  C   C59       1.0  0.49282  0.15942  0.06727  1.0000
  N   N4        1.0  0.19144  0.17703  0.17116  1.0000
  C   C60       1.0  0.22502  0.16711  0.17754  1.0000
  H   H75       1.0  0.36364  0.26957  0.01252  1.0000
  C   C61       1.0  0.16046  0.99573  0.19339  1.0000
  H   H76       1.0  0.28336  0.08165  0.40376  1.0000
  H   H77       1.0  0.26209  0.08508  0.31622  1.0000
  H   H78       1.0  0.26895  0.08172  0.48163  1.0000
  C   C62       1.0  0.16589  0.27661  0.43513  1.0000
  H   H79       1.0  0.35353  0.25412  0.03949  1.0000
  C   C63       1.0  0.16318  0.17061  0.21881  1.0000
  C   C64       1.0  0.28123  0.07748  0.42625  1.0000
  H   H80       1.0  0.24318  0.00100  0.22265  1.0000
  C   C65       1.0  0.07559  0.14035  0.06898  1.0000
  C   C66       1.0  0.22789  0.22896  0.45771  1.0000
  C   C67       1.0  0.17381  0.18267  0.19807  1.0000
  H   H81       1.0  0.24341  0.17448  0.19112  1.0000
  H   H82       1.0  0.13196  0.99635  0.19919  1.0000
  H   H83       1.0  0.42144  0.23005  0.00026  1.0000
  H   H84       1.0  0.18269  0.30072  0.44915  1.0000
  C   C68       1.0  0.34020  0.08757  0.43697  1.0000
  H   H85       1.0  0.35121  0.22321  0.02472  1.0000
  C   C69       1.0  0.40711  0.24104  0.01043  1.0000
  C   C70       1.0  0.47680  0.02364  0.25251  1.0000
  C   C71       1.0  0.12236  0.10184  0.08389  1.0000
  C   C72       1.0  0.10536  0.12901  0.06387  1.0000
  H   H86       1.0  0.11334  0.10606  0.10544  1.0000
  H   H87       1.0  0.33502  0.22016  0.28575  1.0000
  C   C73       1.0  0.14628  0.17559  0.24430  1.0000
  H   H88       1.0  0.17755  0.19895  0.14547  1.0000
  H   H89       1.0  0.13870  0.16621  0.26000  1.0000
  C   C74       1.0  0.45664  0.03661  0.26544  1.0000
  C   C75       1.0  0.33407  0.23174  0.24494  1.0000
  C   C76       1.0  0.32094  0.24499  0.22811  1.0000
  H   H90       1.0  0.05144  0.10791  0.08511  1.0000
  H   H91       1.0  0.04577  0.11042  0.04688  1.0000
  C   C77       1.0  0.16657  0.20000  0.20453  1.0000
  H   H92       1.0  0.17430  0.21016  0.19048  1.0000
  H   H93       1.0  0.49417  0.01625  0.33706  1.0000
  C   C78       1.0  0.06324  0.10482  0.06380  1.0000
  C   C79       1.0  0.13932  0.19265  0.24984  1.0000
  C   C80       1.0  0.17508  0.28825  0.45611  1.0000
  C   C81       1.0  0.14950  0.20481  0.23004  1.0000
  H   H94       1.0  0.12618  0.19650  0.26962  1.0000
  C   C82       1.0  0.15670  0.26020  0.44264  1.0000
  H   H95       1.0  0.45692  0.17492  0.14056  1.0000
  H   H96       1.0  0.33815  0.25502  0.33112  1.0000
  C   C83       1.0  0.07862  0.02185  0.99746  1.0000
  C   C84       1.0  0.45572  0.16240  0.07166  1.0000
  H   H97       1.0  0.05761  0.16625  0.07511  1.0000
  H   H98       1.0  0.00709  0.17011  0.32907  1.0000
  C   C85       1.0  0.02594  0.19978  0.36197  1.0000
  C   C86       1.0  0.20806  0.99189  0.15694  1.0000
  H   H99       1.0  0.14516  0.10670  0.03072  1.0000
  H   H100      1.0  0.11187  0.09087  0.03008  1.0000
  H   H101      1.0  0.45834  0.05994  0.28850  1.0000
  C   C87       1.0  0.17086  0.99245  0.16520  1.0000
  C   C88       1.0  0.30572  0.12010  0.43130  1.0000
  C   C89       1.0  0.29769  0.08287  0.47482  1.0000
  C   C90       1.0  0.25536  0.25474  0.44166  1.0000
  N   N5        1.0  0.10130  0.11048  0.06121  1.0000
  H   H102      1.0  0.47733  0.20368  0.03150  1.0000
  H   H103      1.0  0.29355  0.99419  0.41891  1.0000
  C   C91       1.0  0.14503  0.15363  0.06437  1.0000
  C   C92       1.0  0.22308  0.99821  0.20666  1.0000
  C   C93       1.0  0.11532  0.16441  0.06919  1.0000
  H   H104      1.0  0.46293  0.01311  0.24306  1.0000
  C   C94       1.0  0.35162  0.25698  0.01632  1.0000
  H   H105      1.0  0.33326  0.11863  0.42368  1.0000
  H   H106      1.0  0.26395  0.22419  0.34466  1.0000
  H   H107      1.0  0.31013  0.06997  0.47751  1.0000
  H   H108      1.0  0.43683  0.16111  0.05424  1.0000
  H   H109      1.0  0.16404  0.12843  0.05767  1.0000
  C   C95       1.0  0.27430  0.22524  0.32240  1.0000
  H   H110      1.0  0.23182  0.09989  0.45799  1.0000
  H   H111      1.0  0.32746  0.24535  0.20554  1.0000
  H   H112      1.0  0.04810  0.13607  0.07104  1.0000
  H   H113      1.0  0.31727  0.24212  0.35806  1.0000
  C   C96       1.0  0.49270  0.02954  0.34253  1.0000
  H   H114      1.0  0.23912  0.25461  0.31491  1.0000
  C   C97       1.0  0.29825  0.25740  0.24002  1.0000
  C   C98       1.0  0.00291  0.20915  0.31648  1.0000
  C   C99       1.0  0.30134  0.24323  0.28661  1.0000
  C   C100      1.0  0.11552  0.10470  0.03315  1.0000
  H   H115      1.0  0.34390  0.23242  0.33047  1.0000
  H   H116      1.0  0.17838  0.00138  0.23582  1.0000
  H   H117      1.0  0.25762  0.25348  0.34982  1.0000
  C   C101      1.0  0.28849  0.25664  0.26884  1.0000
  H   H118      1.0  0.15059  0.24241  0.47674  1.0000
  C   C102      1.0  0.26501  0.25512  0.32691  1.0000
  C   C103      1.0  0.26407  0.25899  0.47002  1.0000
  N   N6        1.0  0.29123  0.24179  0.31710  1.0000
  H   H119      1.0  0.28753  0.26746  0.22657  1.0000
  H   H120      1.0  0.27642  0.26798  0.32490  1.0000
  H   H121      1.0  0.15187  0.10396  0.08190  1.0000
  H   H122      1.0  0.15064  0.25104  0.42625  1.0000
  H   H123      1.0  0.00905  0.11601  0.33471  1.0000
  H   H124      1.0  0.42370  0.25254  0.00800  1.0000
  C   C104      1.0  0.01215  0.14305  0.33200  1.0000
  H   H125      1.0  0.48767  0.07726  0.36076  1.0000
  C   C105      1.0  0.23964  0.00319  0.11600  1.0000
  H   H126      1.0  0.24769  0.00154  0.09327  1.0000
  H   H127      1.0  0.07541  0.02529  0.01971  1.0000
  C   C106      1.0  0.48856  0.21225  0.11191  1.0000
  C   C107      1.0  0.29256  0.99464  0.44192  1.0000
  C   C108      1.0  0.47422  0.05009  0.27790  1.0000
  H   H128      1.0  0.22297  0.27006  0.99396  1.0000
  C   C109      1.0  0.19581  0.00711  0.99173  1.0000
  C   C110      1.0  0.99967  0.04076  0.07277  1.0000
  H   H129      1.0  0.20966  0.01804  0.99971  1.0000
  H   H130      1.0  0.11918  0.17793  0.07093  1.0000
  H   H131      1.0  0.17106  0.99576  0.10555  1.0000
  C   C111      1.0  0.35046  0.22767  0.00229  1.0000
  H   H132      1.0  0.20507  0.12823  0.45232  1.0000
  C   C112      1.0  0.23348  0.12597  0.44722  1.0000
  C   C113      1.0  0.24905  0.10979  0.45021  1.0000
  H   H133      1.0  0.26242  0.99558  0.17372  1.0000
  C   C114      1.0  0.15669  0.25536  0.47114  1.0000
  H   H134      1.0  0.36271  0.21742  0.98891  1.0000
  C   C115      1.0  0.24348  0.24464  0.98720  1.0000
  H   H135      1.0  0.00035  0.03053  0.05750  1.0000
  H   H136      1.0  0.13094  0.03296  0.99370  1.0000
  C   C116      1.0  0.05194  0.01276  0.98379  1.0000
  C   C117      1.0  0.10988  0.02623  0.98269  1.0000
  Fe  Fe17      1.0  0.29044  0.27527  0.55259  1.0000
  S   S33       1.0  0.30832  0.30021  0.53488  1.0000
  S   S34       1.0  0.26278  0.25338  0.52915  1.0000
  Fe  Fe18      1.0  0.30591  0.28671  0.61479  1.0000
  C   C118      1.0  0.35317  0.22930  0.59070  1.0000
  S   S35       1.0  0.30803  0.27949  0.66195  1.0000
  H   H137      1.0  0.22721  0.24996  0.60892  1.0000
  C   C119      1.0  0.29058  0.01058  0.48571  1.0000
  Fe  Fe19      1.0  0.35492  0.29817  0.56605  1.0000
  S   S36       1.0  0.41122  0.30612  0.55075  1.0000
  S   S37       1.0  0.25660  0.28739  0.58742  1.0000
  S   S38       1.0  0.33901  0.27240  0.58163  1.0000
  Fe  Fe20      1.0  0.19986  0.27729  0.86491  1.0000
  S   S39       1.0  0.17811  0.30199  0.88216  1.0000
  S   S40       1.0  0.22773  0.25602  0.89105  1.0000
  Fe  Fe21      1.0  0.18173  0.28777  0.80258  1.0000
  H   H138      1.0  0.22470  0.00682  0.95156  1.0000
  S   S41       1.0  0.18018  0.28348  0.75436  1.0000
  H   H139      1.0  0.20656  0.22095  0.64967  1.0000
  H   H140      1.0  0.03541  0.00064  0.94579  1.0000
  Fe  Fe22      1.0  0.13114  0.29848  0.85191  1.0000
  S   S42       1.0  0.07429  0.30512  0.86913  1.0000
  S   S43       1.0  0.23130  0.28983  0.82948  1.0000
  S   S44       1.0  0.15152  0.27305  0.83639  1.0000
  C   C120      1.0  0.02764  0.29023  0.83027  1.0000
  C   C121      1.0  0.03148  0.29828  0.85656  1.0000
  H   H141      1.0  0.38192  0.23298  0.62970  1.0000
  H   H142      1.0  0.05140  0.28740  0.81739  1.0000
  C   C122      1.0  0.26101  0.23625  0.67213  1.0000
  C   C123      1.0  0.27250  0.28176  0.68754  1.0000
  C   C124      1.0  0.27990  0.27822  0.71631  1.0000
  C   C125      1.0  0.25218  0.27900  0.73712  1.0000
  C   C126      1.0  0.21656  0.28317  0.72933  1.0000
  C   C127      1.0  0.20920  0.28672  0.70055  1.0000
  C   C128      1.0  0.23700  0.28618  0.67980  1.0000
  H   H143      1.0  0.37761  0.22828  0.57783  1.0000
  H   H144      1.0  0.21060  0.25308  0.64458  1.0000
  H   H145      1.0  0.18175  0.28998  0.69431  1.0000
  H   H146      1.0  0.23086  0.28908  0.65783  1.0000
  C   C129      1.0  0.45514  0.29859  0.56104  1.0000
  H   H147      1.0  0.16697  0.26198  0.51378  1.0000
  C   C130      1.0  0.46026  0.28661  0.58270  1.0000
  H   H148      1.0  0.25269  0.31128  0.75901  1.0000
  H   H149      1.0  0.43697  0.28136  0.59336  1.0000
  C   C131      1.0  0.22349  0.26406  0.94908  1.0000
  C   C132      1.0  0.23196  0.25187  0.92836  1.0000
  C   C133      1.0  0.24598  0.23602  0.93735  1.0000
  H   H150      1.0  0.27539  0.22483  0.68064  1.0000
  H   H151      1.0  0.25267  0.22649  0.92157  1.0000
  H   H152      1.0  0.03577  0.00735  0.89900  1.0000
  H   H153      1.0  0.00278  0.30775  0.89352  1.0000
  N   N7        1.0  0.18653  0.29617  0.50710  1.0000
  Fe  Fe23      1.0  0.27702  0.31222  0.57118  1.0000
  H   H154      1.0  0.42409  0.25258  0.90907  1.0000
  C   C134      1.0  0.36964  0.24862  0.96833  1.0000
  S   S45       1.0  0.15783  0.31295  0.81638  1.0000
  C   C135      1.0  0.35552  0.23194  0.61993  1.0000
  N   N8        1.0  0.09283  0.00644  0.90974  1.0000
  H   H155      1.0  0.31117  0.25304  0.96652  1.0000
  H   H156      1.0  0.24619  0.20816  0.64142  1.0000
  H   H157      1.0  0.22221  0.21936  0.61384  1.0000
  C   C136      1.0  0.36645  0.25688  0.90949  1.0000
  C   C137      1.0  0.23154  0.22022  0.63622  1.0000
  C   C138      1.0  0.33642  0.25297  0.95485  1.0000
  H   H158      1.0  0.00586  0.31916  0.79222  1.0000
  C   C139      1.0  0.32406  0.23380  0.63654  1.0000
  H   H159      1.0  0.28974  0.31670  0.66741  1.0000
  H   H160      1.0  0.36504  0.25989  0.88699  1.0000
  H   H161      1.0  0.31749  0.22730  0.55494  1.0000
  H   H162      1.0  0.21270  0.27628  0.94262  1.0000
  H   H163      1.0  0.20228  0.27872  0.54043  1.0000
  H   H164      1.0  0.12920  0.00805  0.87353  1.0000
  H   H165      1.0  0.23504  0.23777  0.68421  1.0000
  C   C140      1.0  0.28774  0.23052  0.59424  1.0000
  H   H166      1.0  0.25819  0.27605  0.75912  1.0000
  H   H167      1.0  0.05936  0.02677  0.89328  1.0000
  S   S46       1.0  0.32455  0.31236  0.60083  1.0000
  C   C141      1.0  0.25143  0.23236  0.96652  1.0000
  H   H168      1.0  0.42784  0.24523  0.95916  1.0000
  C   C142      1.0  0.31933  0.22867  0.57787  1.0000
  H   H169      1.0  0.26226  0.23048  0.58302  1.0000
  C   C143      1.0  0.06202  0.01273  0.89223  1.0000
  C   C144      1.0  0.28938  0.99544  0.50170  1.0000
  H   H170      1.0  0.27699  0.24756  0.67750  1.0000
  N   N9        1.0  0.25507  0.23494  0.64095  1.0000
  C   C145      1.0  0.28906  0.23294  0.62417  1.0000
  H   H171      1.0  0.32800  0.23632  0.65887  1.0000
  H   H172      1.0  0.25307  0.26169  0.63375  1.0000
  H   H173      1.0  0.12781  0.02642  0.89573  1.0000
  C   C146      1.0  0.23550  0.25053  0.63161  1.0000
  H   H174      1.0  0.30722  0.27470  0.72252  1.0000
  H   H175      1.0  0.37672  0.99959  0.52641  1.0000
  C   C147      1.0  0.22935  0.26047  0.97823  1.0000
  H   H176      1.0  0.13439  0.30886  0.50747  1.0000
  C   C148      1.0  0.23300  0.32165  0.76401  1.0000
  H   H177      1.0  0.25157  0.32247  0.97646  1.0000
  Fe  Fe24      1.0  0.20600  0.31430  0.84495  1.0000
  H   H178      1.0  0.47528  0.30934  0.63132  1.0000
  H   H179      1.0  0.14032  0.02482  0.94454  1.0000
  H   H180      1.0  0.06545  0.00906  0.86941  1.0000
  H   H181      1.0  0.30893  0.25993  0.91603  1.0000
  H   H182      1.0  0.15546  0.28615  0.54213  1.0000
  H   H183      1.0  0.17048  0.32104  0.52219  1.0000
  H   H184      1.0  0.28796  0.99592  0.52470  1.0000
  C   C149      1.0  0.08823  0.01209  0.93964  1.0000
  H   H185      1.0  0.22959  0.32143  0.78756  1.0000
  C   C150      1.0  0.23625  0.23330  0.48612  1.0000
  C   C151      1.0  0.11491  0.02140  0.95427  1.0000
  C   C152      1.0  0.05657  0.00791  0.95533  1.0000
  C   C153      1.0  0.49568  0.28166  0.59100  1.0000
  H   H186      1.0  0.31108  0.09156  0.48988  1.0000
  H   H187      1.0  0.26210  0.22009  0.97289  1.0000
  C   C154      1.0  0.39962  0.25274  0.92200  1.0000
  H   H188      1.0  0.24607  0.31808  0.91302  1.0000
  C   C155      1.0  0.12673  0.01237  0.89604  1.0000
  C   C156      1.0  0.18366  0.28979  0.53679  1.0000
  H   H189      1.0  0.16741  0.31862  0.48473  1.0000
  C   C157      1.0  0.48222  0.32111  0.62095  1.0000
  C   C158      1.0  0.33489  0.25697  0.92589  1.0000
  C   C159      1.0  0.20428  0.00070  0.96436  1.0000
  H   H190      1.0  0.15127  0.00722  0.90701  1.0000
  C   C160      1.0  0.45656  0.99350  0.48739  1.0000
  C   C161      1.0  0.48589  0.30520  0.54741  1.0000
  C   C162      1.0  0.00014  0.30174  0.87300  1.0000
  H   H191      1.0  0.24289  0.28925  0.50383  1.0000
  H   H192      1.0  0.19147  0.29958  0.55255  1.0000
  H   H193      1.0  0.21474  0.31352  0.95786  1.0000
  C   C163      1.0  0.17548  0.28374  0.48541  1.0000
  C   C164      1.0  0.40139  0.24857  0.95096  1.0000
  C   C165      1.0  0.25423  0.24838  0.49258  1.0000
  H   H194      1.0  0.48228  0.31435  0.53047  1.0000
  H   H195      1.0  0.29001  0.02260  0.49666  1.0000
  C   C166      1.0  0.22481  0.30064  0.50202  1.0000
  H   H196      1.0  0.28532  0.31683  0.71920  1.0000
  C   C167      1.0  0.49160  0.99991  0.48868  1.0000
  H   H197      1.0  0.23406  0.31013  0.51772  1.0000
  C   C168      1.0  0.16364  0.31180  0.50518  1.0000
  H   H198      1.0  0.20656  0.31829  0.75444  1.0000
  C   C169      1.0  0.16617  0.26684  0.49231  1.0000
  H   H199      1.0  0.22854  0.22492  0.50324  1.0000
  Fe  Fe25      1.0  0.16011  0.53245  0.38161  1.0000
  S   S47       1.0  0.11911  0.55389  0.38062  1.0000
  S   S48       1.0  0.14974  0.51110  0.41383  1.0000
  Fe  Fe26      1.0  0.19405  0.54427  0.32396  1.0000
  S   S49       1.0  0.15501  0.56630  0.31963  1.0000
  S   S50       1.0  0.23930  0.53827  0.29178  1.0000
  Fe  Fe27      1.0  0.16548  0.57014  0.36631  1.0000
  S   S51       1.0  0.17012  0.59588  0.38742  1.0000
  Fe  Fe28      1.0  0.11253  0.54811  0.33443  1.0000
  S   S52       1.0  0.05920  0.54334  0.31250  1.0000
  S   S53       1.0  0.20723  0.54906  0.37028  1.0000
  S   S54       1.0  0.15100  0.52575  0.33568  1.0000
  Fe  Fe29      1.0  0.36048  0.54456  0.10323  1.0000
  S   S55       1.0  0.31485  0.52603  0.10723  1.0000
  S   S56       1.0  0.41650  0.53888  0.12106  1.0000
  Fe  Fe30      1.0  0.31178  0.57185  0.07779  1.0000
  S   S57       1.0  0.26304  0.55549  0.07928  1.0000
  S   S58       1.0  0.31493  0.59906  0.06273  1.0000
  Fe  Fe31      1.0  0.28136  0.54821  0.12342  1.0000
  S   S59       1.0  0.23643  0.54999  0.15717  1.0000
  Fe  Fe32      1.0  0.30028  0.53464  0.06273  1.0000
  S   S60       1.0  0.27725  0.51591  0.03050  1.0000
  S   S61       1.0  0.32779  0.56598  0.12273  1.0000
  S   S62       1.0  0.34808  0.55174  0.05796  1.0000
  C   C170      1.0  0.27601  0.61248  0.06308  1.0000
  C   C171      1.0  0.24113  0.60593  0.06398  1.0000
  C   C172      1.0  0.21068  0.61688  0.06197  1.0000
  C   C173      1.0  0.21478  0.63448  0.06005  1.0000
  C   C174      1.0  0.24966  0.64105  0.05978  1.0000
  C   C175      1.0  0.28015  0.63007  0.06098  1.0000
  H   H200      1.0  0.23757  0.59242  0.06530  1.0000
  H   H201      1.0  0.18378  0.61168  0.06189  1.0000
  H   H202      1.0  0.20307  0.55417  0.45053  1.0000
  H   H203      1.0  0.30705  0.63523  0.06009  1.0000
  C   C176      1.0  0.45800  0.55183  0.07701  1.0000
  C   C177      1.0  0.45765  0.54382  0.10356  1.0000
  C   C178      1.0  0.49103  0.55693  0.06484  1.0000
  H   H204      1.0  0.43279  0.55419  0.06602  1.0000
  C   C179      1.0  0.17650  0.55852  0.44181  1.0000
  H   H205      1.0  0.10454  0.56240  0.44191  1.0000
  C   C180      1.0  0.04130  0.50947  0.41423  1.0000
  C   C181      1.0  0.21679  0.62400  0.16621  1.0000
  H   H206      1.0  0.25316  0.65457  0.05809  1.0000
  H   H207      1.0  0.04075  0.56709  0.35808  1.0000
  C   C182      1.0  0.23901  0.54296  0.25471  1.0000
  C   C183      1.0  0.26974  0.53872  0.23805  1.0000
  C   C184      1.0  0.27003  0.54142  0.20834  1.0000
  C   C185      1.0  0.23933  0.54821  0.19486  1.0000
  C   C186      1.0  0.20881  0.55271  0.21156  1.0000
  C   C187      1.0  0.20871  0.55022  0.24131  1.0000
  H   H208      1.0  0.29337  0.53313  0.24819  1.0000
  H   H209      1.0  0.29368  0.53781  0.19582  1.0000
  H   H210      1.0  0.18488  0.55799  0.20143  1.0000
  H   H211      1.0  0.18483  0.55352  0.25378  1.0000
  C   C188      1.0  0.20540  0.60977  0.37823  1.0000
  C   C189      1.0  0.20498  0.62625  0.38946  1.0000
  C   C190      1.0  0.23261  0.63762  0.38253  1.0000
  C   C191      1.0  0.26096  0.63258  0.36432  1.0000
  C   C192      1.0  0.26166  0.61600  0.35348  1.0000
  C   C193      1.0  0.23387  0.60469  0.36018  1.0000
  H   H212      1.0  0.18315  0.63025  0.40356  1.0000
  H   H213      1.0  0.24627  0.63673  0.30654  1.0000
  H   H214      1.0  0.28357  0.61193  0.33952  1.0000
  H   H215      1.0  0.23462  0.59201  0.35153  1.0000
  H   H216      1.0  0.16562  0.48805  0.14502  1.0000
  C   C194      1.0  0.47636  0.58585  0.12422  1.0000
  H   H217      1.0  0.12167  0.48590  0.45130  1.0000
  C   C195      1.0  0.22113  0.55565  0.00776  1.0000
  S   S63       1.0  0.29522  0.64664  0.35341  1.0000
  H   H218      1.0  0.21699  0.56231  0.02842  1.0000
  C   C196      1.0  0.16192  0.50526  0.44920  1.0000
  C   C197      1.0  0.14310  0.49209  0.46261  1.0000
  C   C198      1.0  0.47469  0.64399  0.34713  1.0000
  H   H219      1.0  0.25713  0.58287  0.20193  1.0000
  C   C199      1.0  0.21584  0.62168  0.19629  1.0000
  H   H220      1.0  0.41160  0.63270  0.37449  1.0000
  H   H221      1.0  0.49073  0.53392  0.13763  1.0000
  C   C200      1.0  0.11731  0.51469  0.20914  1.0000
  H   H222      1.0  0.40798  0.57592  0.10451  1.0000
  H   H223      1.0  0.03136  0.49399  0.45090  1.0000
  C   C201      1.0  0.46689  0.59691  0.10138  1.0000
  H   H224      1.0  0.06989  0.50602  0.41293  1.0000
  C   C202      1.0  0.10203  0.51872  0.23567  1.0000
  H   H225      1.0  0.27361  0.37627  0.01040  1.0000
  C   C203      1.0  0.12366  0.51906  0.25979  1.0000
  H   H226      1.0  0.12424  0.49307  0.16337  1.0000
  H   H227      1.0  0.43463  0.58384  0.05631  1.0000
  H   H228      1.0  0.29195  0.55010  0.00579  1.0000
  H   H229      1.0  0.40221  0.59216  0.13131  1.0000
  H   H230      1.0  0.21843  0.49316  0.19119  1.0000
  H   H231      1.0  0.22904  0.60526  0.23178  1.0000
  N   N10       1.0  0.15475  0.56784  0.46353  1.0000
  H   H232      1.0  0.18269  0.62552  0.11490  1.0000
  H   H233      1.0  0.11172  0.52237  0.28023  1.0000
  H   H234      1.0  0.25118  0.65241  0.14958  1.0000
  H   H235      1.0  0.23109  0.54256  0.01255  1.0000
  H   H236      1.0  0.33333  0.52615  0.98904  1.0000
  H   H237      1.0  0.20499  0.48018  0.42238  1.0000
  H   H238      1.0  0.43997  0.60577  0.04812  1.0000
  H   H239      1.0  0.30431  0.56946  0.98896  1.0000
  H   H240      1.0  0.04328  0.52592  0.37772  1.0000
  H   H241      1.0  0.20522  0.50911  0.23101  1.0000
  H   H242      1.0  0.26337  0.48378  0.39748  1.0000
  C   C204      1.0  0.26207  0.47578  0.41624  1.0000
  S   S64       1.0  0.17568  0.64770  0.05767  1.0000
  H   H243      1.0  0.39961  0.64377  0.29643  1.0000
  C   C205      1.0  0.01947  0.50272  0.43558  1.0000
  C   C206      1.0  0.17538  0.65641  0.27306  1.0000
  H   H244      1.0  0.11611  0.53844  0.46508  1.0000
  H   H245      1.0  0.17754  0.51591  0.27629  1.0000
  H   H246      1.0  0.22987  0.63433  0.27109  1.0000
  C   C207      1.0  0.23330  0.61081  0.14984  1.0000
  C   C208      1.0  0.18991  0.51296  0.46396  1.0000
  N   N11       1.0  0.20462  0.65489  0.29438  1.0000
  N   N12       1.0  0.17052  0.50709  0.17753  1.0000
  H   H247      1.0  0.15866  0.48066  0.18091  1.0000
  H   H248      1.0  0.25956  0.58616  0.14973  1.0000
  C   C209      1.0  0.40235  0.58967  0.10801  1.0000
  C   C210      1.0  0.29164  0.45737  0.45068  1.0000
  H   H249      1.0  0.17753  0.52005  0.13721  1.0000
  H   H250      1.0  0.09942  0.51469  0.19105  1.0000
  H   H251      1.0  0.49109  0.56345  0.04458  1.0000
  C   C211      1.0  0.22153  0.63768  0.29320  1.0000
  H   H252      1.0  0.39590  0.59792  0.05495  1.0000
  C   C212      1.0  0.22916  0.47375  0.43033  1.0000
  C   C213      1.0  0.15400  0.49156  0.16621  1.0000
  N   N13       1.0  0.42891  0.60023  0.09260  1.0000
  H   H253      1.0  0.17066  0.53358  0.16732  1.0000
  H   H254      1.0  0.31883  0.46929  0.41533  1.0000
  H   H255      1.0  0.13333  0.52262  0.15256  1.0000
  H   H256      1.0  0.21061  0.65802  0.33963  1.0000
  H   H257      1.0  0.22469  0.51550  0.18545  1.0000
  H   H258      1.0  0.18216  0.56661  0.42294  1.0000
  C   C214      1.0  0.24615  0.59429  0.19212  1.0000
  H   H259      1.0  0.15907  0.64486  0.12116  1.0000
  H   H260      1.0  0.25451  0.62387  0.99928  1.0000
  H   H261      1.0  0.15053  0.62682  0.14355  1.0000
  H   H262      1.0  0.31682  0.45148  0.45738  1.0000
  H   H263      1.0  0.07332  0.52178  0.23769  1.0000
  C   C215      1.0  0.15498  0.51098  0.20599  1.0000
  C   C216      1.0  0.17625  0.51137  0.23111  1.0000
  H   H264      1.0  0.46936  0.63303  0.36009  1.0000
  H   H265      1.0  0.43619  0.62699  0.08572  1.0000
  H   H266      1.0  0.28328  0.56964  0.02380  1.0000
  H   H267      1.0  0.35834  0.64838  0.31587  1.0000
  C   C217      1.0  0.21046  0.50418  0.17767  1.0000
  H   H268      1.0  0.24218  0.63967  0.11893  1.0000
  C   C218      1.0  0.17441  0.58350  0.47057  1.0000
  C   C219      1.0  0.01744  0.55057  0.32715  1.0000
  C   C220      1.0  0.18434  0.65163  0.17193  1.0000
  H   H269      1.0  0.28036  0.59564  0.00313  1.0000
  H   H270      1.0  0.12319  0.58218  0.43286  1.0000
  C   C221      1.0  0.14668  0.64473  0.27310  1.0000
  N   N14       1.0  0.20088  0.63911  0.15193  1.0000
  C   C222      1.0  0.16255  0.52137  0.15780  1.0000
  H   H271      1.0  0.20528  0.52277  0.45377  1.0000
  C   C223      1.0  0.24763  0.59620  0.16269  1.0000
  H   H272      1.0  0.20391  0.63097  0.21052  1.0000
  C   C224      1.0  0.01594  0.56227  0.34944  1.0000
  H   H273      1.0  0.16255  0.54712  0.43396  1.0000
  H   H274      1.0  0.20330  0.62772  0.30137  1.0000
  H   H275      1.0  0.16997  0.64779  0.32971  1.0000
  C   C225      1.0  0.23353  0.58253  0.98535  1.0000
  C   C226      1.0  0.40081  0.63390  0.35250  1.0000
  C   C227      1.0  0.02633  0.52068  0.39444  1.0000
  H   H276      1.0  0.16173  0.64612  0.18435  1.0000
  H   H277      1.0  0.37420  0.59230  0.10066  1.0000
  N   N15       1.0  0.24681  0.56485  0.98918  1.0000
  C   C228      1.0  0.42477  0.59683  0.06171  1.0000
  C   C229      1.0  0.23031  0.60698  0.20889  1.0000
  C   C230      1.0  0.25842  0.45506  0.46563  1.0000
  H   H278      1.0  0.22153  0.50165  0.15593  1.0000
  H   H279      1.0  0.19412  0.55426  0.99788  1.0000
  C   C231      1.0  0.27251  0.49463  0.98422  1.0000
  C   C232      1.0  0.28317  0.56354  0.00248  1.0000
  H   H280      1.0  0.42211  0.62132  0.12104  1.0000
  H   H281      1.0  0.23500  0.61161  0.12688  1.0000
  C   C233      1.0  0.22934  0.64788  0.13542  1.0000
  C   C234      1.0  0.11845  0.64603  0.25344  1.0000
  C   C235      1.0  0.16062  0.51534  0.25753  1.0000
  C   C236      1.0  0.17207  0.63383  0.13215  1.0000
  C   C237      1.0  0.11951  0.57316  0.45091  1.0000
  C   C238      1.0  0.29101  0.50828  0.99620  1.0000
  H   H282      1.0  0.20485  0.65675  0.18674  1.0000
  C   C239      1.0  0.41899  0.61820  0.09810  1.0000
  N   N16       1.0  0.40755  0.65088  0.34012  1.0000
  H   H283      1.0  0.14564  0.63465  0.28868  1.0000
  H   H284      1.0  0.45655  0.57873  0.13600  1.0000
  H   H285      1.0  0.39029  0.62109  0.09213  1.0000
  H   H286      1.0  0.09669  0.63701  0.25406  1.0000
  C   C240      1.0  0.49074  0.54025  0.11718  1.0000
  C   C241      1.0  0.22727  0.46363  0.45472  1.0000
  H   H287      1.0  0.41285  0.62367  0.33897  1.0000
  H   H288      1.0  0.37121  0.63146  0.35455  1.0000
  H   H289      1.0  0.23624  0.42313  0.46809  1.0000
  H   H290      1.0  0.25106  0.48876  0.99628  1.0000
  H   H291      1.0  0.23193  0.65029  0.39126  1.0000
  C   C242      1.0  0.29324  0.46761  0.42637  1.0000
  H   H292      1.0  0.25169  0.34866  0.99713  1.0000
  C   C243      1.0  0.25367  0.59679  0.99392  1.0000
  H   H293      1.0  0.10166  0.57948  0.46702  1.0000
  C   C244      1.0  0.23917  0.61323  0.99172  1.0000
  H   H294      1.0  0.20118  0.46270  0.46513  1.0000
  C   C245      1.0  0.44645  0.65422  0.33518  1.0000
  H   H295      1.0  0.17737  0.59188  0.45155  1.0000
  C   C246      1.0  0.18909  0.65780  0.32319  1.0000
  C   C247      1.0  0.38710  0.65210  0.31301  1.0000
  H   H296      1.0  0.20250  0.58062  0.47788  1.0000
  C   C248      1.0  0.26665  0.37385  0.98841  1.0000
  H   H297      1.0  0.49081  0.61363  0.06963  1.0000
  C   C249      1.0  0.49581  0.60501  0.08709  1.0000
  Fe  Fe33      1.0  0.17305  0.46598  0.56669  1.0000
  S   S65       1.0  0.15850  0.44142  0.54611  1.0000
  S   S66       1.0  0.18906  0.48965  0.54162  1.0000
  Fe  Fe34      1.0  0.17115  0.45049  0.62754  1.0000
  S   S67       1.0  0.15658  0.42495  0.61044  1.0000
  S   S68       1.0  0.16991  0.45180  0.67630  1.0000
  Fe  Fe35      1.0  0.19822  0.42937  0.57655  1.0000
  S   S69       1.0  0.24360  0.41137  0.56233  1.0000
  Fe  Fe36      1.0  0.11781  0.43924  0.58195  1.0000
  S   S70       1.0  0.06253  0.42761  0.57562  1.0000
  S   S71       1.0  0.21559  0.45407  0.59530  1.0000
  S   S72       1.0  0.12956  0.46464  0.60075  1.0000
  Fe  Fe37      1.0  0.29720  0.45495  0.81436  1.0000
  S   S73       1.0  0.30845  0.42759  0.82476  1.0000
  S   S74       1.0  0.29546  0.46296  0.76743  1.0000
  Fe  Fe38      1.0  0.30731  0.46604  0.87785  1.0000
  S   S75       1.0  0.31860  0.43913  0.89168  1.0000
  S   S76       1.0  0.32042  0.48924  0.90543  1.0000
  Fe  Fe39      1.0  0.35335  0.43697  0.85224  1.0000
  S   S77       1.0  0.40844  0.42365  0.85309  1.0000
  Fe  Fe40      1.0  0.27268  0.43223  0.86273  1.0000
  S   S78       1.0  0.22851  0.41360  0.87378  1.0000
  S   S79       1.0  0.34479  0.46397  0.83971  1.0000
  S   S80       1.0  0.25858  0.45944  0.85118  1.0000
  C   C250      1.0  0.44897  0.43402  0.84407  1.0000
  C   C251      1.0  0.48127  0.45801  0.82485  1.0000
  C   C252      1.0  0.44853  0.45025  0.83216  1.0000
  C   C253      1.0  0.02320  0.43768  0.71688  1.0000
  H   H298      1.0  0.42304  0.45674  0.82817  1.0000
  C   C254      1.0  0.30865  0.49602  0.94065  1.0000
  C   C255      1.0  0.32707  0.50974  0.95256  1.0000
  H   H299      1.0  0.38984  0.42968  0.79242  1.0000
  C   C256      1.0  0.28145  0.48843  0.95679  1.0000
  H   H300      1.0  0.34812  0.51576  0.94029  1.0000
  H   H301      1.0  0.26690  0.47793  0.94801  1.0000
  C   C257      1.0  0.23301  0.39224  0.86287  1.0000
  C   C258      1.0  0.20253  0.38184  0.86320  1.0000
  C   C259      1.0  0.20589  0.36450  0.85643  1.0000
  C   C260      1.0  0.23998  0.35739  0.84994  1.0000
  C   C261      1.0  0.27026  0.36785  0.84910  1.0000
  C   C262      1.0  0.26681  0.38520  0.85540  1.0000
  H   H302      1.0  0.17629  0.38722  0.86895  1.0000
  H   H303      1.0  0.18230  0.35660  0.85687  1.0000
  H   H304      1.0  0.29675  0.36246  0.84413  1.0000
  H   H305      1.0  0.29051  0.39303  0.85530  1.0000
  C   C263      1.0  0.01858  0.45489  0.59165  1.0000
  C   C264      1.0  0.02080  0.43774  0.58447  1.0000
  H   H306      1.0  0.40246  0.41772  0.71674  1.0000
  H   H307      1.0  0.04273  0.46241  0.59128  1.0000
  H   H308      1.0  0.48553  0.49626  0.92500  1.0000
  H   H309      1.0  0.41180  0.44997  0.92576  1.0000
  C   C265      1.0  0.12307  0.53054  0.50793  1.0000
  C   C266      1.0  0.27245  0.32609  0.67794  1.0000
  C   C267      1.0  0.20606  0.45401  0.70091  1.0000
  C   C268      1.0  0.24029  0.45960  0.69261  1.0000
  C   C269      1.0  0.26733  0.46216  0.71321  1.0000
  C   C270      1.0  0.26080  0.45888  0.74226  1.0000
  C   C271      1.0  0.22687  0.45288  0.75046  1.0000
  C   C272      1.0  0.19962  0.45063  0.72994  1.0000
  H   H310      1.0  0.24560  0.46239  0.67043  1.0000
  H   H311      1.0  0.29330  0.46695  0.70660  1.0000
  H   H312      1.0  0.22134  0.45037  0.77270  1.0000
  H   H313      1.0  0.17326  0.44637  0.73668  1.0000
  C   C273      1.0  0.23981  0.38915  0.56554  1.0000
  C   C274      1.0  0.27091  0.37875  0.56208  1.0000
  C   C275      1.0  0.26862  0.36099  0.56342  1.0000
  C   C276      1.0  0.23503  0.35349  0.56772  1.0000
  C   C277      1.0  0.20396  0.36390  0.57126  1.0000
  C   C278      1.0  0.20635  0.38165  0.57042  1.0000
  H   H314      1.0  0.29689  0.38445  0.55828  1.0000
  H   H315      1.0  0.29271  0.35312  0.56057  1.0000
  H   H316      1.0  0.17787  0.35820  0.57456  1.0000
  H   H317      1.0  0.18220  0.38951  0.57301  1.0000
  H   H318      1.0  0.42931  0.49553  0.94289  1.0000
  H   H319      1.0  0.44575  0.41832  0.77769  1.0000
  C   C279      1.0  0.24314  0.45510  0.51579  1.0000
  C   C280      1.0  0.22881  0.43097  0.48697  1.0000
  C   C281      1.0  0.45488  0.33144  0.60968  1.0000
  H   H320      1.0  0.26746  0.56296  0.94633  1.0000
  H   H321      1.0  0.43749  0.49856  0.89155  1.0000
  H   H322      1.0  0.19716  0.34747  0.90774  1.0000
  H   H323      1.0  0.20090  0.43614  0.48376  1.0000
  C   C282      1.0  0.24719  0.33832  0.72211  1.0000
  H   H324      1.0  0.25465  0.33743  0.63860  1.0000
  C   C283      1.0  0.16022  0.54778  0.53769  1.0000
  C   C284      1.0  0.49461  0.48340  0.92115  1.0000
  H   H325      1.0  0.21522  0.35882  0.66230  1.0000
  H   H326      1.0  0.21859  0.35085  0.78924  1.0000
  H   H327      1.0  0.21535  0.46037  0.51260  1.0000
  H   H328      1.0  0.04445  0.41971  0.63628  1.0000
  H   H329      1.0  0.34622  0.44641  0.72739  1.0000
  C   C285      1.0  0.17892  0.49490  0.50563  1.0000
  C   C286      1.0  0.25272  0.33774  0.66169  1.0000
  C   C287      1.0  0.19817  0.50787  0.49206  1.0000
  H   H330      1.0  0.42683  0.32767  0.61125  1.0000
  H   H331      1.0  0.22243  0.55516  0.95084  1.0000
  H   H332      1.0  0.43381  0.48066  0.86843  1.0000
  H   H333      1.0  0.24240  0.44776  0.53605  1.0000
  C   C288      1.0  0.28154  0.34155  0.76548  1.0000
  H   H334      1.0  0.28696  0.42808  0.51939  1.0000
  C   C289      1.0  0.37844  0.43896  0.77686  1.0000
  C   C290      1.0  0.49413  0.43136  0.76844  1.0000
  H   H335      1.0  0.35898  0.41771  0.73443  1.0000
  H   H336      1.0  0.09937  0.43852  0.70926  1.0000
  C   C291      1.0  0.01684  0.34853  0.84373  1.0000
  H   H337      1.0  0.20982  0.35978  0.71381  1.0000
  H   H338      1.0  0.26114  0.46605  0.51904  1.0000
  N   N17       1.0  0.06478  0.43173  0.67430  1.0000
  C   C292      1.0  0.09316  0.42746  0.69560  1.0000
  C   C293      1.0  0.06178  0.41695  0.65503  1.0000
  C   C294      1.0  0.07754  0.44635  0.65754  1.0000
  C   C295      1.0  0.02590  0.33690  0.82250  1.0000
  H   H339      1.0  0.38759  0.48503  0.93979  1.0000
  C   C296      1.0  0.22547  0.32572  0.96582  1.0000
  H   H340      1.0  0.28084  0.34211  0.78920  1.0000
  H   H341      1.0  0.13642  0.47696  0.50074  1.0000
  S   S81       1.0  0.24686  0.33545  0.84424  1.0000
  H   H342      1.0  0.08528  0.41661  0.70923  1.0000
  H   H343      1.0  0.11946  0.42387  0.68515  1.0000
  H   H344      1.0  0.00107  0.43878  0.64639  1.0000
  H   H345      1.0  0.15972  0.59105  0.48713  1.0000
  H   H346      1.0  0.08862  0.41299  0.64596  1.0000
  H   H347      1.0  0.22703  0.42232  0.50569  1.0000
  H   H348      1.0  0.08054  0.45775  0.67116  1.0000
  H   H349      1.0  0.10441  0.44359  0.64765  1.0000
  H   H350      1.0  0.05026  0.40592  0.66642  1.0000
  H   H351      1.0  0.26413  0.39371  0.92422  1.0000
  H   H352      1.0  0.37819  0.46296  0.90857  1.0000
  C   C297      1.0  0.26148  0.38369  0.93997  1.0000
  H   H353      1.0  0.28322  0.32776  0.93113  1.0000
  H   H354      1.0  0.22804  0.36440  0.75988  1.0000
  C   C298      1.0  0.41755  0.48288  0.93969  1.0000
  N   N18       1.0  0.43032  0.47461  0.91297  1.0000
  C   C299      1.0  0.42374  0.48632  0.88877  1.0000
  H   H355      1.0  0.37623  0.46251  0.73722  1.0000
  C   C300      1.0  0.16481  0.55926  0.51529  1.0000
  C   C301      1.0  0.46964  0.47055  0.91460  1.0000
  H   H356      1.0  0.17599  0.34836  0.94224  1.0000
  C   C302      1.0  0.13954  0.53342  0.53398  1.0000
  H   H357      1.0  0.05412  0.33371  0.81808  1.0000
  C   C303      1.0  0.23042  0.34976  0.67513  1.0000
  C   C304      1.0  0.45690  0.42886  0.76610  1.0000
  H   H358      1.0  0.03827  0.35448  0.85549  1.0000
  C   C305      1.0  0.31862  0.51573  0.98021  1.0000
  H   H359      1.0  0.17332  0.54982  0.55795  1.0000
  C   C306      1.0  0.46375  0.34620  0.59524  1.0000
  N   N19       1.0  0.23054  0.33807  0.94230  1.0000
  C   C307      1.0  0.29031  0.43605  0.49994  1.0000
  C   C308      1.0  0.37560  0.44930  0.72900  1.0000
  H   H360      1.0  0.31119  0.44547  0.50524  1.0000
  C   C309      1.0  0.24923  0.55615  0.96125  1.0000
  H   H361      1.0  0.30161  0.33140  0.75982  1.0000
  C   C310      1.0  0.38844  0.41990  0.73751  1.0000
  H   H362      1.0  0.48298  0.41320  0.85824  1.0000
  N   N20       1.0  0.24516  0.33835  0.75365  1.0000
  C   C311      1.0  0.40763  0.45954  0.90863  1.0000
  C   C312      1.0  0.27029  0.38668  0.96824  1.0000
  H   H363      1.0  0.05895  0.44978  0.63991  1.0000
  H   H364      1.0  0.38693  0.44888  0.70701  1.0000
  C   C313      1.0  0.15153  0.48692  0.49061  1.0000
  S   S82       1.0  0.23021  0.33125  0.56750  1.0000
  C   C314      1.0  0.24903  0.36788  0.93178  1.0000
  C   C315      1.0  0.21965  0.35137  0.76551  1.0000
  H   H365      1.0  0.21945  0.51412  0.50345  1.0000
  C   C316      1.0  0.19482  0.34078  0.92845  1.0000
  H   H366      1.0  0.41326  0.45347  0.88773  1.0000
  H   H367      1.0  0.48074  0.47040  0.81502  1.0000
  C   C317      1.0  0.48445  0.45413  0.90891  1.0000
  N   N21       1.0  0.25557  0.44445  0.49155  1.0000
  H   H368      1.0  0.04470  0.43569  0.73207  1.0000
  H   H369      1.0  0.24276  0.36620  0.90959  1.0000
  H   H370      1.0  0.39792  0.40993  0.75260  1.0000
  C   C318      1.0  0.22759  0.35014  0.70488  1.0000
  C   C319      1.0  0.25398  0.35798  0.98043  1.0000
  H   H371      1.0  0.39430  0.48932  0.88614  1.0000
  H   H372      1.0  0.34873  0.43698  0.77617  1.0000
  C   C320      1.0  0.45135  0.45425  0.73731  1.0000
  H   H373      1.0  0.43638  0.46373  0.72543  1.0000
  C   C321      1.0  0.48240  0.42575  0.84899  1.0000
  C   C322      1.0  0.43438  0.44012  0.75015  1.0000
  C   C323      1.0  0.24459  0.35456  0.95171  1.0000
  H   H374      1.0  0.18197  0.57572  0.96642  1.0000
  H   H375      1.0  0.42436  0.47492  0.95857  1.0000
  H   H376      1.0  0.26071  0.33850  0.90266  1.0000
  N   N22       1.0  0.39497  0.43723  0.74820  1.0000
  H   H377      1.0  0.38255  0.45183  0.78564  1.0000
  H   H378      1.0  0.13705  0.52426  0.55109  1.0000
  C   C324      1.0  0.02896  0.43607  0.68703  1.0000
  H   H379      1.0  0.18156  0.56998  0.51956  1.0000
  H   H380      1.0  0.29218  0.35376  0.75755  1.0000
  H   H381      1.0  0.26011  0.54292  0.96349  1.0000
  C   C325      1.0  0.12781  0.54180  0.48529  1.0000
  H   H382      1.0  0.27991  0.39900  0.97447  1.0000
  C   C326      1.0  0.14876  0.55656  0.48826  1.0000
  H   H383      1.0  0.19146  0.34939  0.75811  1.0000
  C   C327      1.0  0.26974  0.32629  0.70765  1.0000
  H   H384      1.0  0.44231  0.35393  0.58589  1.0000
  H   H385      1.0  0.15756  0.60463  0.96309  1.0000
  H   H386      1.0  0.46785  0.44361  0.90309  1.0000
  C   C328      1.0  0.19874  0.58589  0.97361  1.0000
  C   C329      1.0  0.18450  0.60239  0.97156  1.0000
  C   C330      1.0  0.48860  0.45671  0.74011  1.0000
  H   H387      1.0  0.10789  0.51909  0.50489  1.0000
  C   C331      1.0  0.25619  0.33026  0.92147  1.0000
  H   H388      1.0  0.18141  0.32865  0.92368  1.0000
  C   C332      1.0  0.99865  0.43941  0.66927  1.0000
  H   H389      1.0  0.30085  0.42744  0.48296  1.0000
  C   C333      1.0  0.99867  0.32870  0.80797  1.0000
  H   H390      1.0  0.20567  0.33060  0.98196  1.0000
  H   H391      1.0  0.19313  0.62877  0.98003  1.0000
  C   C334      1.0  0.20455  0.61601  0.98090  1.0000
  Fe  Fe41      1.0  0.27727  0.70831  0.39234  1.0000
  S   S83       1.0  0.32542  0.68995  0.39181  1.0000
  S   S84       1.0  0.25124  0.71547  0.43565  1.0000
  Fe  Fe42      1.0  0.27015  0.70708  0.32674  1.0000
  S   S85       1.0  0.31748  0.68909  0.32213  1.0000
  S   S86       1.0  0.23304  0.71615  0.29054  1.0000
  Fe  Fe43      1.0  0.29378  0.67528  0.35958  1.0000
  C   C335      1.0  0.11782  0.65904  0.23336  1.0000
  Fe  Fe44      1.0  0.34596  0.70502  0.35448  1.0000
  S   S87       1.0  0.40443  0.71239  0.34301  1.0000
  S   S88       1.0  0.24456  0.69228  0.36240  1.0000
  S   S89       1.0  0.29964  0.72436  0.35674  1.0000
  Fe  Fe45      1.0  0.19741  0.71241  0.05949  1.0000
  S   S90       1.0  0.15062  0.69703  0.04426  1.0000
  S   S91       1.0  0.22898  0.73294  0.03542  1.0000
  Fe  Fe46      1.0  0.19254  0.69738  0.12107  1.0000
  S   S92       1.0  0.14422  0.68188  0.10972  1.0000
  S   S93       1.0  0.22449  0.69071  0.16153  1.0000
  Fe  Fe47      1.0  0.17554  0.67554  0.06976  1.0000
  H   H392      1.0  0.13622  0.77627  0.45430  1.0000
  Fe  Fe48      1.0  0.12298  0.70453  0.08542  1.0000
  S   S94       1.0  0.06614  0.71702  0.08578  1.0000
  S   S95       1.0  0.22447  0.69014  0.08163  1.0000
  S   S96       1.0  0.16909  0.72081  0.10002  1.0000
  H   H393      1.0  0.39418  0.67673  0.35132  1.0000
  C   C336      1.0  0.02283  0.70788  0.08087  1.0000
  H   H394      1.0  0.23269  0.90460  0.47065  1.0000
  H   H395      1.0  0.40774  0.66355  0.38058  1.0000
  H   H396      1.0  0.04169  0.68195  0.08090  1.0000
  C   C337      1.0  0.23251  0.70979  0.25418  1.0000
  C   C338      1.0  0.20453  0.71590  0.23643  1.0000
  C   C339      1.0  0.20197  0.71053  0.20785  1.0000
  C   C340      1.0  0.22731  0.69886  0.19674  1.0000
  C   C341      1.0  0.25531  0.69277  0.21449  1.0000
  C   C342      1.0  0.25816  0.69832  0.24291  1.0000
  H   H397      1.0  0.18462  0.72483  0.24488  1.0000
  H   H398      1.0  0.18030  0.71536  0.19453  1.0000
  H   H399      1.0  0.27522  0.68383  0.20609  1.0000
  H   H400      1.0  0.28015  0.69371  0.25611  1.0000
  C   C343      1.0  0.44909  0.70692  0.35489  1.0000
  C   C344      1.0  0.49145  0.69144  0.38551  1.0000
  C   C345      1.0  0.45558  0.69614  0.37806  1.0000
  H   H401      1.0  0.27379  0.89393  0.45953  1.0000
  H   H402      1.0  0.43299  0.69145  0.39027  1.0000
  C   C346      1.0  0.17387  0.66953  0.25231  1.0000
  H   H403      1.0  0.23911  0.77754  0.45095  1.0000
  C   C347      1.0  0.15555  0.75535  0.43036  1.0000
  C   C348      1.0  0.15579  0.76960  0.00120  1.0000
  H   H404      1.0  0.20017  0.98221  0.08549  1.0000
  H   H405      1.0  0.05249  0.75335  0.00661  1.0000
  C   C349      1.0  0.24179  0.73440  0.45556  1.0000
  C   C350      1.0  0.24613  0.75062  0.44414  1.0000
  C   C351      1.0  0.10818  0.73146  0.01126  1.0000
  H   H406      1.0  0.25666  0.75200  0.42275  1.0000
  H   H407      1.0  0.12790  0.76350  0.05595  1.0000
  C   C352      1.0  0.23605  0.76512  0.46025  1.0000
  H   H408      1.0  0.19399  0.67920  0.25093  1.0000
  H   H409      1.0  0.21813  0.65917  0.12398  1.0000
  N   N23       1.0  0.10807  0.74946  0.02006  1.0000
  H   H410      1.0  0.25395  0.97004  0.10499  1.0000
  H   H411      1.0  0.14948  0.71393  0.44792  1.0000
  C   C353      1.0  0.12767  0.75036  0.04752  1.0000
  C   C354      1.0  0.15967  0.73785  0.42828  1.0000
  C   C355      1.0  0.29082  0.97951  0.45790  1.0000
  C   C356      1.0  0.14550  0.67075  0.23280  1.0000
  H   H412      1.0  0.47452  0.72180  0.32214  1.0000
  H   H413      1.0  0.17000  0.76996  0.02120  1.0000
  H   H414      1.0  0.30052  0.72494  0.99327  1.0000
  H   H415      1.0  0.17285  0.66283  0.16044  1.0000
  H   H416      1.0  0.05749  0.74785  0.04319  1.0000
  C   C357      1.0  0.26237  0.90364  0.47440  1.0000
  H   H417      1.0  0.03936  0.72339  0.19363  1.0000
  H   H418      1.0  0.09673  0.72324  0.02826  1.0000
  H   H419      1.0  0.06868  0.76879  0.03123  1.0000
  C   C358      1.0  0.01325  0.71823  0.18835  1.0000
  H   H420      1.0  0.11478  0.74246  0.06427  1.0000
  H   H421      1.0  0.23239  0.96225  0.13683  1.0000
  C   C359      1.0  0.12434  0.75981  0.99714  1.0000
  H   H422      1.0  0.17433  0.67023  0.32434  1.0000
  H   H423      1.0  0.17574  0.73232  0.41110  1.0000
  H   H424      1.0  0.29073  0.96750  0.44690  1.0000
  H   H425      1.0  0.36368  0.66143  0.36522  1.0000
  C   C360      1.0  0.47911  0.71335  0.33998  1.0000
  H   H426      1.0  0.40445  0.97230  0.46520  1.0000
  C   C361      1.0  0.25222  0.75577  0.99502  1.0000
  H   H427      1.0  0.14496  0.68101  0.21737  1.0000
  H   H428      1.0  0.22378  0.68048  0.29296  1.0000
  H   H429      1.0  0.16839  0.76335  0.41464  1.0000
  C   C362      1.0  0.01827  0.69037  0.07959  1.0000
  C   C363      1.0  0.24542  0.97347  0.12707  1.0000
  N   N24       1.0  0.22028  0.98836  0.12737  1.0000
  H   H430      1.0  0.13628  0.72684  0.00644  1.0000
  H   H431      1.0  0.13267  0.97861  0.01107  1.0000
  H   H432      1.0  0.38104  0.99179  0.47567  1.0000
  C   C364      1.0  0.38728  0.97844  0.48195  1.0000
  C   C365      1.0  0.12131  0.75242  0.47512  1.0000
  C   C366      1.0  0.23082  0.74150  0.00019  1.0000
  C   C367      1.0  0.00730  0.71199  0.16113  1.0000
  H   H433      1.0  0.43732  0.67774  0.31138  1.0000
  H   H434      1.0  0.15615  0.74555  0.04536  1.0000
  H   H435      1.0  0.27357  0.91614  0.46829  1.0000
  H   H436      1.0  0.21875  0.92810  0.98921  1.0000
  C   C368      1.0  0.39264  0.66370  0.36015  1.0000
  H   H437      1.0  0.27073  0.97578  0.13900  1.0000
  H   H438      1.0  0.38559  0.66522  0.30448  1.0000
  C   C369      1.0  0.13689  0.76263  0.45346  1.0000
  C   C370      1.0  0.14488  0.72750  0.44914  1.0000
  C   C371      1.0  0.07006  0.75515  0.02542  1.0000
  H   H439      1.0  0.26664  0.76137  0.01249  1.0000
  H   H440      1.0  0.17472  0.97351  0.11444  1.0000
  H   H441      1.0  0.24680  0.66591  0.26874  1.0000
  H   H442      1.0  0.02877  0.71237  0.14518  1.0000
  C   C372      1.0  0.15263  0.98487  0.99803  1.0000
  C   C373      1.0  0.45709  0.66869  0.31950  1.0000
  H   H443      1.0  0.36099  0.97182  0.48174  1.0000
  H   H444      1.0  0.09157  0.72929  0.99206  1.0000
  C   C374      1.0  0.23398  0.66723  0.29013  1.0000
  C   C375      1.0  0.12578  0.73461  0.47216  1.0000
  C   C376      1.0  0.49361  0.67235  0.31523  1.0000
  C   C377      1.0  0.19018  0.98475  0.10755  1.0000
  H   H445      1.0  0.49600  0.68288  0.40318  1.0000
  H   H446      1.0  0.25598  0.66549  0.30606  1.0000
  H   H447      1.0  0.08393  0.78309  0.48101  1.0000
  H   H448      1.0  0.09568  0.66015  0.21838  1.0000
  H   H449      1.0  0.14921  0.99064  0.15025  1.0000
  Fe  Fe49      1.0  0.35328  0.95301  0.59976  1.0000
  S   S97       1.0  0.30814  0.97195  0.59093  1.0000
  S   S98       1.0  0.40883  0.96421  0.60602  1.0000
  Fe  Fe50      1.0  0.30336  0.92299  0.59217  1.0000
  S   S99       1.0  0.25571  0.93969  0.58160  1.0000
  S   S100      1.0  0.30245  0.89433  0.59366  1.0000
  Fe  Fe51      1.0  0.29437  0.95483  0.55461  1.0000
  S   S101      1.0  0.28814  0.96019  0.50686  1.0000
  Fe  Fe52      1.0  0.27394  0.95514  0.61906  1.0000
  S   S102      1.0  0.22898  0.96248  0.65069  1.0000
  S   S103      1.0  0.34088  0.93661  0.56252  1.0000
  S   S104      1.0  0.32029  0.93768  0.63067  1.0000
  Fe  Fe53      1.0  0.16218  0.82171  0.58493  1.0000
  S   S105      1.0  0.21322  0.80589  0.58277  1.0000
  S   S106      1.0  0.16019  0.85051  0.58546  1.0000
  Fe  Fe54      1.0  0.11278  0.79094  0.58544  1.0000
  S   S107      1.0  0.16132  0.77289  0.58507  1.0000
  S   S108      1.0  0.05721  0.77832  0.58194  1.0000
  Fe  Fe55      1.0  0.18620  0.79047  0.61707  1.0000
  S   S109      1.0  0.22186  0.78084  0.65359  1.0000
  Fe  Fe56      1.0  0.18446  0.78957  0.55095  1.0000
  H   H450      1.0  0.09773  0.98302  0.88668  1.0000
  S   S110      1.0  0.13592  0.80700  0.62048  1.0000
  S   S111      1.0  0.13518  0.80699  0.55029  1.0000
  Fe  Fe57      1.0  0.18222  0.95250  0.82079  1.0000
  S   S112      1.0  0.13214  0.93669  0.82190  1.0000
  S   S113      1.0  0.22601  0.95198  0.78593  1.0000
  Fe  Fe58      1.0  0.17334  0.96225  0.88521  1.0000
  S   S114      1.0  0.12369  0.94657  0.89049  1.0000
  C   C378      1.0  0.18677  0.98646  0.95349  1.0000
  Fe  Fe59      1.0  0.15357  0.92703  0.86375  1.0000
  S   S115      1.0  0.15119  0.89909  0.87417  1.0000
  Fe  Fe60      1.0  0.10675  0.95765  0.84845  1.0000
  S   S116      1.0  0.05150  0.97060  0.84304  1.0000
  S   S117      1.0  0.20455  0.94175  0.86171  1.0000
  S   S118      1.0  0.15540  0.97439  0.84411  1.0000
  Fe  Fe61      1.0  0.26762  0.78517  0.88399  1.0000
  S   S119      1.0  0.31565  0.80078  0.89586  1.0000
  S   S120      1.0  0.23872  0.76433  0.90937  1.0000
  Fe  Fe62      1.0  0.26630  0.79947  0.82188  1.0000
  S   S121      1.0  0.31537  0.81532  0.82948  1.0000
  S   S122      1.0  0.22786  0.80361  0.78420  1.0000
  Fe  Fe63      1.0  0.33931  0.79303  0.85338  1.0000
  S   S123      1.0  0.39617  0.78066  0.85043  1.0000
  Fe  Fe64      1.0  0.28820  0.82197  0.87111  1.0000
  S   S124      1.0  0.28895  0.84982  0.88305  1.0000
  S   S125      1.0  0.29207  0.77646  0.84224  1.0000
  S   S126      1.0  0.23831  0.80715  0.86287  1.0000
  C   C379      1.0  0.23678  0.75581  0.94460  1.0000
  H   H451      1.0  0.04938  0.75882  0.52036  1.0000
  C   C380      1.0  0.46461  0.93198  0.67931  1.0000
  C   C381      1.0  0.21540  0.74154  0.94978  1.0000
  N   N25       1.0  0.40467  0.97738  0.51036  1.0000
  C   C382      1.0  0.22221  0.87414  0.78929  1.0000
  H   H452      1.0  0.20096  0.73595  0.93231  1.0000
  C   C383      1.0  0.43968  0.79009  0.85293  1.0000
  C   C384      1.0  0.02255  0.94819  0.78068  1.0000
  C   C385      1.0  0.44377  0.80734  0.85840  1.0000
  H   H453      1.0  0.10799  0.75968  0.54589  1.0000
  H   H454      1.0  0.41998  0.81542  0.86107  1.0000
  H   H455      1.0  0.19531  0.78594  0.98217  1.0000
  C   C386      1.0  0.22759  0.84998  0.52309  1.0000
  N   N26       1.0  0.22318  0.85554  0.78485  1.0000
  H   H456      1.0  0.03630  0.93864  0.87158  1.0000
  H   H457      1.0  0.12443  0.74077  0.52927  1.0000
  H   H458      1.0  0.22463  0.72058  0.49270  1.0000
  H   H459      1.0  0.42712  0.92903  0.59132  1.0000
  H   H460      1.0  0.14983  0.75972  0.52608  1.0000
  H   H461      1.0  0.28137  0.85342  0.78923  1.0000
  C   C387      1.0  0.18990  0.88551  0.87411  1.0000
  C   C388      1.0  0.22499  0.89180  0.87237  1.0000
  C   C389      1.0  0.25517  0.88070  0.87479  1.0000
  C   C390      1.0  0.25052  0.86322  0.87823  1.0000
  C   C391      1.0  0.21545  0.85688  0.87889  1.0000
  C   C392      1.0  0.18528  0.86801  0.87712  1.0000
  H   H462      1.0  0.22891  0.90522  0.86991  1.0000
  H   H463      1.0  0.28225  0.88569  0.87434  1.0000
  H   H464      1.0  0.21153  0.84345  0.88173  1.0000
  H   H465      1.0  0.15821  0.86305  0.87854  1.0000
  H   H466      1.0  0.30816  0.86928  0.52152  1.0000
  H   H467      1.0  0.30427  0.74590  0.88418  1.0000
  C   C393      1.0  0.31074  0.90037  0.50796  1.0000
  H   H468      1.0  0.29863  0.91162  0.95674  1.0000
  C   C394      1.0  0.46166  0.98436  0.53644  1.0000
  C   C395      1.0  0.22341  0.78766  0.68967  1.0000
  C   C396      1.0  0.25215  0.78191  0.70701  1.0000
  C   C397      1.0  0.25416  0.78668  0.73590  1.0000
  C   C398      1.0  0.22712  0.79712  0.74792  1.0000
  C   C399      1.0  0.19836  0.80287  0.73060  1.0000
  C   C400      1.0  0.19661  0.79829  0.70162  1.0000
  H   H469      1.0  0.27296  0.77365  0.69801  1.0000
  H   H470      1.0  0.27642  0.78214  0.74888  1.0000
  H   H471      1.0  0.17734  0.81099  0.73963  1.0000
  H   H472      1.0  0.17430  0.80276  0.68863  1.0000
  C   C401      1.0  0.01246  0.78690  0.57711  1.0000
  N   N27       1.0  0.27088  0.89923  0.50436  1.0000
  H   H473      1.0  0.22503  0.87743  0.81225  1.0000
  H   H474      1.0  0.02717  0.81308  0.57708  1.0000
  C   C402      1.0  0.40815  0.95919  0.51802  1.0000
  C   C403      1.0  0.09370  0.98771  0.90879  1.0000
  C   C404      1.0  0.22846  0.95915  0.68821  1.0000
  C   C405      1.0  0.19547  0.96080  0.70331  1.0000
  C   C406      1.0  0.19401  0.95857  0.73315  1.0000
  C   C407      1.0  0.22570  0.95481  0.74828  1.0000
  C   C408      1.0  0.25863  0.95304  0.73314  1.0000
  C   C409      1.0  0.26004  0.95515  0.70331  1.0000
  H   H475      1.0  0.17090  0.96396  0.69186  1.0000
  H   H476      1.0  0.16849  0.95997  0.74443  1.0000
  H   H477      1.0  0.28334  0.95022  0.74463  1.0000
  H   H478      1.0  0.28568  0.95409  0.69211  1.0000
  C   C410      1.0  0.26235  0.88245  0.59216  1.0000
  C   C411      1.0  0.26496  0.86477  0.59470  1.0000
  C   C412      1.0  0.23381  0.85484  0.59336  1.0000
  C   C413      1.0  0.19977  0.86252  0.58920  1.0000
  C   C414      1.0  0.19705  0.88024  0.58742  1.0000
  C   C415      1.0  0.22814  0.89018  0.58898  1.0000
  H   H479      1.0  0.29124  0.85867  0.59741  1.0000
  H   H480      1.0  0.23627  0.84122  0.59496  1.0000
  H   H481      1.0  0.17076  0.88626  0.58436  1.0000
  H   H482      1.0  0.22549  0.90378  0.58748  1.0000
  H   H483      1.0  0.31689  0.88172  0.95791  1.0000
  C   C416      1.0  0.45042  0.95323  0.59976  1.0000
  C   C417      1.0  0.45191  0.93604  0.59280  1.0000
  C   C418      1.0  0.12190  0.75468  0.52646  1.0000
  C   C419      1.0  0.02471  0.79128  0.65954  1.0000
  C   C420      1.0  0.19117  0.84820  0.79915  1.0000
  C   C421      1.0  0.22211  0.85153  0.75405  1.0000
  C   C422      1.0  0.24757  0.84030  0.74063  1.0000
  C   C423      1.0  0.19371  0.85818  0.73678  1.0000
  C   C424      1.0  0.24462  0.83611  0.71182  1.0000
  C   C425      1.0  0.19091  0.85379  0.70802  1.0000
  C   C426      1.0  0.21626  0.84273  0.69560  1.0000
  H   H484      1.0  0.24461  0.88028  0.77743  1.0000
  H   H485      1.0  0.16523  0.85377  0.79131  1.0000
  H   H486      1.0  0.19027  0.83429  0.79554  1.0000
  H   H487      1.0  0.19167  0.85020  0.82258  1.0000
  H   H488      1.0  0.26912  0.83393  0.75216  1.0000
  H   H489      1.0  0.26340  0.82691  0.70239  1.0000
  H   H490      1.0  0.16840  0.85858  0.69544  1.0000
  H   H491      1.0  0.21342  0.83887  0.67356  1.0000
  C   C427      1.0  0.49038  0.96476  0.67312  1.0000
  C   C428      1.0  0.27802  0.90235  0.95336  1.0000
  H   H492      1.0  0.43436  0.97202  0.66644  1.0000
  H   H493      1.0  0.19976  0.88933  0.50394  1.0000
  C   C429      1.0  0.25380  0.91218  0.52320  1.0000
  H   H494      1.0  0.28388  0.93450  0.93055  1.0000
  H   H495      1.0  0.39704  0.72735  0.89016  1.0000
  S   S127      1.0  0.20787  0.78259  0.50667  1.0000
  H   H496      1.0  0.17371  0.92366  0.95151  1.0000
  H   H497      1.0  0.22808  0.94772  0.97127  1.0000
  H   H498      1.0  0.20821  0.74607  0.52122  1.0000
  H   H499      1.0  0.41184  0.94307  0.67121  1.0000
  H   H500      1.0  0.48191  0.97544  0.60698  1.0000
  H   H501      1.0  0.06461  0.73916  0.50569  1.0000
  C   C430      1.0  0.25657  0.88229  0.51117  1.0000
  H   H502      1.0  0.26398  0.92509  0.51861  1.0000
  C   C431      1.0  0.22737  0.87714  0.94524  1.0000
  C   C432      1.0  0.48569  0.92783  0.58809  1.0000
  C   C433      1.0  0.20463  0.86345  0.51568  1.0000
  C   C434      1.0  0.22181  0.76371  0.48808  1.0000
  H   H503      1.0  0.11554  0.72606  0.48809  1.0000
  C   C435      1.0  0.21879  0.87934  0.50959  1.0000
  H   H504      1.0  0.18695  0.94221  0.93287  1.0000
  C   C436      1.0  0.01075  0.96110  0.85433  1.0000
  C   C437      1.0  0.44078  0.98521  0.51123  1.0000
  H   H505      1.0  0.27210  0.85950  0.94980  1.0000
  H   H506      1.0  0.24643  0.94704  0.91886  1.0000
  H   H507      1.0  0.08440  0.78336  0.51911  1.0000
  C   C438      1.0  0.26478  0.85239  0.52473  1.0000
  C   C439      1.0  0.28874  0.88528  0.95437  1.0000
  H   H508      1.0  0.05181  0.94798  0.78276  1.0000
  H   H509      1.0  0.18822  0.92227  0.91478  1.0000
  H   H510      1.0  0.11323  0.76873  0.92599  1.0000
  C   C440      1.0  0.25536  0.93374  0.92341  1.0000
  H   H511      1.0  0.32236  0.76460  0.92331  1.0000
  H   H512      1.0  0.06807  0.98212  0.91653  1.0000
  C   C441      1.0  0.33917  0.71304  0.91886  1.0000
  H   H513      1.0  0.41612  0.95722  0.54061  1.0000
  C   C442      1.0  0.45329  0.96172  0.67117  1.0000
  C   C443      1.0  0.47112  0.77982  0.84958  1.0000
  N   N28       1.0  0.24314  0.90221  0.67639  1.0000
  C   C444      1.0  0.27964  0.90766  0.68531  1.0000
  C   C445      1.0  0.24682  0.88436  0.66680  1.0000
  C   C446      1.0  0.23195  0.91294  0.65194  1.0000
  C   C447      1.0  0.21530  0.90369  0.69917  1.0000
  C   C448      1.0  0.22215  0.91112  0.72611  1.0000
  C   C449      1.0  0.17952  0.89814  0.69431  1.0000
  C   C450      1.0  0.19479  0.91281  0.74673  1.0000
  C   C451      1.0  0.15237  0.89988  0.71510  1.0000
  C   C452      1.0  0.15999  0.90726  0.74125  1.0000
  H   H514      1.0  0.28971  0.90016  0.70380  1.0000
  H   H515      1.0  0.30003  0.90600  0.66784  1.0000
  H   H516      1.0  0.27955  0.92135  0.69080  1.0000
  H   H517      1.0  0.25216  0.87570  0.68507  1.0000
  H   H518      1.0  0.26963  0.88258  0.65135  1.0000
  H   H519      1.0  0.22236  0.87992  0.65556  1.0000
  H   H520      1.0  0.20641  0.90870  0.64210  1.0000
  H   H521      1.0  0.22741  0.92633  0.65860  1.0000
  H   H522      1.0  0.25291  0.91285  0.63479  1.0000
  H   H523      1.0  0.24811  0.91620  0.73160  1.0000
  H   H524      1.0  0.17215  0.89272  0.67409  1.0000
  H   H525      1.0  0.20040  0.91898  0.76683  1.0000
  H   H526      1.0  0.12511  0.89582  0.71068  1.0000
  H   H527      1.0  0.13877  0.90898  0.75713  1.0000
  C   C453      1.0  0.37994  0.98585  0.53117  1.0000
  C   C454      1.0  0.21830  0.74750  0.49973  1.0000
  H   H528      1.0  0.40480  0.74947  0.88746  1.0000
  H   H529      1.0  0.25989  0.90928  0.54580  1.0000
  N   N29       1.0  0.23151  0.92551  0.94471  1.0000
  C   C455      1.0  0.48286  0.96213  0.60166  1.0000
  C   C456      1.0  0.09908  0.77839  0.49992  1.0000
  H   H530      1.0  0.48669  0.91448  0.58301  1.0000
  C   C457      1.0  0.24166  0.90734  0.94736  1.0000
  C   C458      1.0  0.00178  0.93717  0.79681  1.0000
  C   C459      1.0  0.21639  0.89416  0.94383  1.0000
  C   C460      1.0  0.32557  0.73420  0.95479  1.0000
  C   C461      1.0  0.01087  0.94527  0.86767  1.0000
  C   C462      1.0  0.32495  0.70059  0.93668  1.0000
  H   H531      1.0  0.32446  0.68754  0.92967  1.0000
  N   N30       1.0  0.10214  0.75962  0.50029  1.0000
  H   H532      1.0  0.48142  0.82752  0.86474  1.0000
  H   H533      1.0  0.45103  0.97860  0.55552  1.0000
  H   H534      1.0  0.27153  0.77392  0.96400  1.0000
  H   H535      1.0  0.11624  0.98241  0.92185  1.0000
  C   C463      1.0  0.19344  0.92847  0.93558  1.0000
  S   S128      1.0  0.19995  0.97859  0.91926  1.0000
  H   H536      1.0  0.31878  0.89751  0.53035  1.0000
  H   H537      1.0  0.17559  0.86158  0.51537  1.0000
  H   H538      1.0  0.14721  0.96754  0.96272  1.0000
  H   H539      1.0  0.32574  0.89158  0.49340  1.0000
  H   H540      1.0  0.36702  0.76211  0.93902  1.0000
  H   H541      1.0  0.19624  0.88017  0.78251  1.0000
  H   H542      1.0  0.34963  0.70909  0.89833  1.0000
  H   H543      1.0  0.01509  0.92839  0.81134  1.0000
  C   C464      1.0  0.44049  0.94535  0.67383  1.0000
  H   H544      1.0  0.05397  0.78956  0.65908  1.0000
  N   N31       1.0  0.35398  0.74328  0.90764  1.0000
  C   C465      1.0  0.47876  0.81417  0.86046  1.0000
  C   C466      1.0  0.00513  0.80431  0.57562  1.0000
  H   H545      1.0  0.36219  0.77016  0.90384  1.0000
  H   H546      1.0  0.34408  0.75286  0.86537  1.0000
  H   H547      1.0  0.33620  0.73093  0.86909  1.0000
  H   H548      1.0  0.18818  0.89656  0.93893  1.0000
  C   C467      1.0  0.25612  0.84872  0.79927  1.0000
  H   H549      1.0  0.25688  0.85233  0.82214  1.0000
  H   H550      1.0  0.17278  0.86636  0.74566  1.0000
  C   C468      1.0  0.35116  0.76075  0.91915  1.0000
  C   C469      1.0  0.33373  0.74317  0.88048  1.0000
  C   C470      1.0  0.33951  0.73030  0.92720  1.0000
  H   H551      1.0  0.25703  0.83467  0.79914  1.0000
  H   H552      1.0  0.40890  0.73907  0.92141  1.0000
  H   H553      1.0  0.46841  0.76648  0.84527  1.0000
  H   H554      1.0  0.28235  0.84192  0.53119  1.0000
  H   H555      1.0  0.38972  0.98458  0.55344  1.0000
  H   H556      1.0  0.45452  0.91926  0.68136  1.0000
  H   H557      1.0  0.38201  0.95259  0.51545  1.0000
  H   H558      1.0  0.22389  0.91303  0.52106  1.0000
  C   C471      1.0  0.27924  0.86828  0.51906  1.0000
  C   C472      1.0  0.16069  0.97861  0.97049  1.0000
  H   H559      1.0  0.01553  0.76856  0.63612  1.0000
  C   C473      1.0  0.23594  0.93402  0.97253  1.0000
  C   C474      1.0  0.06483  0.75304  0.50215  1.0000
  C   C475      1.0  0.22796  0.73301  0.48351  1.0000
  H   H560      1.0  0.02196  0.96839  0.75013  1.0000
  C   C476      1.0  0.25521  0.76289  0.96747  1.0000
  H   H561      1.0  0.25556  0.92668  0.90292  1.0000
  C   C477      1.0  0.28917  0.97978  0.48788  1.0000
  C   C478      1.0  0.39282  0.73957  0.90146  1.0000
  C   C479      1.0  0.26351  0.87271  0.95007  1.0000
  C   C480      1.0  0.00563  0.95977  0.76249  1.0000
  H   H562      1.0  0.21639  0.83777  0.52838  1.0000
  H   H563      1.0  0.42885  0.95260  0.50444  1.0000
  H   H564      1.0  0.35245  0.98028  0.53090  1.0000
  H   H565      1.0  0.12633  0.78422  0.50006  1.0000
  C   C481      1.0  0.00292  0.77941  0.64665  1.0000
  H   H566      1.0  0.02604  0.81466  0.68254  1.0000
  H   H567      1.0  0.20797  0.86730  0.94136  1.0000
  H   H568      1.0  0.16842  0.78510  0.93428  1.0000
  C   C482      1.0  0.12469  0.76913  0.94716  1.0000
  H   H569      1.0  0.32044  0.91335  0.50325  1.0000
  H   H570      1.0  0.32467  0.74691  0.96314  1.0000
  C   C483      1.0  0.00889  0.80545  0.67256  1.0000
  H   H571      1.0  0.26444  0.93335  0.98000  1.0000
  H   H572      1.0  0.08516  0.75289  0.96474  1.0000
  C   C484      1.0  0.15563  0.77848  0.95181  1.0000
  C   C485      1.0  0.31099  0.70491  0.96338  1.0000
  C   C486      1.0  0.31155  0.72164  0.97247  1.0000
  C   C487      1.0  0.10901  0.76003  0.96948  1.0000
  H   H573      1.0  0.29956  0.69531  0.97709  1.0000
  H   H574      1.0  0.19625  0.72335  0.98071  1.0000
  C   C488      1.0  0.21244  0.73441  0.97731  1.0000
  C   C489      1.0  0.17082  0.77889  0.97883  1.0000
  C   C490      1.0  0.49671  0.99070  0.53746  1.0000
  H   H575      1.0  0.49830  0.97771  0.67017  1.0000
  H   H576      1.0  0.04951  0.75589  0.48233  1.0000
  Fe  Fe65      1.0  0.67388  0.02957  0.38101  1.0000
  S   S129      1.0  0.65421  0.05493  0.39683  1.0000
  S   S130      1.0  0.68254  0.00570  0.40841  1.0000
  Fe  Fe66      1.0  0.68112  0.04286  0.31857  1.0000
  S   S131      1.0  0.66186  0.06907  0.33097  1.0000
  S   S132      1.0  0.68718  0.03476  0.27173  1.0000
  Fe  Fe67      1.0  0.69800  0.06571  0.36895  1.0000
  S   S133      1.0  0.73326  0.08543  0.38967  1.0000
  Fe  Fe68      1.0  0.61979  0.05596  0.35754  1.0000
  S   S134      1.0  0.56286  0.06747  0.35875  1.0000
  S   S135      1.0  0.72018  0.04020  0.35519  1.0000
  S   S136      1.0  0.63652  0.02993  0.34318  1.0000
  Fe  Fe69      1.0  0.79436  0.17702  0.33971  1.0000
  S   S137      1.0  0.75257  0.19798  0.34167  1.0000
  S   S138      1.0  0.78029  0.15119  0.32231  1.0000
  Fe  Fe70      1.0  0.85677  0.20093  0.35190  1.0000
  S   S139      1.0  0.81922  0.22395  0.35371  1.0000
  S   S140      1.0  0.91547  0.19849  0.36751  1.0000
  Fe  Fe71      1.0  0.78198  0.20785  0.37994  1.0000
  S   S141      1.0  0.74829  0.21456  0.42002  1.0000
  Fe  Fe72      1.0  0.79178  0.21261  0.31504  1.0000
  S   S142      1.0  0.76310  0.22748  0.27941  1.0000
  S   S143      1.0  0.82049  0.18530  0.38014  1.0000
  S   S144      1.0  0.83258  0.19117  0.31128  1.0000
  Fe  Fe73      1.0  0.80811  0.07451  0.07027  1.0000
  S   S145      1.0  0.76461  0.05787  0.08764  1.0000
  S   S146      1.0  0.80244  0.10132  0.05305  1.0000
  Fe  Fe74      1.0  0.86876  0.04785  0.08058  1.0000
  S   S147      1.0  0.82952  0.02946  0.09959  1.0000
  S   S148      1.0  0.92583  0.03906  0.06825  1.0000
  Fe  Fe75      1.0  0.79364  0.03694  0.06271  1.0000
  S   S149      1.0  0.76558  0.01703  0.03576  1.0000
  Fe  Fe76      1.0  0.80421  0.05185  0.12292  1.0000
  S   S150      1.0  0.79443  0.05685  0.17066  1.0000
  S   S151      1.0  0.83387  0.05420  0.04297  1.0000
  S   S152      1.0  0.84663  0.06969  0.10624  1.0000
  Fe  Fe77      1.0  0.68389  0.21919  0.05252  1.0000
  S   S153      1.0  0.63719  0.20121  0.04838  1.0000
  S   S154      1.0  0.69857  0.24117  0.02220  1.0000
  Fe  Fe78      1.0  0.70107  0.20739  0.11418  1.0000
  S   S155      1.0  0.65573  0.18897  0.11419  1.0000
  S   S156      1.0  0.74582  0.20721  0.14808  1.0000
  Fe  Fe79      1.0  0.67396  0.18194  0.07011  1.0000
  S   S157      1.0  0.66938  0.15358  0.06251  1.0000
  Fe  Fe80      1.0  0.62127  0.20906  0.09275  1.0000
  S   S158      1.0  0.56335  0.21244  0.11048  1.0000
  S   S159      1.0  0.72174  0.19914  0.07079  1.0000
  S   S160      1.0  0.66558  0.22830  0.09620  1.0000
  C   C491      1.0  0.77649  0.01054  0.00028  1.0000
  H   H577      1.0  0.75838  0.24429  0.33441  1.0000
  H   H578      1.0  0.71910  0.27517  0.32136  1.0000
  H   H579      1.0  0.54138  0.13119  0.39757  1.0000
  H   H580      1.0  0.67630  0.28644  0.35093  1.0000
  N   N32       1.0  0.70464  0.25308  0.34579  1.0000
  C   C492      1.0  0.85225  0.27088  0.04347  1.0000
  H   H581      1.0  0.77849  0.23772  0.03071  1.0000
  H   H582      1.0  0.53868  0.20783  0.05134  1.0000
  C   C493      1.0  0.58903  0.05112  0.28273  1.0000
  C   C494      1.0  0.76525  0.11559  0.05733  1.0000
  C   C495      1.0  0.73010  0.11002  0.06261  1.0000
  C   C496      1.0  0.70100  0.12183  0.06425  1.0000
  C   C497      1.0  0.70688  0.13927  0.06122  1.0000
  C   C498      1.0  0.74212  0.14483  0.05655  1.0000
  C   C499      1.0  0.77107  0.13301  0.05429  1.0000
  H   H583      1.0  0.72521  0.09665  0.06489  1.0000
  H   H584      1.0  0.67377  0.11743  0.06781  1.0000
  H   H585      1.0  0.74698  0.15820  0.05402  1.0000
  H   H586      1.0  0.79817  0.13741  0.05006  1.0000
  C   C500      1.0  0.96608  0.04752  0.08204  1.0000
  H   H587      1.0  0.71033  0.21959  0.47317  1.0000
  C   C501      1.0  0.96543  0.06072  0.10184  1.0000
  H   H588      1.0  0.65085  0.29968  0.39332  1.0000
  H   H589      1.0  0.93974  0.06599  0.10913  1.0000
  C   C502      1.0  0.74433  0.23256  0.44304  1.0000
  C   C503      1.0  0.76037  0.24802  0.43668  1.0000
  H   H590      1.0  0.75644  0.01757  0.40913  1.0000
  C   C504      1.0  0.72300  0.23142  0.46797  1.0000
  H   H591      1.0  0.77691  0.24920  0.41773  1.0000
  C   C505      1.0  0.51973  0.21098  0.09448  1.0000
  H   H592      1.0  0.64592  0.28372  0.43849  1.0000
  C   C506      1.0  0.75615  0.22039  0.24373  1.0000
  C   C507      1.0  0.72882  0.22819  0.22713  1.0000
  C   C508      1.0  0.72395  0.22371  0.19827  1.0000
  C   C509      1.0  0.74701  0.21165  0.18537  1.0000
  C   C510      1.0  0.77414  0.20378  0.20204  1.0000
  C   C511      1.0  0.77838  0.20792  0.23107  1.0000
  H   H593      1.0  0.71154  0.23791  0.23653  1.0000
  H   H594      1.0  0.70319  0.23004  0.18578  1.0000
  H   H595      1.0  0.79238  0.19454  0.19233  1.0000
  H   H596      1.0  0.79971  0.20189  0.24336  1.0000
  C   C512      1.0  0.96017  0.20159  0.35398  1.0000
  C   C513      1.0  0.95593  0.12774  0.33083  1.0000
  C   C514      1.0  0.96690  0.20719  0.32620  1.0000
  H   H597      1.0  0.85380  0.15236  0.29758  1.0000
  H   H598      1.0  0.94442  0.21010  0.31226  1.0000
  C   C515      1.0  0.71709  0.04125  0.24389  1.0000
  C   C516      1.0  0.71347  0.03419  0.21655  1.0000
  C   C517      1.0  0.73668  0.03878  0.19385  1.0000
  C   C518      1.0  0.76403  0.05046  0.19825  1.0000
  C   C519      1.0  0.76738  0.05766  0.22551  1.0000
  C   C520      1.0  0.74410  0.05313  0.24816  1.0000
  H   H599      1.0  0.69282  0.02495  0.21294  1.0000
  H   H600      1.0  0.73370  0.03310  0.17309  1.0000
  H   H601      1.0  0.78844  0.06669  0.22924  1.0000
  H   H602      1.0  0.74735  0.05867  0.26900  1.0000
  C   C521      1.0  0.74858  0.10313  0.37037  1.0000
  C   C522      1.0  0.74278  0.10468  0.34113  1.0000
  C   C523      1.0  0.75370  0.11932  0.32663  1.0000
  C   C524      1.0  0.76959  0.13268  0.34135  1.0000
  C   C525      1.0  0.77592  0.13106  0.37053  1.0000
  C   C526      1.0  0.76592  0.11619  0.38489  1.0000
  H   H603      1.0  0.72975  0.09465  0.32968  1.0000
  H   H604      1.0  0.74890  0.12047  0.30399  1.0000
  H   H605      1.0  0.78842  0.14122  0.38202  1.0000
  H   H606      1.0  0.77080  0.11497  0.40750  1.0000
  C   C527      1.0  0.52479  0.03830  0.34794  1.0000
  H   H607      1.0  0.52143  0.17026  0.13386  1.0000
  C   C528      1.0  0.53355  0.03722  0.26582  1.0000
  H   H608      1.0  0.55071  0.03171  0.34701  1.0000
  N   N33       1.0  0.57369  0.03677  0.26674  1.0000
  H   H609      1.0  0.71645  0.25636  0.30095  1.0000
  H   H610      1.0  0.71492  0.14803  0.41287  1.0000
  H   H611      1.0  0.65624  0.02707  0.45616  1.0000
  C   C529      1.0  0.88386  0.15205  0.29987  1.0000
  C   C530      1.0  0.56917  0.12695  0.39400  1.0000
  H   H612      1.0  0.94350  0.11551  0.33157  1.0000
  C   C531      1.0  0.67381  0.00174  0.44532  1.0000
  N   N34       1.0  0.76693  0.03509  0.44313  1.0000
  N   N35       1.0  0.89524  0.14362  0.32671  1.0000
  H   H613      1.0  0.60943  0.15807  0.10505  1.0000
  H   H614      1.0  0.70202  0.12661  0.40860  1.0000
  C   C532      1.0  0.61205  0.10429  0.38396  1.0000
  H   H615      1.0  0.80234  0.25384  0.99080  1.0000
  C   C533      1.0  0.52316  0.05558  0.35422  1.0000
  H   H616      1.0  0.58172  0.06352  0.27291  1.0000
  C   C534      1.0  0.67429  0.27867  0.36976  1.0000
  H   H617      1.0  0.99745  0.07709  0.12789  1.0000
  H   H618      1.0  0.64059  0.16405  0.41785  1.0000
  C   C535      1.0  0.59737  0.13852  0.39472  1.0000
  C   C536      1.0  0.73272  0.04464  0.43755  1.0000
  H   H619      1.0  0.66746  0.11062  0.38063  1.0000
  H   H620      1.0  0.88790  0.16690  0.35040  1.0000
  C   C537      1.0  0.90670  0.00673  0.00278  1.0000
  H   H621      1.0  0.82852  0.22233  0.46597  1.0000
  C   C538      1.0  0.70361  0.26332  0.31920  1.0000
  H   H622      1.0  0.75364  0.07491  0.02952  1.0000
  C   C539      1.0  0.68289  0.14484  0.36206  1.0000
  N   N36       1.0  0.79708  0.23942  0.08721  1.0000
  C   C540      1.0  0.80483  0.22117  0.08224  1.0000
  C   C541      1.0  0.81238  0.24378  0.11537  1.0000
  C   C542      1.0  0.75727  0.24225  0.08910  1.0000
  C   C543      1.0  0.81188  0.24939  0.06322  1.0000
  C   C544      1.0  0.83898  0.26174  0.06675  1.0000
  H   H623      1.0  0.83448  0.21857  0.08020  1.0000
  H   H624      1.0  0.79436  0.21321  0.09999  1.0000
  H   H625      1.0  0.79196  0.21652  0.06251  1.0000
  H   H626      1.0  0.84215  0.24131  0.11602  1.0000
  H   H627      1.0  0.80036  0.23600  0.13280  1.0000
  H   H628      1.0  0.80647  0.25724  0.12094  1.0000
  H   H629      1.0  0.75010  0.25597  0.09057  1.0000
  H   H630      1.0  0.74300  0.23725  0.07030  1.0000
  H   H631      1.0  0.74536  0.23583  0.10799  1.0000
  H   H632      1.0  0.85030  0.26462  0.08725  1.0000
  N   N37       1.0  0.66463  0.14503  0.39028  1.0000
  H   H633      1.0  0.71727  0.03942  0.99146  1.0000
  H   H634      1.0  0.76709  0.27401  0.44951  1.0000
  C   C545      1.0  0.69108  0.13961  0.41232  1.0000
  H   H635      1.0  0.80080  0.05600  0.43166  1.0000
  C   C546      1.0  0.64041  0.11570  0.38455  1.0000
  H   H636      1.0  0.78166  0.03550  0.39848  1.0000
  H   H637      1.0  0.66377  0.14856  0.34481  1.0000
  H   H638      1.0  0.88451  0.11990  0.34767  1.0000
  H   H639      1.0  0.81209  0.03099  0.99074  1.0000
  H   H640      1.0  0.61915  0.05040  0.28321  1.0000
  H   H641      1.0  0.87706  0.01488  0.04009  1.0000
  H   H642      1.0  0.61758  0.09099  0.37977  1.0000
  H   H643      1.0  0.57973  0.05114  0.30531  1.0000
  C   C547      1.0  0.73339  0.26099  0.47974  1.0000
  H   H644      1.0  0.89565  0.14540  0.28100  1.0000
  H   H645      1.0  0.55465  0.10091  0.38796  1.0000
  H   H646      1.0  0.69401  0.13212  0.35655  1.0000
  H   H647      1.0  0.58970  0.15152  0.39898  1.0000
  H   H648      1.0  0.58102  0.02617  0.22460  1.0000
  H   H649      1.0  0.52913  0.01355  0.24232  1.0000
  H   H650      1.0  0.80373  0.01913  0.41868  1.0000
  H   H651      1.0  0.89002  0.14817  0.37175  1.0000
  C   C548      1.0  0.68652  0.26147  0.37038  1.0000
  H   H652      1.0  0.78799  0.05556  0.46822  1.0000
  C   C549      1.0  0.72003  0.24569  0.98872  1.0000
  H   H653      1.0  0.87283  0.28029  0.04655  1.0000
  H   H654      1.0  0.98514  0.19348  0.39321  1.0000
  C   C550      1.0  0.79920  0.24681  0.03511  1.0000
  C   C551      1.0  0.79557  0.04732  0.44991  1.0000
  C   C552      1.0  0.57651  0.10988  0.38862  1.0000
  H   H655      1.0  0.57975  0.00942  0.26839  1.0000
  H   H656      1.0  0.55244  0.13171  0.08886  1.0000
  H   H657      1.0  0.57902  0.04888  0.22596  1.0000
  C   C553      1.0  0.51525  0.20829  0.06527  1.0000
  C   C554      1.0  0.65373  0.16285  0.39651  1.0000
  H   H658      1.0  0.71052  0.03586  0.43264  1.0000
  H   H659      1.0  0.55487  0.17002  0.04207  1.0000
  C   C555      1.0  0.75474  0.26211  0.45482  1.0000
  C   C556      1.0  0.58654  0.02089  0.28066  1.0000
  N   N38       1.0  0.55747  0.15861  0.08407  1.0000
  C   C557      1.0  0.58022  0.16078  0.10973  1.0000
  C   C558      1.0  0.56375  0.14107  0.07366  1.0000
  C   C559      1.0  0.57055  0.17054  0.06211  1.0000
  H   H660      1.0  0.61897  0.03739  0.23745  1.0000
  H   H661      1.0  0.75684  0.26160  0.35913  1.0000
  C   C560      1.0  0.51828  0.16177  0.08938  1.0000
  C   C561      1.0  0.88018  0.15340  0.35113  1.0000
  H   H662      1.0  0.57442  0.01958  0.30230  1.0000
  H   H663      1.0  0.57866  0.17407  0.11769  1.0000
  H   H664      1.0  0.57212  0.15209  0.12718  1.0000
  C   C562      1.0  0.66200  0.01447  0.46410  1.0000
  H   H665      1.0  0.71500  0.06383  0.01753  1.0000
  H   H666      1.0  0.59327  0.13807  0.07087  1.0000
  H   H667      1.0  0.56878  0.18376  0.07002  1.0000
  H   H668      1.0  0.92563  0.01702  0.00414  1.0000
  H   H669      1.0  0.59939  0.16792  0.05635  1.0000
  C   C563      1.0  0.99816  0.06698  0.11241  1.0000
  H   H670      1.0  0.73965  0.09658  0.99510  1.0000
  H   H671      1.0  0.80151  0.08211  0.99942  1.0000
  H   H672      1.0  0.67760  0.17129  0.39670  1.0000
  N   N39       1.0  0.76712  0.10775  0.16074  1.0000
  C   C564      1.0  0.76606  0.09985  0.13209  1.0000
  C   C565      1.0  0.80454  0.10536  0.17162  1.0000
  C   C566      1.0  0.74175  0.09847  0.17946  1.0000
  C   C567      1.0  0.75692  0.12598  0.16078  1.0000
  C   C568      1.0  0.75681  0.13531  0.18661  1.0000
  C   C569      1.0  0.74611  0.13489  0.13580  1.0000
  C   C570      1.0  0.74633  0.15241  0.18738  1.0000
  C   C571      1.0  0.73544  0.15197  0.13684  1.0000
  C   C572      1.0  0.73546  0.16068  0.16257  1.0000
  H   H673      1.0  0.78538  0.10587  0.11701  1.0000
  H   H674      1.0  0.77401  0.08617  0.13291  1.0000
  H   H675      1.0  0.73836  0.10050  0.12291  1.0000
  H   H676      1.0  0.82417  0.11268  0.15865  1.0000
  H   H677      1.0  0.81356  0.09181  0.17083  1.0000
  H   H678      1.0  0.80714  0.10930  0.19416  1.0000
  H   H679      1.0  0.71313  0.10078  0.17293  1.0000
  H   H680      1.0  0.74694  0.08456  0.17865  1.0000
  H   H681      1.0  0.74413  0.10208  0.20219  1.0000
  H   H682      1.0  0.76464  0.12940  0.20646  1.0000
  H   H683      1.0  0.74557  0.12898  0.11516  1.0000
  H   H684      1.0  0.74650  0.15935  0.20729  1.0000
  H   H685      1.0  0.72706  0.15850  0.11755  1.0000
  H   H686      1.0  0.72705  0.17389  0.16328  1.0000
  C   C573      1.0  0.63401  0.13320  0.38998  1.0000
  C   C574      1.0  0.51208  0.05045  0.27829  1.0000
  C   C575      1.0  0.81266  0.25600  0.01204  1.0000
  C   C576      1.0  0.68740  0.23670  0.33952  1.0000
  H   H687      1.0  0.69940  0.23060  0.32011  1.0000
  C   C577      1.0  0.65954  0.28649  0.39405  1.0000
  C   C578      1.0  0.93533  0.14309  0.32836  1.0000
  C   C579      1.0  0.95499  0.15834  0.32776  1.0000
  C   C580      1.0  0.66791  0.26065  0.42070  1.0000
  H   H688      1.0  0.61659  0.02048  0.28294  1.0000
  H   H689      1.0  0.88794  0.11872  0.30913  1.0000
  H   H690      1.0  0.85002  0.15335  0.35155  1.0000
  H   H691      1.0  0.75877  0.05322  0.01918  1.0000
  H   H692      1.0  0.67526  0.26650  0.31290  1.0000
  H   H693      1.0  0.69231  0.23979  0.39904  1.0000
  H   H694      1.0  0.69128  0.22727  0.35688  1.0000
  C   C581      1.0  0.74317  0.24977  0.35288  1.0000
  H   H695      1.0  0.89242  0.16544  0.29876  1.0000
  H   H696      1.0  0.74627  0.24068  0.37089  1.0000
  C   C582      1.0  0.68274  0.25272  0.39661  1.0000
  H   H697      1.0  0.67832  0.13963  0.43386  1.0000
  H   H698      1.0  0.65779  0.23848  0.33599  1.0000
  H   H699      1.0  0.70617  0.15361  0.36117  1.0000
  H   H700      1.0  0.73544  0.05336  0.41907  1.0000
  C   C583      1.0  0.74456  0.06537  0.01383  1.0000
  H   H701      1.0  0.66610  0.25380  0.44068  1.0000
  H   H702      1.0  0.77227  0.99934  0.44512  1.0000
  C   C584      1.0  0.58870  0.03732  0.23739  1.0000
  H   H703      1.0  0.52370  0.06096  0.28941  1.0000
  C   C585      1.0  0.65657  0.27753  0.41950  1.0000
  H   H704      1.0  0.63495  0.16804  0.38007  1.0000
  C   C586      1.0  0.77776  0.02638  0.41628  1.0000
  C   C587      1.0  0.87857  0.12667  0.32738  1.0000
  H   H705      1.0  0.84842  0.12764  0.32587  1.0000
  H   H706      1.0  0.71084  0.27260  0.99293  1.0000
  H   H707      1.0  0.94124  0.17052  0.32627  1.0000
  C   C588      1.0  0.51469  0.02396  0.25243  1.0000
  H   H708      1.0  0.55133  0.13895  0.05254  1.0000
  C   C589      1.0  0.87932  0.00558  0.02317  1.0000
  C   C590      1.0  0.98994  0.19787  0.37172  1.0000
  C   C591      1.0  0.50423  0.16743  0.11608  1.0000
  C   C592      1.0  0.83909  0.26803  0.01620  1.0000
  C   C593      1.0  0.76045  0.99598  0.98918  1.0000
  H   H709      1.0  0.50337  0.00601  0.47017  1.0000
  H   H710      1.0  0.83592  0.25322  0.46944  1.0000
  C   C594      1.0  0.79914  0.01992  0.98250  1.0000
  H   H711      1.0  0.82148  0.04061  0.45524  1.0000
  H   H712      1.0  0.72363  0.05253  0.45587  1.0000
  H   H713      1.0  0.80792  0.06153  0.98372  1.0000
  C   C595      1.0  0.76172  0.02341  0.46747  1.0000
  H   H714      1.0  0.84928  0.27515  0.99820  1.0000
  H   H715      1.0  0.50146  0.15560  0.04619  1.0000
  C   C596      1.0  0.76612  0.00554  0.46507  1.0000
  C   C597      1.0  0.99278  0.15826  0.32946  1.0000
  C   C598      1.0  0.99380  0.12782  0.33264  1.0000
  N   N40       1.0  0.75258  0.07064  0.98413  1.0000
  C   C599      1.0  0.85446  0.99264  0.02158  1.0000
  H   H716      1.0  0.83256  0.99213  0.03711  1.0000
  Fe  Fe81      1.0  0.70392  0.28887  0.60826  1.0000
  S   S161      1.0  0.65646  0.30683  0.61310  1.0000
  S   S162      1.0  0.74359  0.27897  0.64211  1.0000
  Fe  Fe82      1.0  0.69690  0.28764  0.54263  1.0000
  S   S163      1.0  0.64889  0.30601  0.54286  1.0000
  S   S164      1.0  0.72755  0.27935  0.50170  1.0000
  H   H717      1.0  0.64962  0.02101  0.50780  1.0000
  S   S165      1.0  0.78977  0.99720  0.90495  1.0000
  Fe  Fe83      1.0  0.62824  0.29106  0.58033  1.0000
  S   S166      1.0  0.57039  0.28250  0.59038  1.0000
  S   S167      1.0  0.72910  0.30376  0.57262  1.0000
  S   S168      1.0  0.67431  0.27172  0.57818  1.0000
  C   C600      1.0  0.75035  0.06059  0.93337  1.0000
  S   S169      1.0  0.75816  0.30117  0.85484  1.0000
  C   C601      1.0  0.66489  0.99462  0.50445  1.0000
  Fe  Fe84      1.0  0.85965  0.29174  0.83670  1.0000
  S   S170      1.0  0.81558  0.27266  0.83048  1.0000
  S   S171      1.0  0.91798  0.28629  0.82131  1.0000
  Fe  Fe85      1.0  0.78187  0.29401  0.81190  1.0000
  S   S172      1.0  0.73922  0.29416  0.77638  1.0000
  Fe  Fe86      1.0  0.79447  0.28089  0.87387  1.0000
  S   S173      1.0  0.77691  0.25878  0.90301  1.0000
  S   S174      1.0  0.82716  0.31245  0.81486  1.0000
  S   S175      1.0  0.84074  0.29874  0.88087  1.0000
  C   C602      1.0  0.96139  0.29014  0.83633  1.0000
  C   C603      1.0  0.67272  0.29789  0.89647  1.0000
  C   C604      1.0  0.96542  0.29746  0.86319  1.0000
  C   C605      1.0  0.71648  0.03072  0.94908  1.0000
  H   H718      1.0  0.94182  0.29980  0.87642  1.0000
  C   C606      1.0  0.74269  0.28413  0.67917  1.0000
  C   C607      1.0  0.71244  0.29189  0.69218  1.0000
  C   C608      1.0  0.71212  0.29498  0.72180  1.0000
  C   C609      1.0  0.74218  0.29064  0.73885  1.0000
  C   C610      1.0  0.77271  0.28314  0.72578  1.0000
  C   C611      1.0  0.77280  0.27980  0.69620  1.0000
  H   H719      1.0  0.68899  0.29523  0.67950  1.0000
  C   C612      1.0  0.74655  0.01910  0.51799  1.0000
  H   H720      1.0  0.79602  0.27965  0.73851  1.0000
  H   H721      1.0  0.79636  0.27376  0.68649  1.0000
  C   C613      1.0  0.73278  0.08686  0.97890  1.0000
  C   C614      1.0  0.52644  0.28852  0.57773  1.0000
  H   H722      1.0  0.82009  0.02315  0.93981  1.0000
  H   H723      1.0  0.54448  0.30507  0.54440  1.0000
  H   H724      1.0  0.73770  0.02418  0.53837  1.0000
  H   H725      1.0  0.73941  0.09235  0.95775  1.0000
  C   C615      1.0  0.75493  0.25433  0.93627  1.0000
  C   C616      1.0  0.73966  0.26697  0.95370  1.0000
  H   H726      1.0  0.90350  0.31922  0.84599  1.0000
  H   H727      1.0  0.49927  0.27259  0.60807  1.0000
  C   C617      1.0  0.80388  0.01535  0.95364  1.0000
  C   C618      1.0  0.72237  0.26266  0.97966  1.0000
  H   H728      1.0  0.74628  0.99337  0.53288  1.0000
  C   C619      1.0  0.65795  0.01095  0.49344  1.0000
  C   C620      1.0  0.66613  0.31087  0.87696  1.0000
  C   C621      1.0  0.52128  0.30010  0.55549  1.0000
  H   H729      1.0  0.74121  0.28008  0.94724  1.0000
  C   C622      1.0  0.51176  0.99837  0.51356  1.0000
  H   H730      1.0  0.94252  0.32407  0.80458  1.0000
  H   H731      1.0  0.72134  0.02370  0.90501  1.0000
  H   H732      1.0  0.66217  0.31753  0.83271  1.0000
  C   C623      1.0  0.72605  0.03343  0.92075  1.0000
  C   C624      1.0  0.76129  0.99494  0.48862  1.0000
  C   C625      1.0  0.75246  0.23735  0.94527  1.0000
  C   C626      1.0  0.78701  0.00105  0.94234  1.0000
  H   H733      1.0  0.76343  0.07194  0.92621  1.0000
  C   C627      1.0  0.82293  0.22875  0.48597  1.0000
  H   H734      1.0  0.74708  0.04323  0.49806  1.0000
  C   C628      1.0  0.74266  0.04839  0.91286  1.0000
  Fe  Fe87      1.0  0.80538  0.31838  0.85849  1.0000
  N   N41       1.0  0.68540  0.25977  0.84690  1.0000
  C   C629      1.0  0.65816  0.25518  0.82523  1.0000
  C   C630      1.0  0.72181  0.25906  0.83349  1.0000
  C   C631      1.0  0.68453  0.24666  0.86963  1.0000
  C   C632      1.0  0.67810  0.27715  0.85763  1.0000
  C   C633      1.0  0.67206  0.29077  0.83832  1.0000
  C   C634      1.0  0.67883  0.28127  0.88710  1.0000
  C   C635      1.0  0.66587  0.30732  0.84794  1.0000
  C   C636      1.0  0.74215  0.05798  0.96262  1.0000
  C   C637      1.0  0.75148  0.00170  0.51498  1.0000
  H   H735      1.0  0.66098  0.26261  0.80522  1.0000
  H   H736      1.0  0.66117  0.24170  0.81863  1.0000
  H   H737      1.0  0.63011  0.25725  0.83356  1.0000
  H   H738      1.0  0.72404  0.26804  0.81534  1.0000
  H   H739      1.0  0.72892  0.24623  0.82524  1.0000
  H   H740      1.0  0.74297  0.26246  0.84907  1.0000
  H   H741      1.0  0.65842  0.24717  0.88162  1.0000
  H   H742      1.0  0.68818  0.23366  0.86089  1.0000
  H   H743      1.0  0.70713  0.24808  0.88498  1.0000
  H   H744      1.0  0.67367  0.28891  0.81554  1.0000
  H   H745      1.0  0.68500  0.27198  0.90335  1.0000
  H   H746      1.0  0.70431  0.01887  0.95521  1.0000
  C   C638      1.0  0.75171  0.02985  0.49469  1.0000
  H   H747      1.0  0.73388  0.21994  0.97776  1.0000
  N   N42       1.0  0.79509  0.25441  0.56453  1.0000
  C   C639      1.0  0.81652  0.24742  0.58861  1.0000
  C   C640      1.0  0.80039  0.27299  0.56398  1.0000
  C   C641      1.0  0.75616  0.25160  0.57030  1.0000
  C   C642      1.0  0.80574  0.24582  0.53765  1.0000
  C   C643      1.0  0.80233  0.22803  0.53496  1.0000
  C   C644      1.0  0.81844  0.25469  0.51328  1.0000
  C   C645      1.0  0.81064  0.21969  0.50943  1.0000
  C   C646      1.0  0.99281  0.28630  0.82019  1.0000
  H   H748      1.0  0.80696  0.20617  0.50761  1.0000
  H   H749      1.0  0.80957  0.25406  0.60898  1.0000
  H   H750      1.0  0.81137  0.23382  0.59247  1.0000
  H   H751      1.0  0.84609  0.24880  0.58468  1.0000
  H   H752      1.0  0.82928  0.27613  0.56029  1.0000
  H   H753      1.0  0.79211  0.27903  0.58457  1.0000
  H   H754      1.0  0.78353  0.27924  0.54724  1.0000
  H   H755      1.0  0.75002  0.23806  0.57367  1.0000
  H   H756      1.0  0.74680  0.25834  0.58993  1.0000
  H   H757      1.0  0.73932  0.25623  0.55216  1.0000
  H   H758      1.0  0.79241  0.22048  0.55244  1.0000
  H   H759      1.0  0.82091  0.26827  0.51287  1.0000
  H   H760      1.0  0.70293  0.08510  0.97977  1.0000
  H   H761      1.0  0.53911  0.00313  0.51433  1.0000
  C   C647      1.0  0.73528  0.23305  0.97126  1.0000
  H   H762      1.0  0.76414  0.22742  0.93208  1.0000
  H   H763      1.0  0.53867  0.31615  0.62462  1.0000
  H   H764      1.0  0.68829  0.30072  0.73159  1.0000
  H   H765      1.0  0.75024  0.05035  0.89077  1.0000
  C   C648      1.0  0.72430  0.04275  0.96983  1.0000
  H   H766      1.0  0.93064  0.99650  0.96510  1.0000
  H   H767      1.0  0.80003  0.07984  0.96186  1.0000
  H   H768      1.0  0.99017  0.28045  0.79953  1.0000
  H   H769      1.0  0.70116  0.24434  0.50525  1.0000
  Fe  Fe88      1.0  0.67994  0.32073  0.57559  1.0000
  H   H770      1.0  0.66225  0.32380  0.88427  1.0000
  H   H771      1.0  0.67397  0.30077  0.91900  1.0000
  C   C649      1.0  0.82711  0.24617  0.48798  1.0000
  H   H772      1.0  0.58089  0.31862  0.58433  1.0000
  C   C650      1.0  0.71768  0.24548  0.48626  1.0000
  C   C651      1.0  0.90949  0.99483  0.98078  1.0000
  C   C652      1.0  0.79212  0.07364  0.98212  1.0000
  Fe  Fe89      1.0  0.80671  0.52817  0.37304  1.0000
  S   S176      1.0  0.81494  0.55451  0.38930  1.0000
  S   S177      1.0  0.81615  0.50457  0.40133  1.0000
  Fe  Fe90      1.0  0.80309  0.54077  0.30985  1.0000
  S   S178      1.0  0.81326  0.56766  0.32274  1.0000
  S   S179      1.0  0.80174  0.53609  0.26168  1.0000
  Fe  Fe91      1.0  0.85460  0.55689  0.35297  1.0000
  S   S180      1.0  0.90801  0.56882  0.36422  1.0000
  Fe  Fe92      1.0  0.77282  0.56292  0.35743  1.0000
  S   S181      1.0  0.72520  0.58143  0.36309  1.0000
  S   S182      1.0  0.84817  0.53039  0.33751  1.0000
  S   S183      1.0  0.76080  0.53622  0.34361  1.0000
  Fe  Fe93      1.0  0.66868  0.54016  0.12798  1.0000
  S   S184      1.0  0.64952  0.56644  0.11623  1.0000
  S   S185      1.0  0.66984  0.53176  0.17455  1.0000
  Fe  Fe94      1.0  0.68283  0.52986  0.06505  1.0000
  S   S186      1.0  0.66701  0.55582  0.04917  1.0000
  S   S187      1.0  0.70690  0.50787  0.03839  1.0000
  Fe  Fe95      1.0  0.69742  0.56631  0.08647  1.0000
  S   S188      1.0  0.74153  0.58593  0.08904  1.0000
  Fe  Fe96      1.0  0.62020  0.55381  0.08031  1.0000
  S   S189      1.0  0.56455  0.56163  0.06384  1.0000
  S   S190      1.0  0.71769  0.54047  0.09984  1.0000
  S   S191      1.0  0.63479  0.52742  0.09457  1.0000
  C   C653      1.0  0.52407  0.55370  0.07875  1.0000
  C   C654      1.0  0.98497  0.54451  0.31599  1.0000
  C   C655      1.0  0.52386  0.54502  0.10473  1.0000
  H   H773      1.0  0.68597  0.63374  0.16118  1.0000
  H   H774      1.0  0.54911  0.54241  0.11562  1.0000
  C   C656      1.0  0.73658  0.60792  0.08268  1.0000
  C   C657      1.0  0.70336  0.61539  0.07506  1.0000
  C   C658      1.0  0.70080  0.63296  0.07002  1.0000
  C   C659      1.0  0.73134  0.64317  0.07258  1.0000
  C   C660      1.0  0.76446  0.63573  0.08050  1.0000
  C   C661      1.0  0.76701  0.61818  0.08554  1.0000
  H   H775      1.0  0.67978  0.60762  0.07277  1.0000
  H   H776      1.0  0.67507  0.63863  0.06390  1.0000
  H   H777      1.0  0.78819  0.64343  0.08243  1.0000
  H   H778      1.0  0.79283  0.61246  0.09133  1.0000
  C   C662      1.0  0.76406  0.53587  0.23822  1.0000
  C   C663      1.0  0.76934  0.53994  0.20933  1.0000
  C   C664      1.0  0.74059  0.53927  0.18975  1.0000
  C   C665      1.0  0.70627  0.53416  0.19875  1.0000
  C   C666      1.0  0.70093  0.53016  0.22766  1.0000
  C   C667      1.0  0.72955  0.53110  0.24733  1.0000
  H   H779      1.0  0.79592  0.54360  0.20203  1.0000
  H   H780      1.0  0.74517  0.54243  0.16763  1.0000
  H   H781      1.0  0.67458  0.52609  0.23483  1.0000
  H   H782      1.0  0.72516  0.52769  0.26939  1.0000
  C   C668      1.0  0.73094  0.60360  0.36278  1.0000
  C   C669      1.0  0.70021  0.61441  0.36203  1.0000
  C   C670      1.0  0.70382  0.63213  0.36171  1.0000
  C   C671      1.0  0.73827  0.63915  0.36249  1.0000
  C   C672      1.0  0.76898  0.62833  0.36302  1.0000
  C   C673      1.0  0.76538  0.61064  0.36297  1.0000
  H   H783      1.0  0.67347  0.60906  0.36194  1.0000
  H   H784      1.0  0.67997  0.64033  0.36144  1.0000
  H   H785      1.0  0.79573  0.63365  0.36364  1.0000
  H   H786      1.0  0.78924  0.60245  0.36356  1.0000
  C   C674      1.0  0.95121  0.55004  0.32704  1.0000
  C   C675      1.0  0.94970  0.56186  0.34913  1.0000
  H   H787      1.0  0.51925  0.57395  0.14847  1.0000
  H   H788      1.0  0.92639  0.54528  0.31827  1.0000
  H   H789      1.0  0.98118  0.57713  0.37732  1.0000
  C   C676      1.0  0.73169  0.47299  0.09854  1.0000
  H   H790      1.0  0.73538  0.48147  0.00185  1.0000
  C   C677      1.0  0.68991  0.49888  0.00635  1.0000
  C   C678      1.0  0.54027  0.59076  0.11678  1.0000
  H   H791      1.0  0.68711  0.49877  0.09734  1.0000
  C   C679      1.0  0.51256  0.58297  0.13179  1.0000
  C   C680      1.0  0.80580  0.49981  0.43773  1.0000
  C   C681      1.0  0.81838  0.48434  0.44941  1.0000
  H   H792      1.0  0.77551  0.52276  0.44660  1.0000
  H   H793      1.0  0.83395  0.47565  0.43615  1.0000
  H   H794      1.0  0.69484  0.50731  0.13175  1.0000
  C   C682      1.0  0.71269  0.63884  0.15491  1.0000
  N   N43       1.0  0.92770  0.52394  0.41875  1.0000
  H   H795      1.0  0.91576  0.51693  0.46233  1.0000
  H   H796      1.0  0.76461  0.44697  0.18951  1.0000
  H   H797      1.0  0.74934  0.45444  0.14083  1.0000
  H   H798      1.0  0.90656  0.50078  0.43595  1.0000
  H   H799      1.0  0.56834  0.58774  0.12170  1.0000
  H   H800      1.0  0.89650  0.54697  0.42590  1.0000
  C   C683      1.0  0.78546  0.51083  0.45515  1.0000
  H   H801      1.0  0.92438  0.40452  0.47033  1.0000
  C   C684      1.0  0.75849  0.46007  0.18418  1.0000
  H   H802      1.0  0.55372  0.60744  0.08244  1.0000
  N   N44       1.0  0.72336  0.58613  0.27132  1.0000
  C   C685      1.0  0.69009  0.59466  0.28267  1.0000
  C   C686      1.0  0.72570  0.56879  0.28329  1.0000
  C   C687      1.0  0.75487  0.59553  0.28211  1.0000
  C   C688      1.0  0.72196  0.58518  0.23981  1.0000
  C   C689      1.0  0.69238  0.57740  0.22620  1.0000
  C   C690      1.0  0.74992  0.59138  0.22180  1.0000
  C   C691      1.0  0.69064  0.57612  0.19654  1.0000
  C   C692      1.0  0.74800  0.58991  0.19213  1.0000
  C   C693      1.0  0.71843  0.58232  0.17954  1.0000
  H   H803      1.0  0.66529  0.58738  0.27846  1.0000
  H   H804      1.0  0.69123  0.59608  0.30629  1.0000
  H   H805      1.0  0.68640  0.60751  0.27332  1.0000
  H   H806      1.0  0.70246  0.56093  0.27712  1.0000
  H   H807      1.0  0.72624  0.56887  0.30696  1.0000
  H   H808      1.0  0.75088  0.56215  0.27599  1.0000
  H   H809      1.0  0.75458  0.60885  0.27440  1.0000
  H   H810      1.0  0.75492  0.59605  0.30582  1.0000
  H   H811      1.0  0.78102  0.58922  0.27594  1.0000
  H   H812      1.0  0.67082  0.57176  0.23840  1.0000
  H   H813      1.0  0.77396  0.59708  0.23008  1.0000
  H   H814      1.0  0.66828  0.56966  0.18671  1.0000
  H   H815      1.0  0.76999  0.59428  0.17875  1.0000
  H   H816      1.0  0.71752  0.58083  0.15656  1.0000
  H   H817      1.0  0.93978  0.55009  0.41005  1.0000
  C   C694      1.0  0.74964  0.46457  0.15618  1.0000
  H   H818      1.0  0.87700  0.51872  0.44011  1.0000
  C   C695      1.0  0.75947  0.47236  0.20540  1.0000
  H   H819      1.0  0.71091  0.46356  0.10435  1.0000
  H   H820      1.0  0.92093  0.52968  0.37384  1.0000
  C   C696      1.0  0.96639  0.51855  0.41733  1.0000
  H   H821      1.0  0.97940  0.53404  0.38029  1.0000
  N   N45       1.0  0.71533  0.65720  0.16094  1.0000
  H   H822      1.0  0.64152  0.51445  0.00415  1.0000
  H   H823      1.0  0.93702  0.54477  0.44703  1.0000
  H   H824      1.0  0.72462  0.47766  0.07676  1.0000
  C   C697      1.0  0.91022  0.52131  0.39080  1.0000
  H   H825      1.0  0.88063  0.52425  0.39188  1.0000
  H   H826      1.0  0.91349  0.50796  0.38357  1.0000
  H   H827      1.0  0.75360  0.50364  0.08700  1.0000
  C   C698      1.0  0.74142  0.48167  0.14874  1.0000
  N   N46       1.0  0.73226  0.48709  0.11941  1.0000
  C   C699      1.0  0.74255  0.49379  0.17094  1.0000
  H   H828      1.0  0.71614  0.63610  0.13177  1.0000
  H   H829      1.0  0.67498  0.48697  0.12862  1.0000
  H   H830      1.0  0.75957  0.51100  0.12241  1.0000
  C   C700      1.0  0.69581  0.49537  0.11932  1.0000
  H   H831      1.0  0.76635  0.46886  0.22707  1.0000
  C   C701      1.0  0.90616  0.51463  0.44033  1.0000
  C   C702      1.0  0.75150  0.48919  0.19878  1.0000
  H   H832      1.0  0.78719  0.49373  0.10948  1.0000
  H   H833      1.0  0.65675  0.65063  0.19538  1.0000
  H   H834      1.0  0.73636  0.50697  0.16690  1.0000
  H   H835      1.0  0.96721  0.50145  0.45428  1.0000
  H   H836      1.0  0.75867  0.46655  0.09658  1.0000
  C   C703      1.0  0.71016  0.48591  0.99261  1.0000
  C   C704      1.0  0.92516  0.54219  0.42583  1.0000
  C   C705      1.0  0.75932  0.49937  0.10918  1.0000
  H   H837      1.0  0.75219  0.49878  0.21529  1.0000
  C   C706      1.0  0.98216  0.56798  0.36024  1.0000
  H   H838      1.0  0.73397  0.63140  0.16640  1.0000
  H   H839      1.0  0.75731  0.51948  0.98515  1.0000
  H   H840      1.0  0.53231  0.64036  0.35316  1.0000
  C   C707      1.0  0.51116  0.64801  0.34324  1.0000
  C   C708      1.0  0.98955  0.52520  0.39599  1.0000
  C   C709      1.0  0.98253  0.50714  0.43725  1.0000
  C   C710      1.0  0.53193  0.60180  0.09454  1.0000
  C   C711      1.0  0.65741  0.50448  0.99399  1.0000
  C   C712      1.0  0.67927  0.65598  0.20655  1.0000
  H   H841      1.0  0.64944  0.65627  0.24629  1.0000
  H   H842      1.0  0.98593  0.53548  0.29870  1.0000
  C   C713      1.0  0.81033  0.47982  0.47789  1.0000
  H   H843      1.0  0.85966  0.41331  0.47704  1.0000
  H   H844      1.0  0.72227  0.54461  0.00102  1.0000
  H   H845      1.0  0.77379  0.65596  0.15801  1.0000
  Fe  Fe97      1.0  0.85700  0.45274  0.60065  1.0000
  S   S192      1.0  0.81106  0.47175  0.60508  1.0000
  S   S193      1.0  0.91251  0.46218  0.61274  1.0000
  Fe  Fe98      1.0  0.80782  0.42626  0.57614  1.0000
  S   S194      1.0  0.75881  0.44350  0.57767  1.0000
  S   S195      1.0  0.80953  0.39921  0.55960  1.0000
  Fe  Fe99      1.0  0.79537  0.46385  0.56081  1.0000
  S   S196      1.0  0.77683  0.48540  0.53090  1.0000
  Fe  Fe100     1.0  0.77825  0.45016  0.62173  1.0000
  S   S197      1.0  0.73306  0.45163  0.65543  1.0000
  S   S198      1.0  0.84310  0.44606  0.55575  1.0000
  S   S199      1.0  0.82551  0.43168  0.62091  1.0000
  Fe  Fe101     1.0  0.69136  0.45199  0.82261  1.0000
  S   S200      1.0  0.64956  0.43287  0.81228  1.0000
  S   S201      1.0  0.73710  0.45805  0.79123  1.0000
  Fe  Fe102     1.0  0.66035  0.45789  0.88411  1.0000
  S   S202      1.0  0.61777  0.43825  0.87734  1.0000
  S   S203      1.0  0.64918  0.47600  0.92179  1.0000
  Fe  Fe103     1.0  0.66183  0.42255  0.85593  1.0000
  S   S204      1.0  0.66364  0.39380  0.85842  1.0000
  Fe  Fe104     1.0  0.60965  0.45022  0.83465  1.0000
  S   S205      1.0  0.55503  0.45934  0.81811  1.0000
  S   S206      1.0  0.70553  0.44107  0.86587  1.0000
  S   S207      1.0  0.65063  0.47041  0.84155  1.0000
  C   C714      1.0  0.66559  0.48424  0.95462  1.0000
  H   H846      1.0  0.74871  0.50760  0.93831  1.0000
  C   C715      1.0  0.51519  0.43361  0.84206  1.0000
  H   H847      1.0  0.96599  0.42289  0.52785  1.0000
  H   H848      1.0  0.73065  0.36509  0.68459  1.0000
  C   C716      1.0  0.70337  0.38097  0.86115  1.0000
  C   C717      1.0  0.73683  0.38767  0.86842  1.0000
  C   C718      1.0  0.76757  0.37690  0.87106  1.0000
  C   C719      1.0  0.76523  0.35941  0.86616  1.0000
  C   C720      1.0  0.73195  0.35279  0.85823  1.0000
  C   C721      1.0  0.70114  0.36352  0.85593  1.0000
  H   H849      1.0  0.73885  0.40107  0.87262  1.0000
  H   H850      1.0  0.79317  0.38213  0.87729  1.0000
  H   H851      1.0  0.72979  0.33937  0.85438  1.0000
  H   H852      1.0  0.67535  0.35824  0.85030  1.0000
  H   H853      1.0  0.88955  0.33703  0.80547  1.0000
  H   H854      1.0  0.68060  0.37739  0.77053  1.0000
  C   C722      1.0  0.90175  0.33061  0.85983  1.0000
  H   H855      1.0  0.54079  0.42706  0.84570  1.0000
  H   H856      1.0  0.50101  0.46773  0.73072  1.0000
  H   H857      1.0  0.60311  0.36403  0.58513  1.0000
  C   C723      1.0  0.74943  0.38216  0.78571  1.0000
  H   H858      1.0  0.88475  0.41432  0.55445  1.0000
  H   H859      1.0  0.91890  0.32805  0.87880  1.0000
  H   H860      1.0  0.64583  0.52926  0.88923  1.0000
  C   C724      1.0  0.73535  0.45284  0.69322  1.0000
  C   C725      1.0  0.76778  0.45565  0.70755  1.0000
  C   C726      1.0  0.76782  0.45725  0.73751  1.0000
  C   C727      1.0  0.73562  0.45583  0.75353  1.0000
  C   C728      1.0  0.70330  0.45277  0.73921  1.0000
  C   C729      1.0  0.70320  0.45137  0.70926  1.0000
  H   H861      1.0  0.79270  0.45688  0.69553  1.0000
  H   H862      1.0  0.79299  0.45961  0.74833  1.0000
  H   H863      1.0  0.67829  0.45169  0.75116  1.0000
  H   H864      1.0  0.67796  0.44918  0.69843  1.0000
  C   C730      1.0  0.77319  0.38536  0.56642  1.0000
  C   C731      1.0  0.77686  0.36819  0.55885  1.0000
  C   C732      1.0  0.74814  0.35696  0.56327  1.0000
  C   C733      1.0  0.71528  0.36285  0.57499  1.0000
  C   C734      1.0  0.71172  0.37999  0.58271  1.0000
  C   C735      1.0  0.74057  0.39117  0.57864  1.0000
  H   H865      1.0  0.80197  0.36356  0.54943  1.0000
  H   H866      1.0  0.75123  0.34382  0.55717  1.0000
  H   H867      1.0  0.68643  0.38468  0.59175  1.0000
  H   H868      1.0  0.73733  0.40433  0.58454  1.0000
  C   C736      1.0  0.95336  0.45273  0.60015  1.0000
  H   H869      1.0  0.57649  0.34990  0.64208  1.0000
  C   C737      1.0  0.95544  0.43567  0.59239  1.0000
  H   H870      1.0  0.91322  0.38696  0.49302  1.0000
  H   H871      1.0  0.93128  0.42817  0.59304  1.0000
  N   N47       1.0  0.71499  0.50048  0.61131  1.0000
  C   C738      1.0  0.68058  0.51054  0.61137  1.0000
  C   C739      1.0  0.73872  0.50765  0.58882  1.0000
  C   C740      1.0  0.70714  0.48282  0.60320  1.0000
  C   C741      1.0  0.73132  0.50058  0.64005  1.0000
  C   C742      1.0  0.76750  0.50564  0.64508  1.0000
  C   C743      1.0  0.71120  0.49498  0.66405  1.0000
  C   C744      1.0  0.78235  0.50501  0.67240  1.0000
  C   C745      1.0  0.72618  0.49460  0.69129  1.0000
  C   C746      1.0  0.68722  0.39049  0.77686  1.0000
  H   H872      1.0  0.68508  0.52367  0.61891  1.0000
  H   H873      1.0  0.66861  0.51136  0.58968  1.0000
  H   H874      1.0  0.65954  0.50491  0.62528  1.0000
  H   H875      1.0  0.72578  0.50742  0.56744  1.0000
  H   H876      1.0  0.76434  0.50012  0.58629  1.0000
  H   H877      1.0  0.74551  0.52101  0.59334  1.0000
  H   H878      1.0  0.68702  0.47689  0.61762  1.0000
  H   H879      1.0  0.69668  0.48193  0.58108  1.0000
  H   H880      1.0  0.73205  0.47474  0.60431  1.0000
  H   H881      1.0  0.78527  0.50975  0.62818  1.0000
  H   H882      1.0  0.68417  0.49020  0.66178  1.0000
  N   N48       1.0  0.91338  0.34599  0.84463  1.0000
  C   C747      1.0  0.50993  0.44528  0.75558  1.0000
  C   C748      1.0  0.77721  0.50626  0.48356  1.0000
  N   N49       1.0  0.56739  0.34401  0.59801  1.0000
  H   H883      1.0  0.88961  0.46968  0.48916  1.0000
  H   H884      1.0  0.65532  0.50954  0.87222  1.0000
  H   H885      1.0  0.74939  0.50401  0.89037  1.0000
  H   H886      1.0  0.88825  0.39289  0.54273  1.0000
  C   C749      1.0  0.90056  0.40557  0.54031  1.0000
  C   C750      1.0  0.52183  0.45086  0.91014  1.0000
  H   H887      1.0  0.98367  0.47546  0.60595  1.0000
  C   C751      1.0  0.95987  0.44528  0.70990  1.0000
  C   C752      1.0  0.96229  0.33179  0.81502  1.0000
  H   H888      1.0  0.74615  0.42031  0.73231  1.0000
  H   H889      1.0  0.53859  0.44750  0.75844  1.0000
  H   H890      1.0  0.50495  0.36209  0.58002  1.0000
  H   H891      1.0  0.66837  0.39933  0.76550  1.0000
  H   H892      1.0  0.84285  0.41820  0.51246  1.0000
  C   C753      1.0  0.73221  0.41151  0.78325  1.0000
  C   C754      1.0  0.98910  0.42819  0.58480  1.0000
  H   H893      1.0  0.71416  0.46878  0.95663  1.0000
  H   H894      1.0  0.86140  0.35115  0.82508  1.0000
  H   H895      1.0  0.68077  0.39147  0.79999  1.0000
  H   H896      1.0  0.97547  0.36083  0.86769  1.0000
  H   H897      1.0  0.56155  0.37111  0.60168  1.0000
  H   H898      1.0  0.62002  0.50158  0.95930  1.0000
  H   H899      1.0  0.87686  0.36257  0.86830  1.0000
  H   H900      1.0  0.99068  0.41489  0.57947  1.0000
  H   H901      1.0  0.74317  0.36884  0.78041  1.0000
  C   C755      1.0  0.94851  0.43271  0.51917  1.0000
  C   C756      1.0  0.71377  0.53165  0.87408  1.0000
  H   H902      1.0  0.72034  0.36684  0.73595  1.0000
  H   H903      1.0  0.87324  0.33182  0.86737  1.0000
  C   C757      1.0  0.96129  0.44923  0.51952  1.0000
  C   C758      1.0  0.96471  0.44393  0.68058  1.0000
  H   H904      1.0  0.56651  0.33271  0.55646  1.0000
  H   H905      1.0  0.75549  0.41774  0.68141  1.0000
  H   H906      1.0  0.74640  0.38311  0.80925  1.0000
  C   C759      1.0  0.70738  0.52629  0.92450  1.0000
  H   H907      1.0  0.74328  0.53387  0.87665  1.0000
  C   C760      1.0  0.58847  0.34201  0.62470  1.0000
  H   H908      1.0  0.72710  0.41171  0.80669  1.0000
  H   H909      1.0  0.94212  0.44658  0.66640  1.0000
  C   C761      1.0  0.78941  0.49071  0.49515  1.0000
  C   C762      1.0  0.95197  0.34369  0.83634  1.0000
  C   C763      1.0  0.66119  0.51712  0.89155  1.0000
  C   C764      1.0  0.73310  0.51888  0.94347  1.0000
  H   H910      1.0  0.71064  0.48978  0.70914  1.0000
  N   N50       1.0  0.70069  0.51948  0.89567  1.0000
  H   H911      1.0  0.76072  0.41544  0.77992  1.0000
  H   H912      1.0  0.69956  0.54415  0.87579  1.0000
  H   H913      1.0  0.55061  0.48987  0.92760  1.0000
  H   H914      1.0  0.81028  0.50850  0.67563  1.0000
  N   N51       1.0  0.89986  0.41157  0.51031  1.0000
  C   C765      1.0  0.53190  0.47994  0.92250  1.0000
  H   H915      1.0  0.56252  0.36325  0.56536  1.0000
  H   H916      1.0  0.98520  0.44338  0.75083  1.0000
  H   H917      1.0  0.76092  0.51480  0.49657  1.0000
  H   H918      1.0  0.74800  0.39041  0.65704  1.0000
  H   H919      1.0  0.66861  0.54744  0.92088  1.0000
  H   H920      1.0  0.53264  0.43831  0.90532  1.0000
  H   H921      1.0  0.70945  0.52693  0.85205  1.0000
  C   C766      1.0  0.71939  0.50294  0.89022  1.0000
  C   C767      1.0  0.91360  0.42903  0.50862  1.0000
  H   H922      1.0  0.89992  0.35916  0.80584  1.0000
  C   C768      1.0  0.98903  0.44216  0.72801  1.0000
  C   C769      1.0  0.52866  0.34034  0.60301  1.0000
  H   H923      1.0  0.71153  0.49333  0.90632  1.0000
  C   C770      1.0  0.51472  0.44973  0.82973  1.0000
  S   S208      1.0  0.80434  0.34630  0.87054  1.0000
  H   H924      1.0  0.71233  0.49761  0.86907  1.0000
  S   S209      1.0  0.67755  0.34950  0.57948  1.0000
  C   C771      1.0  0.92333  0.40014  0.49287  1.0000
  C   C772      1.0  0.54546  0.46370  0.91703  1.0000
  H   H925      1.0  0.61726  0.34572  0.62170  1.0000
  C   C773      1.0  0.68823  0.54099  0.93419  1.0000
  H   H926      1.0  0.77358  0.49860  0.71646  1.0000
  C   C774      1.0  0.90641  0.36070  0.86373  1.0000
  H   H927      1.0  0.64917  0.51033  0.90996  1.0000
  H   H928      1.0  0.91624  0.37261  0.85401  1.0000
  N   N52       1.0  0.72554  0.39459  0.77078  1.0000
  C   C775      1.0  0.50003  0.35070  0.59195  1.0000
  H   H929      1.0  0.77844  0.38420  0.78037  1.0000
  C   C776      1.0  0.69363  0.54751  0.96147  1.0000
  C   C777      1.0  0.73228  0.39371  0.73967  1.0000
  C   C778      1.0  0.74245  0.40797  0.72313  1.0000
  C   C779      1.0  0.72817  0.37821  0.72487  1.0000
  C   C780      1.0  0.74800  0.40668  0.69370  1.0000
  C   C781      1.0  0.73391  0.37707  0.69545  1.0000
  C   C782      1.0  0.74374  0.39129  0.67989  1.0000
  H   H930      1.0  0.91919  0.35881  0.88491  1.0000
  C   C783      1.0  0.64533  0.49716  0.96843  1.0000
  C   C784      1.0  0.57358  0.36140  0.58714  1.0000
  H   H931      1.0  0.93350  0.44887  0.71853  1.0000
  H   H932      1.0  0.71385  0.42142  0.77407  1.0000
  C   C785      1.0  0.94002  0.46252  0.50888  1.0000
  H   H933      1.0  0.92840  0.40446  0.54901  1.0000
  C   C786      1.0  0.76175  0.49950  0.69544  1.0000
  H   H934      1.0  0.57442  0.46112  0.91791  1.0000
  C   C787      1.0  0.98506  0.46228  0.59978  1.0000
  C   C788      1.0  0.98046  0.35199  0.85060  1.0000
  C   C789      1.0  0.89027  0.34848  0.81911  1.0000
  H   H935      1.0  0.61082  0.33442  0.57143  1.0000
  H   H936      1.0  0.67805  0.55847  0.96879  1.0000
  C   C790      1.0  0.86207  0.41003  0.49999  1.0000
  C   C791      1.0  0.89317  0.44279  0.49685  1.0000
  H   H937      1.0  0.95164  0.39947  0.50081  1.0000
  H   H938      1.0  0.81952  0.46775  0.48629  1.0000
  C   C792      1.0  0.58204  0.33192  0.57666  1.0000
  C   C793      1.0  0.69822  0.47869  0.96687  1.0000
  H   H939      1.0  0.85199  0.39690  0.50254  1.0000
  C   C794      1.0  0.90624  0.45929  0.49726  1.0000
  H   H940      1.0  0.94962  0.47536  0.50992  1.0000
  H   H941      1.0  0.98753  0.45176  0.52873  1.0000
  H   H942      1.0  0.86647  0.44129  0.48806  1.0000
  C   C795      1.0  0.73855  0.52565  0.97056  1.0000
  H   H943      1.0  0.51065  0.42286  0.78135  1.0000
  H   H944      1.0  0.59005  0.32869  0.63223  1.0000
  C   C796      1.0  0.51857  0.32528  0.61731  1.0000
  C   C797      1.0  0.71865  0.53980  0.97964  1.0000
  Fe  Fe105     1.0  0.69981  0.68118  0.35695  1.0000
  S   S210      1.0  0.72182  0.70553  0.33963  1.0000
  H   H945      1.0  0.87522  0.71031  0.19806  1.0000
  Fe  Fe106     1.0  0.62208  0.69622  0.36106  1.0000
  S   S211      1.0  0.63972  0.72130  0.34366  1.0000
  S   S212      1.0  0.56596  0.69056  0.37989  1.0000
  Fe  Fe107     1.0  0.67285  0.70594  0.31158  1.0000
  S   S213      1.0  0.67060  0.70937  0.26295  1.0000
  Fe  Fe108     1.0  0.68740  0.71837  0.37367  1.0000
  S   S214      1.0  0.70866  0.74022  0.40121  1.0000
  S   S215      1.0  0.65218  0.68091  0.32748  1.0000
  S   S216      1.0  0.66839  0.69397  0.39231  1.0000
  Fe  Fe109     1.0  0.78967  0.72020  0.05460  1.0000
  S   S217      1.0  0.80952  0.69458  0.03946  1.0000
  S   S218      1.0  0.78068  0.74359  0.02572  1.0000
  Fe  Fe110     1.0  0.79350  0.70912  0.11845  1.0000
  S   S219      1.0  0.81347  0.68310  0.10662  1.0000
  S   S220      1.0  0.79376  0.71450  0.16640  1.0000
  Fe  Fe111     1.0  0.85041  0.69589  0.07515  1.0000
  S   S221      1.0  0.90865  0.68507  0.07431  1.0000
  Fe  Fe112     1.0  0.77125  0.68421  0.07261  1.0000
  H   H946      1.0  0.89015  0.72289  0.15143  1.0000
  S   S222      1.0  0.83273  0.72200  0.08868  1.0000
  S   S223      1.0  0.74904  0.70978  0.08599  1.0000
  C   C798      1.0  0.95226  0.69439  0.07545  1.0000
  C   C799      1.0  0.95686  0.71192  0.07628  1.0000
  H   H947      1.0  0.54145  0.75404  0.43763  1.0000
  H   H948      1.0  0.93344  0.72034  0.07499  1.0000
  H   H949      1.0  0.89289  0.68938  0.20730  1.0000
  C   C800      1.0  0.70559  0.71012  0.23654  1.0000
  C   C801      1.0  0.69639  0.70852  0.20760  1.0000
  C   C802      1.0  0.72302  0.70943  0.18589  1.0000
  C   C803      1.0  0.75922  0.71220  0.19284  1.0000
  C   C804      1.0  0.76845  0.71372  0.22175  1.0000
  C   C805      1.0  0.74192  0.71259  0.24347  1.0000
  H   H950      1.0  0.66839  0.70665  0.20198  1.0000
  H   H951      1.0  0.71536  0.70843  0.16379  1.0000
  H   H952      1.0  0.79628  0.71598  0.22744  1.0000
  H   H953      1.0  0.74944  0.71396  0.26555  1.0000
  H   H954      1.0  0.81594  0.72589  0.41923  1.0000
  C   C806      1.0  0.52140  0.69755  0.37014  1.0000
  C   C807      1.0  0.95162  0.71151  0.20177  1.0000
  H   H955      1.0  0.53763  0.71364  0.33555  1.0000
  H   H956      1.0  0.83608  0.97131  0.99950  1.0000
  H   H957      1.0  0.59869  0.72202  0.39768  1.0000
  H   H958      1.0  0.68889  0.66521  0.12210  1.0000
  H   H959      1.0  0.97031  0.70100  0.13265  1.0000
  H   H960      1.0  0.69000  0.77301  0.02690  1.0000
  H   H961      1.0  0.63206  0.72043  0.42538  1.0000
  C   C808      1.0  0.71953  0.74365  0.43798  1.0000
  C   C809      1.0  0.73634  0.75881  0.44574  1.0000
  C   C810      1.0  0.62812  0.75695  0.45542  1.0000
  H   H962      1.0  0.63264  0.76188  0.43423  1.0000
  H   H963      1.0  0.74257  0.76800  0.42943  1.0000
  C   C811      1.0  0.88250  0.69750  0.18968  1.0000
  H   H964      1.0  0.77081  0.71287  0.39657  1.0000
  H   H965      1.0  0.63154  0.76451  0.03923  1.0000
  H   H966      1.0  0.86573  0.70542  0.13749  1.0000
  N   N53       1.0  0.67890  0.75714  0.06346  1.0000
  C   C812      1.0  0.63993  0.76214  0.06167  1.0000
  C   C813      1.0  0.69976  0.77059  0.04898  1.0000
  C   C814      1.0  0.68405  0.74109  0.04753  1.0000
  C   C815      1.0  0.69185  0.75467  0.09302  1.0000
  C   C816      1.0  0.66801  0.75441  0.11699  1.0000
  C   C817      1.0  0.72925  0.75161  0.09845  1.0000
  C   C818      1.0  0.68111  0.75138  0.14449  1.0000
  C   C819      1.0  0.74200  0.74861  0.12600  1.0000
  C   C820      1.0  0.71800  0.74850  0.14896  1.0000
  C   C821      1.0  0.99190  0.71858  0.07913  1.0000
  H   H967      1.0  0.99019  0.72300  0.22972  1.0000
  H   H968      1.0  0.62211  0.75199  0.06978  1.0000
  S   S224      1.0  0.72647  0.66523  0.06682  1.0000
  H   H969      1.0  0.77219  0.77374  0.99173  1.0000
  H   H970      1.0  0.72893  0.76720  0.04645  1.0000
  H   H971      1.0  0.66844  0.73068  0.05739  1.0000
  H   H972      1.0  0.93122  0.71192  0.21835  1.0000
  H   H973      1.0  0.71284  0.73676  0.04712  1.0000
  H   H974      1.0  0.63912  0.75639  0.11512  1.0000
  H   H975      1.0  0.74897  0.75107  0.08133  1.0000
  H   H976      1.0  0.66257  0.75111  0.16251  1.0000
  H   H977      1.0  0.77064  0.74606  0.12955  1.0000
  H   H978      1.0  0.72804  0.74598  0.17025  1.0000
  H   H979      1.0  0.54783  0.71573  0.42590  1.0000
  H   H980      1.0  0.84313  0.68401  0.42382  1.0000
  C   C822      1.0  0.71157  0.73200  0.45955  1.0000
  H   H981      1.0  0.57832  0.71061  0.45393  1.0000
  C   C823      1.0  0.73995  0.66701  0.20864  1.0000
  H   H982      1.0  0.73333  0.72297  0.98968  1.0000
  C   C824      1.0  0.75536  0.74780  0.99395  1.0000
  H   H983      1.0  0.62741  0.73935  0.40468  1.0000
  C   C825      1.0  0.51501  0.70875  0.34755  1.0000
  C   C826      1.0  0.89309  0.70962  0.14372  1.0000
  H   H984      1.0  0.98009  0.67013  0.07628  1.0000
  H   H985      1.0  0.69799  0.72045  0.45436  1.0000
  C   C827      1.0  0.68021  0.98534  0.45625  1.0000
  H   H986      1.0  0.67564  0.74241  0.02487  1.0000
  H   H987      1.0  0.73668  0.70597  0.42082  1.0000
  H   H988      1.0  0.79358  0.67146  0.45319  1.0000
  H   H989      1.0  0.76627  0.66926  0.42228  1.0000
  H   H990      1.0  0.66640  0.77417  0.47321  1.0000
  H   H991      1.0  0.85636  0.69208  0.18269  1.0000
  H   H992      1.0  0.83086  0.74696  0.45491  1.0000
  N   N54       1.0  0.58507  0.73558  0.43620  1.0000
  H   H993      1.0  0.75360  0.67683  0.15213  1.0000
  H   H994      1.0  0.63763  0.89426  0.46731  1.0000
  N   N55       1.0  0.90905  0.69839  0.16579  1.0000
  S   S225      1.0  0.74436  0.66129  0.36371  1.0000
  C   C828      1.0  0.91340  0.68107  0.15383  1.0000
  C   C829      1.0  0.77364  0.67829  0.43945  1.0000
  C   C830      1.0  0.68586  0.66643  0.14567  1.0000
  C   C831      1.0  0.52058  0.66214  0.32731  1.0000
  H   H995      1.0  0.75208  0.69250  0.39237  1.0000
  H   H996      1.0  0.69911  0.66864  0.27378  1.0000
  H   H997      1.0  0.83213  0.70029  0.39836  1.0000
  H   H998      1.0  0.54587  0.74291  0.40433  1.0000
  N   N56       1.0  0.78877  0.69412  0.42758  1.0000
  H   H999      1.0  0.63407  0.77401  0.07374  1.0000
  H   H1000     1.0  0.76544  0.67085  0.19956  1.0000
  C   C832      1.0  0.94474  0.70494  0.17419  1.0000
  H   H1001     1.0  0.74828  0.68089  0.45181  1.0000
  H   H1002     1.0  0.54030  0.72521  0.45993  1.0000
  H   H1003     1.0  0.92972  0.68078  0.13385  1.0000
  C   C833      1.0  0.61193  0.72910  0.41509  1.0000
  H   H1004     1.0  0.88685  0.67568  0.14789  1.0000
  C   C834      1.0  0.82110  0.68934  0.41022  1.0000
  C   C835      1.0  0.98323  0.68371  0.07696  1.0000
  C   C836      1.0  0.76100  0.70171  0.40855  1.0000
  H   H1005     1.0  0.68922  0.97536  0.44199  1.0000
  H   H1006     1.0  0.90970  0.70978  0.12391  1.0000
  H   H1007     1.0  0.65992  0.87402  0.46330  1.0000
  C   C837      1.0  0.97364  0.70546  0.15413  1.0000
  C   C838      1.0  0.73542  0.66971  0.23788  1.0000
  C   C839      1.0  0.79872  0.70659  0.44954  1.0000
  H   H1008     1.0  0.57704  0.75902  0.41291  1.0000
  C   C840      1.0  0.56193  0.72120  0.44460  1.0000
  C   C841      1.0  0.66409  0.88738  0.46976  1.0000
  C   C842      1.0  0.85694  0.98067  0.99972  1.0000
  H   H1009     1.0  0.75832  0.77394  0.47981  1.0000
  C   C843      1.0  0.70288  0.66588  0.25132  1.0000
  C   C844      1.0  0.98549  0.71798  0.20862  1.0000
  C   C845      1.0  0.56138  0.74847  0.42221  1.0000
  C   C846      1.0  0.81260  0.72252  0.44139  1.0000
  H   H1010     1.0  0.81452  0.67964  0.39389  1.0000
  H   H1011     1.0  0.69797  0.78269  0.06102  1.0000
  H   H1012     1.0  0.68367  0.89294  0.45440  1.0000
  H   H1013     1.0  0.68588  0.68017  0.15083  1.0000
  H   H1014     1.0  0.74296  0.98858  0.00270  1.0000
  C   C847      1.0  0.60440  0.74331  0.46030  1.0000
  H   H1015     1.0  0.75678  0.67542  0.25009  1.0000
  H   H1016     1.0  0.54880  0.66554  0.32514  1.0000
  H   H1017     1.0  0.92685  0.67234  0.16927  1.0000
  C   C848      1.0  0.82145  0.73467  0.46163  1.0000
  H   H1018     1.0  0.75172  0.66087  0.12540  1.0000
  C   C849      1.0  0.74529  0.76226  0.47441  1.0000
  H   H1019     1.0  0.99500  0.73215  0.08015  1.0000
  H   H1020     1.0  0.50099  0.68366  0.30363  1.0000
  C   C850      1.0  0.75021  0.66299  0.14881  1.0000
  C   C851      1.0  0.79456  0.70354  0.47924  1.0000
  C   C852      1.0  0.64762  0.76411  0.47760  1.0000
  C   C853      1.0  0.71178  0.66012  0.19199  1.0000
  H   H1021     1.0  0.65860  0.66161  0.15096  1.0000
  C   C854      1.0  0.67489  0.65898  0.23573  1.0000
  Fe  Fe113     1.0  0.69547  0.93200  0.58343  1.0000
  S   S226      1.0  0.70945  0.95834  0.59766  1.0000
  S   S227      1.0  0.74093  0.91317  0.57295  1.0000
  Fe  Fe114     1.0  0.61420  0.93883  0.58938  1.0000
  S   S228      1.0  0.62240  0.96528  0.60457  1.0000
  S   S229      1.0  0.56011  0.92587  0.58462  1.0000
  Fe  Fe115     1.0  0.66361  0.96697  0.56888  1.0000
  H   H1022     1.0  0.85240  0.98267  0.92835  1.0000
  Fe  Fe116     1.0  0.66741  0.95429  0.63188  1.0000
  S   S230      1.0  0.66682  0.96034  0.67972  1.0000
  S   S231      1.0  0.65288  0.94091  0.55230  1.0000
  S   S232      1.0  0.65598  0.92756  0.61892  1.0000
  Fe  Fe117     1.0  0.83715  0.79823  0.57262  1.0000
  S   S233      1.0  0.81965  0.77293  0.58923  1.0000
  S   S234      1.0  0.89502  0.80797  0.56657  1.0000
  Fe  Fe118     1.0  0.75892  0.81304  0.57586  1.0000
  S   S235      1.0  0.73689  0.78858  0.59243  1.0000
  S   S236      1.0  0.71565  0.83401  0.57514  1.0000
  Fe  Fe119     1.0  0.78519  0.78762  0.62124  1.0000
  S   S237      1.0  0.78976  0.78724  0.67003  1.0000
  Fe  Fe120     1.0  0.77227  0.77608  0.55854  1.0000
  S   S238      1.0  0.74905  0.75390  0.53259  1.0000
  S   S239      1.0  0.80536  0.81266  0.60599  1.0000
  S   S240      1.0  0.79164  0.80077  0.54041  1.0000
  Fe  Fe121     1.0  0.79198  0.95520  0.82123  1.0000
  S   S241      1.0  0.80970  0.92993  0.83935  1.0000
  S   S242      1.0  0.79346  0.95750  0.77250  1.0000
  Fe  Fe122     1.0  0.78949  0.97180  0.88128  1.0000
  S   S243      1.0  0.80540  0.94741  0.90253  1.0000
  H   H1023     1.0  0.83504  0.95832  0.95732  1.0000
  Fe  Fe123     1.0  0.84681  0.94462  0.86751  1.0000
  S   S244      1.0  0.90392  0.93586  0.87946  1.0000
  Fe  Fe124     1.0  0.76688  0.93496  0.87249  1.0000
  S   S245      1.0  0.72778  0.91522  0.88902  1.0000
  S   S246      1.0  0.83277  0.96943  0.84719  1.0000
  S   S247      1.0  0.74717  0.95979  0.85339  1.0000
  Fe  Fe125     1.0  0.67055  0.78661  0.81560  1.0000
  S   S248      1.0  0.64634  0.81273  0.81970  1.0000
  S   S249      1.0  0.67760  0.77372  0.77209  1.0000
  Fe  Fe126     1.0  0.67635  0.78223  0.88113  1.0000
  S   S250      1.0  0.65343  0.80858  0.88934  1.0000
  S   S251      1.0  0.68855  0.76038  0.91274  1.0000
  Fe  Fe127     1.0  0.61192  0.80269  0.85555  1.0000
  S   S252      1.0  0.55362  0.81340  0.85993  1.0000
  Fe  Fe128     1.0  0.68901  0.81683  0.85270  1.0000
  S   S253      1.0  0.72489  0.83933  0.84328  1.0000
  S   S254      1.0  0.63280  0.77609  0.84911  1.0000
  S   S255      1.0  0.71505  0.79094  0.84685  1.0000
  C   C855      1.0  0.71459  0.75609  0.94412  1.0000
  H   H1024     1.0  0.79968  0.70386  0.91237  1.0000
  C   C856      1.0  0.64987  0.88103  0.51870  1.0000
  C   C857      1.0  0.71394  0.73975  0.95622  1.0000
  H   H1025     1.0  0.73678  0.78089  0.94830  1.0000
  H   H1026     1.0  0.66734  0.81558  0.66083  1.0000
  H   H1027     1.0  0.69778  0.73016  0.94633  1.0000
  H   H1028     1.0  0.55680  0.97406  0.64820  1.0000
  C   C858      1.0  0.88032  0.97713  0.92805  1.0000
  C   C859      1.0  0.60127  0.73737  0.48882  1.0000
  H   H1029     1.0  0.52991  0.77858  0.84887  1.0000
  H   H1030     1.0  0.78009  0.73376  0.91850  1.0000
  H   H1031     1.0  0.68111  0.96914  0.49360  1.0000
  C   C860      1.0  0.65732  0.90677  0.83541  1.0000
  H   H1032     1.0  0.69877  0.86022  0.65961  1.0000
  H   H1033     1.0  0.71405  0.96095  0.77756  1.0000
  H   H1034     1.0  0.61801  0.91861  0.86305  1.0000
  C   C861      1.0  0.72903  0.89386  0.87737  1.0000
  C   C862      1.0  0.70694  0.88197  0.89101  1.0000
  C   C863      1.0  0.70613  0.86507  0.88150  1.0000
  C   C864      1.0  0.72676  0.86000  0.85780  1.0000
  C   C865      1.0  0.74927  0.87182  0.84449  1.0000
  C   C866      1.0  0.75054  0.88863  0.85426  1.0000
  H   H1035     1.0  0.69048  0.88587  0.90907  1.0000
  H   H1036     1.0  0.68983  0.85596  0.89262  1.0000
  H   H1037     1.0  0.76563  0.86799  0.82633  1.0000
  H   H1038     1.0  0.76765  0.89760  0.84357  1.0000
  C   C867      1.0  0.97791  0.93780  0.87543  1.0000
  C   C868      1.0  0.94457  0.94606  0.87001  1.0000
  C   C869      1.0  0.94445  0.96208  0.85734  1.0000
  H   H1039     1.0  0.97825  0.92543  0.88534  1.0000
  H   H1040     1.0  0.91901  0.96870  0.85361  1.0000
  N   N57       1.0  0.67722  0.88850  0.49939  1.0000
  H   H1041     1.0  0.54701  0.85099  0.86329  1.0000
  C   C870      1.0  0.51814  0.93674  0.59003  1.0000
  C   C871      1.0  0.75733  0.78395  0.69776  1.0000
  C   C872      1.0  0.76506  0.78953  0.72547  1.0000
  C   C873      1.0  0.74075  0.78681  0.74832  1.0000
  C   C874      1.0  0.70849  0.77824  0.74382  1.0000
  C   C875      1.0  0.70083  0.77260  0.71613  1.0000
  C   C876      1.0  0.72486  0.77556  0.69319  1.0000
  H   H1042     1.0  0.79005  0.79602  0.72935  1.0000
  H   H1043     1.0  0.74714  0.79125  0.76943  1.0000
  H   H1044     1.0  0.67609  0.76585  0.71239  1.0000
  H   H1045     1.0  0.71862  0.77101  0.67211  1.0000
  C   C877      1.0  0.96915  0.81044  0.57223  1.0000
  C   C878      1.0  0.93989  0.79933  0.57059  1.0000
  C   C879      1.0  0.94721  0.78190  0.57209  1.0000
  H   H1046     1.0  0.96396  0.82395  0.57095  1.0000
  H   H1047     1.0  0.92519  0.77314  0.57059  1.0000
  H   H1048     1.0  0.51241  0.98951  0.55683  1.0000
  H   H1049     1.0  0.88203  0.96810  0.90986  1.0000
  H   H1050     1.0  0.68352  0.80984  0.70684  1.0000
  H   H1051     1.0  0.54121  0.96106  0.59776  1.0000
  H   H1052     1.0  0.79910  0.71354  0.52182  1.0000
  H   H1053     1.0  0.68297  0.75042  0.81914  1.0000
  N   N58       1.0  0.70993  0.83356  0.66696  1.0000
  H   H1054     1.0  0.66022  0.86563  0.81635  1.0000
  C   C880      1.0  0.70237  0.95859  0.70520  1.0000
  C   C881      1.0  0.73870  0.95614  0.69724  1.0000
  C   C882      1.0  0.76607  0.95568  0.71813  1.0000
  C   C883      1.0  0.75751  0.95739  0.74728  1.0000
  C   C884      1.0  0.72110  0.95950  0.75529  1.0000
  C   C885      1.0  0.69379  0.96023  0.73436  1.0000
  H   H1055     1.0  0.74581  0.95492  0.67494  1.0000
  H   H1056     1.0  0.79408  0.95408  0.71161  1.0000
  C   C886      1.0  0.73580  0.76828  0.95722  1.0000
  H   H1057     1.0  0.70636  0.83760  0.78190  1.0000
  C   C887      1.0  0.73455  0.89121  0.57717  1.0000
  C   C888      1.0  0.76406  0.87990  0.57320  1.0000
  C   C889      1.0  0.75901  0.86227  0.57347  1.0000
  C   C890      1.0  0.72427  0.85589  0.57735  1.0000
  C   C891      1.0  0.69500  0.86721  0.58208  1.0000
  C   C892      1.0  0.70010  0.88478  0.58220  1.0000
  H   H1058     1.0  0.79080  0.88480  0.56926  1.0000
  H   H1059     1.0  0.78178  0.85368  0.56978  1.0000
  H   H1060     1.0  0.66807  0.86238  0.58520  1.0000
  H   H1061     1.0  0.67718  0.89336  0.58526  1.0000
  N   N59       1.0  0.59713  0.86093  0.84677  1.0000
  C   C893      1.0  0.61990  0.84958  0.86462  1.0000
  H   H1062     1.0  0.69800  0.81723  0.63146  1.0000
  C   C894      1.0  0.59036  0.85247  0.81915  1.0000
  C   C895      1.0  0.64887  0.87709  0.82560  1.0000
  C   C896      1.0  0.86403  0.95419  0.95873  1.0000
  H   H1063     1.0  0.68611  0.84674  0.63125  1.0000
  H   H1064     1.0  0.62594  0.85556  0.88543  1.0000
  H   H1065     1.0  0.60628  0.83747  0.86923  1.0000
  C   C897      1.0  0.62112  0.74459  0.51082  1.0000
  H   H1066     1.0  0.71271  0.80639  0.66272  1.0000
  C   C898      1.0  0.69280  0.82270  0.74537  1.0000
  C   C899      1.0  0.69888  0.74409  0.83634  1.0000
  H   H1067     1.0  0.57409  0.84084  0.82197  1.0000
  C   C900      1.0  0.69629  0.81747  0.65518  1.0000
  H   H1068     1.0  0.76560  0.82495  0.66564  1.0000
  H   H1069     1.0  0.78379  0.69195  0.48758  1.0000
  H   H1070     1.0  0.66021  0.91491  0.50096  1.0000
  H   H1071     1.0  0.92891  0.95138  0.93764  1.0000
  H   H1072     1.0  0.70092  0.75350  0.85370  1.0000
  C   C901      1.0  0.60562  0.89242  0.85540  1.0000
  H   H1073     1.0  0.61572  0.84813  0.80835  1.0000
  C   C902      1.0  0.70654  0.83684  0.75883  1.0000
  C   C903      1.0  0.56148  0.86321  0.86136  1.0000
  H   H1074     1.0  0.73269  0.85935  0.70124  1.0000
  C   C904      1.0  0.61653  0.87694  0.84218  1.0000
  H   H1075     1.0  0.97710  0.98180  0.83919  1.0000
  H   H1076     1.0  0.57326  0.92845  0.66810  1.0000
  H   H1077     1.0  0.76125  0.76144  0.83601  1.0000
  C   C905      1.0  0.66855  0.89186  0.82199  1.0000
  H   H1078     1.0  0.66051  0.76310  0.52214  1.0000
  H   H1079     1.0  0.74957  0.83453  0.63311  1.0000
  C   C906      1.0  0.62595  0.90705  0.85205  1.0000
  C   C907      1.0  0.76512  0.71125  0.84628  1.0000
  C   C908      1.0  0.76602  0.99112  0.96052  1.0000
  H   H1080     1.0  0.55337  0.96039  0.72384  1.0000
  C   C909      1.0  0.92626  0.96158  0.95399  1.0000
  H   H1081     1.0  0.58205  0.89348  0.86903  1.0000
  H   H1082     1.0  0.57536  0.86106  0.80438  1.0000
  H   H1083     1.0  0.76156  0.70421  0.82689  1.0000
  C   C910      1.0  0.68758  0.84760  0.65487  1.0000
  H   H1084     1.0  0.98851  0.76226  0.57630  1.0000
  C   C911      1.0  0.73764  0.75055  0.49593  1.0000
  C   C912      1.0  0.70859  0.83440  0.69846  1.0000
  H   H1085     1.0  0.56455  0.86781  0.88357  1.0000
  H   H1086     1.0  0.64628  0.84632  0.85420  1.0000
  C   C913      1.0  0.72080  0.84991  0.74262  1.0000
  H   H1087     1.0  0.70686  0.91163  0.49282  1.0000
  C   C914      1.0  0.59964  0.88372  0.55320  1.0000
  H   H1088     1.0  0.68177  0.81251  0.75808  1.0000
  H   H1089     1.0  0.73144  0.86091  0.75324  1.0000
  H   H1090     1.0  0.74347  0.76045  0.80088  1.0000
  C   C915      1.0  0.56770  0.95147  0.70908  1.0000
  C   C916      1.0  0.88509  0.98121  0.97886  1.0000
  H   H1091     1.0  0.75504  0.72344  0.79024  1.0000
  C   C917      1.0  0.72897  0.72793  0.79991  1.0000
  H   H1092     1.0  0.71151  0.71691  0.80429  1.0000
  H   H1093     1.0  0.67375  0.91796  0.83376  1.0000
  H   H1094     1.0  0.89901  0.98759  0.92320  1.0000
  H   H1095     1.0  0.75965  0.84754  0.66260  1.0000
  H   H1096     1.0  0.72104  0.87785  0.52397  1.0000
  H   H1097     1.0  0.71489  0.73567  0.78321  1.0000
  N   N60       1.0  0.90573  0.95119  0.77556  1.0000
  C   C918      1.0  0.89384  0.94746  0.74617  1.0000
  C   C919      1.0  0.88669  0.93945  0.79503  1.0000
  C   C920      1.0  0.89365  0.96867  0.78302  1.0000
  C   C921      1.0  0.94574  0.94973  0.77727  1.0000
  C   C922      1.0  0.96394  0.93792  0.79540  1.0000
  C   C923      1.0  0.96782  0.96049  0.76060  1.0000
  H   H1098     1.0  0.75261  0.98016  0.95218  1.0000
  H   H1099     1.0  0.82267  0.74097  0.50614  1.0000
  C   C924      1.0  0.80356  0.71580  0.49929  1.0000
  H   H1100     1.0  0.90303  0.93456  0.73950  1.0000
  H   H1101     1.0  0.86368  0.94810  0.74438  1.0000
  H   H1102     1.0  0.90440  0.95662  0.73036  1.0000
  H   H1103     1.0  0.89344  0.92598  0.79014  1.0000
  H   H1104     1.0  0.85676  0.94081  0.79306  1.0000
  H   H1105     1.0  0.89315  0.94197  0.81772  1.0000
  H   H1106     1.0  0.90307  0.97821  0.76743  1.0000
  H   H1107     1.0  0.86353  0.97000  0.78358  1.0000
  H   H1108     1.0  0.90375  0.97232  0.80434  1.0000
  H   H1109     1.0  0.94966  0.92940  0.80931  1.0000
  H   H1110     1.0  0.95594  0.96973  0.74627  1.0000
  C   C925      1.0  0.97123  0.80791  0.67231  1.0000
  C   C926      1.0  0.73415  0.73561  0.98087  1.0000
  H   H1111     1.0  0.94639  0.97115  0.94773  1.0000
  N   N61       1.0  0.90860  0.79959  0.65762  1.0000
  C   C927      1.0  0.90120  0.81631  0.64414  1.0000
  C   C928      1.0  0.88870  0.78676  0.64117  1.0000
  C   C929      1.0  0.89340  0.79975  0.68693  1.0000
  C   C930      1.0  0.94825  0.79629  0.65863  1.0000
  H   H1112     1.0  0.69370  0.89157  0.80992  1.0000
  C   C931      1.0  0.96526  0.78179  0.64607  1.0000
  H   H1113     1.0  0.66210  0.85469  0.50724  1.0000
  H   H1114     1.0  0.62629  0.90475  0.53592  1.0000
  C   C932      1.0  0.75978  0.73629  0.87578  1.0000
  H   H1115     1.0  0.91478  0.81712  0.62294  1.0000
  H   H1116     1.0  0.87172  0.81866  0.64072  1.0000
  H   H1117     1.0  0.91082  0.82701  0.65710  1.0000
  H   H1118     1.0  0.89798  0.78630  0.61861  1.0000
  H   H1119     1.0  0.85910  0.78970  0.64061  1.0000
  H   H1120     1.0  0.89154  0.77392  0.65075  1.0000
  H   H1121     1.0  0.90466  0.80998  0.70015  1.0000
  H   H1122     1.0  0.86334  0.80169  0.68687  1.0000
  H   H1123     1.0  0.89921  0.78751  0.69794  1.0000
  H   H1124     1.0  0.96026  0.81913  0.68255  1.0000
  H   H1125     1.0  0.86840  0.94462  0.94154  1.0000
  C   C933      1.0  0.57537  0.94175  0.66083  1.0000
  H   H1126     1.0  0.56534  0.94243  0.63864  1.0000
  H   H1127     1.0  0.54338  0.87210  0.84943  1.0000
  C   C934      1.0  0.69393  0.82135  0.71567  1.0000
  C   C935      1.0  0.74783  0.83524  0.65678  1.0000
  H   H1128     1.0  0.78411  0.74867  0.80984  1.0000
  H   H1129     1.0  0.56273  0.93840  0.71674  1.0000
  C   C936      1.0  0.71256  0.87917  0.50144  1.0000
  H   H1130     1.0  0.59741  0.95357  0.71110  1.0000
  H   H1131     1.0  0.65933  0.84737  0.66331  1.0000
  H   H1132     1.0  0.68251  0.73351  0.84481  1.0000
  C   C937      1.0  0.75340  0.72843  0.84917  1.0000
  H   H1133     1.0  0.71447  0.72625  0.50453  1.0000
  C   C938      1.0  0.78175  0.70257  0.86888  1.0000
  N   N62       1.0  0.73494  0.73799  0.82609  1.0000
  C   C939      1.0  0.75689  0.75275  0.81789  1.0000
  H   H1134     1.0  0.79032  0.68945  0.86637  1.0000
  C   C940      1.0  0.72163  0.84882  0.71289  1.0000
  C   C941      1.0  0.77621  0.72749  0.89822  1.0000
  H   H1135     1.0  0.59604  0.97269  0.67018  1.0000
  H   H1136     1.0  0.66585  0.96223  0.74082  1.0000
  H   H1137     1.0  0.55531  0.98120  0.68494  1.0000
  H   H1138     1.0  0.75160  0.74931  0.87966  1.0000
  C   C942      1.0  0.51020  0.80392  0.85706  1.0000
  C   C943      1.0  0.56607  0.97126  0.67025  1.0000
  C   C944      1.0  0.97742  0.96954  0.84944  1.0000
  C   C945      1.0  0.78714  0.71065  0.89481  1.0000
  H   H1139     1.0  0.61722  0.84233  0.53865  1.0000
  H   H1140     1.0  0.69147  0.90824  0.52844  1.0000
  H   H1141     1.0  0.60489  0.94421  0.66018  1.0000
  N   N63       1.0  0.55547  0.95402  0.67939  1.0000
  H   H1142     1.0  0.95029  0.77229  0.63497  1.0000
  C   C946      1.0  0.51653  0.95399  0.59659  1.0000
  H   H1143     1.0  0.51924  0.92413  0.68618  1.0000
  C   C947      1.0  0.64539  0.86323  0.51984  1.0000
  H   H1144     1.0  0.58179  0.89169  0.56616  1.0000
  H   H1145     1.0  0.57656  0.86056  0.56813  1.0000
  C   C948      1.0  0.59660  0.86620  0.55428  1.0000
  C   C949      1.0  0.64432  0.75788  0.50520  1.0000
  C   C950      1.0  0.62564  0.89111  0.53561  1.0000
  C   C951      1.0  0.72073  0.73540  0.48817  1.0000
  C   C952      1.0  0.68408  0.90657  0.50571  1.0000
  H   H1146     1.0  0.61898  0.73970  0.53234  1.0000
  C   C953      1.0  0.98325  0.77576  0.57518  1.0000
  C   C954      1.0  0.61938  0.85598  0.53759  1.0000
  C   C955      1.0  0.51591  0.95132  0.67783  1.0000
  C   C956      1.0  0.50613  0.78667  0.85159  1.0000
  C   C957      1.0  0.67554  0.98175  0.48554  1.0000
  H   H1147     1.0  0.58411  0.72702  0.49466  1.0000
  C   C958      1.0  0.81696  0.73131  0.49051  1.0000
  N   N64       1.0  0.88870  0.96869  0.95548  1.0000
  H   H1148     1.0  0.71196  0.86627  0.49220  1.0000
  H   H1149     1.0  0.73473  0.88574  0.48999  1.0000
  C   C959      1.0  0.50172  0.93490  0.68167  1.0000
  S   S256      1.0  0.66202  0.99134  0.54205  1.0000
  H   H1150     1.0  0.86836  0.94751  0.97934  1.0000
  H   H1151     1.0  0.93451  0.95607  0.97485  1.0000
  H   H1152     1.0  0.76376  0.98133  0.48622  1.0000
  C   C960      1.0  0.75591  0.76416  0.98193  1.0000
