data_image0
_chemical_formula_structural       FeS2FeS2FeSFeS3FeS2FeS2FeSFeS3FeS2HCHFeS2C3H2C6H4C3H3C2H7C7H4CH4C2H2CHCH5CHC5H3C2HCHNH2C9H2NH2CH6CH6CHC4H2CH2C2H2CHNC4HCNH3CH6CH3NH4C2HC2HC2HC2H2C2NH2CH3FeS2FeS2FeSFeS3FeS2FeS2FeSFeS3CSHCHC2HC6H4C2H2CHC2H3C2H2C6H4C4H3C4H5C2HCHC2H2CHCH2CHC2NH3C3SHCH2CHC2HNC8H12SCH2C2NC9H14C2H2CH2CFeC2HC2H5NSHCNCH2FeH5CHCHFeS2FeS2FeSFeS3FeS2FeS2FeSFeS3FeS2FeS2H6C2H2C6H4C4HCH3CH3C6H4C3HCNC4HCH12C2H3C4H2C4H2C4H2CH3C2H2CH3CNHCH4CH3C2NH2C2H3C4H2NH5CH3CHC2H6CHNCFeS2FeS2FeSFeS3FeS2FeS2FeSFeS3CH3SHCHC6H6C5H2C2HCHCH2C6H4C3H2NC2HCH2CHC2SHCH4FeH2C2H2CH2CH2CH3CH3CH2CHC4H3SCH3C2HC2FeHCH2CHCH2CHCH2CSHCH5CHC2H4CNC6HCH2C2NHCNCH5CH2CH3C2HC3HFeS2FeS2FeSFeS3FeS2FeS2FeSFeS3FeS2FeS2CH2C6H5C4H2C3HCH3NCH2C2HC7H4NC3H2CH8CH2C2HCH2NC3H3CH2C2HC2H2C3NC8H7CH2CH6CH3C2HCH4CH5CHC2NCHC2HCH6C2H2C3H4C2HC3H3FeS2FeS2FeSFeS3FeS2FeS2FeSFeS3H2SFeS2C6H4C2H3C2NHC4H4C6H5C2H2C3HNC4H3CFeCH6C3H4CHNC9H12CH2C5HCH12C3H3CHCH3C3H2CNH4CHC4SCH2CHCH2C3NHC3H8CHCFeS2FeS2FeSFeS3FeS2FeS2FeSFeS3FeS2HFeSHSCH2C6H5C3HC2H4NCH2C6H4C2H3C3HNC6HCH15NH6CH2C2NH2CH5C2NHC2H2C3H4NC9H14C2H2CHCHCHCHC4HC3HC5FeS2FeS2FeSFeS3FeS2FeS2FeSFeS3HS2HC6H4FeH3C2H4C4H4CHCH3CH4C7H4C3H3NC4H5C4H2CH3CH3C2H3NC9H8CH2CHCHC2HCNCH5C2HC2HCSC4HCH2CH2FeCHC2NHC2H4CSC2HCHCH3CHFeS2FeS2FeSFeS3FeS2FeS2FeSFeS3FeS2FeS2CH3CH2C2H2C6H4CH3C3HC3HC7H4C3H4CH5CHCHCHCHCNC4NHCHCH9C2H3NC9H11CH5C3HC2H2C2HCHCH2CNCH2CH2CH2NFeS2FeS2FeSFeS3FeS2FeS2FeSFeS3CHSFeS2CHCH2C6H4CHC3H2C3HCH2C2H3C3SCH3C6H5C2H5NH5C3HCH3C3HNHCH3C2H7CH2C2NC9H13CH3CFeH5NC3HNC2HCH4CH3CH3C3HCH2C3H2CHCH2NHC3H2FeS2FeS2FeSFeS3FeS2FeS2FeSFeS3FeS2H3FeSHSH3C2H2CH3C3H2C6H4C3H2C6H4CHC3H2NC9H11C2H9CNCHCH2CH2C3H3CHC2NHCHCH2C2HCHCNCH6NCH2C3HCHCH6CH2C3HCHCH2CHCHCNCHC2H2CHCH3CH2CH4FeS2FeS2FeSFeS3FeS2FeS2FeSFeS4HSCH3C2NH5C2NCH2C6H4C2SHC7H6C2FeHC2H3SH2C2HCHCHFeHC2HC2NC2HCH3CH2CHC3NC8H12C2HNC9H19CHCHC2H2C2H5C3H5CH3CHC2HC2FeS2FeS2FeSFeS3FeS2FeS2FeSFeS3FeS2FeS2CH5C2H2C6H4CH2C6H5CH2C2HCH3C4HC2HCHNHC2H9CHCHCHCH3C2HCHCH3C4NH4C2H2C4H5C2HC2HNC9H12CNCHC3H2CHCH2C4HC2HCH2CH2C6HCH2NCH4FeS2FeS2FeSFeS3FeS2FeS2FeSFeS3H2SFeSHCHC2HCH2C6H4C4H2C2H2C2H2C7H4SC2H2CH2CNCHCHC2HCHC2HCH4CNHCH5C2FeHSHC4H5NCH3CH2CHCH2C3HCHCH2CH4C2HC4H2NH3CHC5H5CHCHC2H4CH2C2HC2H2CH9CFeS2FeS2FeSFeS3FeS2FeS2FeSFeS3FeS2FeS2H3C3H2C7H4CNC2H3C2H4CH3C6H4NC9H15CH2C6H3NC2H4CH3C3H2C2H3C5H2C2HCH3C2HCH3C4NC2HCH3CH5C2HCH2CHCHCHC2H2CFeS2FeS2FeSFeS3FeS2FeS2FeSFeS3H2SNSHCHCHCH2C6H4C3HC2H3C3H2C6H4C4H2C3H4CH2C3HC3H6CH2NHFeHNCFeH3C2H3CH5CHC2H5CHC2HCH3CHC2HCH4CH2CSCHC2NHC4NC3SH3CH2CHC2H5CH3CHC3HC2HC2HC2H2C2H2CH2
_chemical_formula_sum              "Fe160 S320 H1440 C1200 N80"
_cell_length_a       55.1289
_cell_length_b       58.8794
_cell_length_c       59.605
_cell_angle_alpha    88.9733
_cell_angle_beta     90.0768
_cell_angle_gamma    92.1063

_space_group_name_H-M_alt    "P 1"
_space_group_IT_number       1

loop_
  _space_group_symop_operation_xyz
  'x, y, z'

loop_
  _atom_site_type_symbol
  _atom_site_label
  _atom_site_symmetry_multiplicity
  _atom_site_fract_x
  _atom_site_fract_y
  _atom_site_fract_z
  _atom_site_occupancy
  Fe  Fe1       1.0  0.38799  0.08645  0.10289  1.0000
  S   S1        1.0  0.40207  0.09335  0.06787  1.0000
  S   S2        1.0  0.39483  0.05255  0.12007  1.0000
  Fe  Fe2       1.0  0.37622  0.13630  0.11136  1.0000
  S   S3        1.0  0.39017  0.14632  0.07699  1.0000
  S   S4        1.0  0.36544  0.16771  0.13115  1.0000
  Fe  Fe3       1.0  0.36996  0.11549  0.06437  1.0000
  S   S5        1.0  0.34896  0.12353  0.03263  1.0000
  Fe  Fe4       1.0  0.42123  0.12360  0.08304  1.0000
  S   S6        1.0  0.45795  0.13620  0.06978  1.0000
  S   S7        1.0  0.35385  0.10642  0.09839  1.0000
  S   S8        1.0  0.40931  0.11582  0.11833  1.0000
  Fe  Fe5       1.0  0.14033  0.38885  0.06013  1.0000
  S   S9        1.0  0.11710  0.41757  0.06916  1.0000
  S   S10       1.0  0.15927  0.39043  0.02616  1.0000
  Fe  Fe6       1.0  0.13409  0.36557  0.10679  1.0000
  S   S11       1.0  0.10949  0.39291  0.11881  1.0000
  S   S12       1.0  0.14117  0.33346  0.12837  1.0000
  Fe  Fe7       1.0  0.09194  0.39080  0.08473  1.0000
  S   S13       1.0  0.05333  0.39790  0.07420  1.0000
  Fe  Fe8       1.0  0.13632  0.41751  0.10213  1.0000
  S   S14       1.0  0.15076  0.45043  0.11723  1.0000
  S   S15       1.0  0.11414  0.36176  0.07351  1.0000
  S   S16       1.0  0.16203  0.39050  0.09225  1.0000
  Fe  Fe9       1.0  0.26544  0.22322  0.21670  1.0000
  S   S17       1.0  0.22544  0.23118  0.21635  1.0000
  S   S18       1.0  0.28004  0.19186  0.19903  1.0000
  H   H1        1.0  0.41062  0.17187  0.15460  1.0000
  C   C1        1.0  0.26962  0.18811  0.08450  1.0000
  H   H2        1.0  0.47309  0.09398  0.01814  1.0000
  Fe  Fe10      1.0  0.23786  0.26824  0.21403  1.0000
  S   S19       1.0  0.22783  0.29907  0.19176  1.0000
  S   S20       1.0  0.27752  0.25986  0.21215  1.0000
  C   C2        1.0  0.13412  0.47540  0.11475  1.0000
  C   C3        1.0  0.11131  0.47515  0.10450  1.0000
  C   C4        1.0  0.43041  0.08078  0.00067  1.0000
  H   H3        1.0  0.10370  0.45944  0.09795  1.0000
  H   H4        1.0  0.28025  0.16342  0.04575  1.0000
  C   C5        1.0  0.16558  0.32431  0.14587  1.0000
  C   C6        1.0  0.18694  0.33749  0.14901  1.0000
  C   C7        1.0  0.20567  0.32943  0.16301  1.0000
  C   C8        1.0  0.20345  0.30808  0.17411  1.0000
  C   C9        1.0  0.18212  0.29487  0.17091  1.0000
  C   C10       1.0  0.16340  0.30294  0.15691  1.0000
  H   H5        1.0  0.18902  0.35393  0.14071  1.0000
  H   H6        1.0  0.22202  0.33986  0.16520  1.0000
  H   H7        1.0  0.17999  0.27846  0.17926  1.0000
  H   H8        1.0  0.14701  0.29254  0.15469  1.0000
  C   C11       1.0  0.01216  0.44159  0.12903  1.0000
  C   C12       1.0  0.02593  0.38635  0.08572  1.0000
  C   C13       1.0  0.02546  0.36941  0.10249  1.0000
  H   H9        1.0  0.48194  0.14543  0.14201  1.0000
  H   H10       1.0  0.26860  0.31145  0.22185  1.0000
  H   H11       1.0  0.04229  0.36276  0.10867  1.0000
  C   C14       1.0  0.48520  0.12786  0.08262  1.0000
  C   C15       1.0  0.48518  0.11687  0.10361  1.0000
  H   H12       1.0  0.43211  0.11004  0.18583  1.0000
  H   H13       1.0  0.46814  0.11207  0.11168  1.0000
  H   H14       1.0  0.24467  0.21379  0.09376  1.0000
  H   H15       1.0  0.29271  0.14968  0.12176  1.0000
  H   H16       1.0  0.27381  0.12973  0.07206  1.0000
  H   H17       1.0  0.30517  0.18370  0.05109  1.0000
  H   H18       1.0  0.36526  0.07836  0.02272  1.0000
  C   C16       1.0  0.16118  0.47154  0.03172  1.0000
  C   C17       1.0  0.34114  0.17397  0.14962  1.0000
  C   C18       1.0  0.32625  0.15700  0.15975  1.0000
  C   C19       1.0  0.30777  0.16286  0.17479  1.0000
  C   C20       1.0  0.30364  0.18572  0.17974  1.0000
  C   C21       1.0  0.31850  0.20270  0.16955  1.0000
  C   C22       1.0  0.33720  0.19683  0.15475  1.0000
  H   H19       1.0  0.32911  0.13933  0.15624  1.0000
  H   H20       1.0  0.29651  0.14953  0.18265  1.0000
  H   H21       1.0  0.31558  0.22036  0.17305  1.0000
  H   H22       1.0  0.34858  0.21015  0.14706  1.0000
  C   C23       1.0  0.38248  0.02563  0.11213  1.0000
  H   H23       1.0  0.10802  0.38222  0.01563  1.0000
  H   H24       1.0  0.31099  0.15583  0.04184  1.0000
  H   H25       1.0  0.42801  0.13819  0.00460  1.0000
  H   H26       1.0  0.03011  0.46827  0.09437  1.0000
  C   C24       1.0  0.28370  0.16957  0.09177  1.0000
  C   C25       1.0  0.28224  0.16332  0.11488  1.0000
  H   H27       1.0  0.33073  0.17879  0.08569  1.0000
  H   H28       1.0  0.37706  0.24029  0.23899  1.0000
  C   C26       1.0  0.33020  0.22780  0.23028  1.0000
  H   H29       1.0  0.46097  0.20470  0.15525  1.0000
  C   C27       1.0  0.46436  0.14518  0.14997  1.0000
  H   H30       1.0  0.07402  0.43442  0.12569  1.0000
  H   H31       1.0  0.31468  0.21571  0.22690  1.0000
  H   H32       1.0  0.44909  0.10174  0.03607  1.0000
  H   H33       1.0  0.34018  0.19151  0.21078  1.0000
  H   H34       1.0  0.46606  0.12360  0.02136  1.0000
  C   C28       1.0  0.14353  0.38555  0.00074  1.0000
  H   H35       1.0  0.48332  0.00607  0.09756  1.0000
  C   C29       1.0  0.00304  0.36089  0.11110  1.0000
  C   C30       1.0  0.35019  0.00151  0.09639  1.0000
  C   C31       1.0  0.36359  0.08778  0.00707  1.0000
  C   C32       1.0  0.04628  0.46793  0.13643  1.0000
  C   C33       1.0  0.05474  0.42918  0.12923  1.0000
  H   H36       1.0  0.13605  0.27734  0.01246  1.0000
  H   H37       1.0  0.47886  0.16585  0.10914  1.0000
  H   H38       1.0  0.29533  0.32777  0.22998  1.0000
  C   C34       1.0  0.03998  0.45285  0.09936  1.0000
  C   C35       1.0  0.42105  0.12020  0.00511  1.0000
  H   H39       1.0  0.00275  0.34769  0.12396  1.0000
  C   C36       1.0  0.42470  0.15981  0.15721  1.0000
  H   H40       1.0  0.38928  0.14083  0.23046  1.0000
  N   N1        1.0  0.12423  0.31149  0.01605  1.0000
  H   H41       1.0  0.16302  0.45379  0.02759  1.0000
  H   H42       1.0  0.24311  0.20199  0.13379  1.0000
  C   C37       1.0  0.10107  0.32293  0.01951  1.0000
  C   C38       1.0  0.13992  0.31532  0.03594  1.0000
  C   C39       1.0  0.13384  0.30479  0.05692  1.0000
  C   C40       1.0  0.16040  0.33076  0.03562  1.0000
  C   C41       1.0  0.14775  0.30896  0.07613  1.0000
  C   C42       1.0  0.17393  0.33509  0.05506  1.0000
  C   C43       1.0  0.16768  0.32415  0.07524  1.0000
  C   C44       1.0  0.11841  0.38136  0.00028  1.0000
  C   C45       1.0  0.11895  0.28680  0.01299  1.0000
  H   H43       1.0  0.17384  0.48428  0.99966  1.0000
  H   H44       1.0  0.42985  0.20542  0.14631  1.0000
  N   N2        1.0  0.29984  0.15743  0.07655  1.0000
  H   H45       1.0  0.43449  0.16233  0.10270  1.0000
  H   H46       1.0  0.43671  0.19240  0.09750  1.0000
  C   C46       1.0  0.27635  0.32290  0.23493  1.0000
  H   H47       1.0  0.09077  0.31565  0.03415  1.0000
  H   H48       1.0  0.11781  0.29386  0.05893  1.0000
  H   H49       1.0  0.16599  0.34034  0.02079  1.0000
  H   H50       1.0  0.14253  0.30110  0.09211  1.0000
  H   H51       1.0  0.18891  0.34757  0.05458  1.0000
  H   H52       1.0  0.17781  0.32795  0.09043  1.0000
  C   C47       1.0  0.23717  0.33570  0.24611  1.0000
  H   H53       1.0  0.33813  0.15263  0.07259  1.0000
  H   H54       1.0  0.32817  0.15246  0.10105  1.0000
  H   H55       1.0  0.27610  0.35903  0.20746  1.0000
  H   H56       1.0  0.35105  0.03832  0.09532  1.0000
  H   H57       1.0  0.24666  0.36885  0.21598  1.0000
  H   H58       1.0  0.30451  0.12331  0.06489  1.0000
  C   C48       1.0  0.36050  0.02333  0.10049  1.0000
  H   H59       1.0  0.26679  0.16985  0.14732  1.0000
  C   C49       1.0  0.29887  0.16557  0.05282  1.0000
  C   C50       1.0  0.38074  0.15669  0.23392  1.0000
  C   C51       1.0  0.29317  0.13276  0.07683  1.0000
  C   C52       1.0  0.26759  0.17482  0.12971  1.0000
  H   H60       1.0  0.29594  0.12462  0.09356  1.0000
  H   H61       1.0  0.10444  0.34129  0.02296  1.0000
  C   C53       1.0  0.41946  0.14132  0.17165  1.0000
  H   H62       1.0  0.27896  0.38877  0.23229  1.0000
  H   H63       1.0  0.32206  0.24416  0.23460  1.0000
  C   C54       1.0  0.25513  0.19957  0.09954  1.0000
  C   C55       1.0  0.32528  0.16047  0.08429  1.0000
  H   H64       1.0  0.04292  0.46536  0.15474  1.0000
  H   H65       1.0  0.10736  0.27913  0.02655  1.0000
  C   C56       1.0  0.25416  0.19297  0.12209  1.0000
  H   H66       1.0  0.26960  0.19424  0.06733  1.0000
  N   N3        1.0  0.45153  0.18111  0.12926  1.0000
  C   C57       1.0  0.43355  0.17913  0.11082  1.0000
  C   C58       1.0  0.44874  0.20318  0.14043  1.0000
  C   C59       1.0  0.47609  0.18147  0.11895  1.0000
  C   C60       1.0  0.44716  0.16215  0.14562  1.0000
  H   H67       1.0  0.24923  0.34188  0.20338  1.0000
  C   C61       1.0  0.45813  0.10602  0.01973  1.0000
  N   N4        1.0  0.03788  0.44763  0.12371  1.0000
  H   H68       1.0  0.08901  0.32173  0.00453  1.0000
  H   H69       1.0  0.45304  0.21782  0.12884  1.0000
  H   H70       1.0  0.49066  0.18310  0.13182  1.0000
  C   C62       1.0  0.25836  0.35388  0.21524  1.0000
  H   H71       1.0  0.41133  0.00758  0.12808  1.0000
  H   H72       1.0  0.14851  0.46384  0.06523  1.0000
  H   H73       1.0  0.03233  0.43852  0.08930  1.0000
  H   H74       1.0  0.41259  0.11697  0.02189  1.0000
  H   H75       1.0  0.40177  0.13952  0.17956  1.0000
  H   H76       1.0  0.05922  0.45569  0.09407  1.0000
  C   C63       1.0  0.00401  0.41917  0.13534  1.0000
  H   H77       1.0  0.34055  0.23095  0.21445  1.0000
  H   H78       1.0  0.03727  0.48367  0.13096  1.0000
  H   H79       1.0  0.41457  0.18070  0.11674  1.0000
  N   N5        1.0  0.26159  0.34321  0.23779  1.0000
  H   H80       1.0  0.06610  0.47172  0.13418  1.0000
  H   H81       1.0  0.01611  0.40521  0.13671  1.0000
  H   H82       1.0  0.05101  0.41391  0.11889  1.0000
  H   H83       1.0  0.22734  0.32468  0.23377  1.0000
  C   C64       1.0  0.35789  0.19798  0.24319  1.0000
  C   C65       1.0  0.43648  0.12471  0.17514  1.0000
  H   H84       1.0  0.42106  0.07623  0.01679  1.0000
  C   C66       1.0  0.39440  0.00595  0.11895  1.0000
  C   C67       1.0  0.16722  0.48872  0.01607  1.0000
  H   H85       1.0  0.36000  0.15665  0.20328  1.0000
  C   C68       1.0  0.36433  0.16560  0.21864  1.0000
  C   C69       1.0  0.35299  0.18587  0.22315  1.0000
  H   H86       1.0  0.05363  0.42408  0.14727  1.0000
  C   C70       1.0  0.15300  0.47718  0.05291  1.0000
  C   C71       1.0  0.45892  0.12672  0.16443  1.0000
  H   H87       1.0  0.47886  0.19593  0.10682  1.0000
  H   H88       1.0  0.00417  0.40787  0.06483  1.0000
  C   C72       1.0  0.35610  0.11020  0.00720  1.0000
  C   C73       1.0  0.00396  0.39483  0.07785  1.0000
  N   N6        1.0  0.44077  0.10438  0.00068  1.0000
  H   H89       1.0  0.33286  0.99987  0.08795  1.0000
  H   H90       1.0  0.47200  0.11357  0.16691  1.0000
  C   C74       1.0  0.09842  0.49527  0.10270  1.0000
  H   H91       1.0  0.99880  0.47539  0.12153  1.0000
  H   H92       1.0  0.08076  0.49499  0.09477  1.0000
  H   H93       1.0  0.44480  0.06833  0.99800  1.0000
  Fe  Fe11      1.0  0.41337  0.38660  0.36160  1.0000
  S   S21       1.0  0.39621  0.35456  0.37637  1.0000
  S   S22       1.0  0.44893  0.38583  0.34253  1.0000
  Fe  Fe12      1.0  0.37333  0.41609  0.37783  1.0000
  S   S23       1.0  0.35310  0.38615  0.39388  1.0000
  S   S24       1.0  0.35659  0.44996  0.38477  1.0000
  Fe  Fe13      1.0  0.38937  0.37578  0.40657  1.0000
  S   S25       1.0  0.39891  0.36130  0.44101  1.0000
  Fe  Fe14      1.0  0.36104  0.36694  0.36234  1.0000
  S   S26       1.0  0.32944  0.34333  0.35037  1.0000
  S   S27       1.0  0.40918  0.40696  0.39278  1.0000
  S   S28       1.0  0.37856  0.39794  0.34529  1.0000
  Fe  Fe15      1.0  0.13036  0.10622  0.41069  1.0000
  S   S29       1.0  0.09300  0.09221  0.40321  1.0000
  S   S30       1.0  0.14518  0.09997  0.44581  1.0000
  Fe  Fe16      1.0  0.14083  0.11907  0.36093  1.0000
  S   S31       1.0  0.10402  0.10501  0.35019  1.0000
  S   S32       1.0  0.16778  0.13124  0.33325  1.0000
  Fe  Fe17      1.0  0.08996  0.12250  0.38032  1.0000
  S   S33       1.0  0.05607  0.14309  0.37962  1.0000
  Fe  Fe18      1.0  0.11020  0.07563  0.37393  1.0000
  S   S34       1.0  0.09530  0.03991  0.36754  1.0000
  S   S35       1.0  0.12630  0.13842  0.39009  1.0000
  S   S36       1.0  0.14799  0.08782  0.38246  1.0000
  C   C75       1.0  0.15015  0.99613  0.37740  1.0000
  S   S37       1.0  0.20100  0.22379  0.28100  1.0000
  H   H94       1.0  0.45922  0.38457  0.39039  1.0000
  C   C76       1.0  0.11224  0.01523  0.37131  1.0000
  H   H95       1.0  0.12394  0.00067  0.41731  1.0000
  C   C77       1.0  0.13747  0.01628  0.37402  1.0000
  C   C78       1.0  0.27357  0.35855  0.25422  1.0000
  H   H96       1.0  0.14721  0.03257  0.37338  1.0000
  C   C79       1.0  0.17815  0.15743  0.32004  1.0000
  C   C80       1.0  0.19399  0.15674  0.30152  1.0000
  C   C81       1.0  0.20180  0.17682  0.28980  1.0000
  C   C82       1.0  0.19366  0.19798  0.29630  1.0000
  C   C83       1.0  0.17815  0.19870  0.31505  1.0000
  C   C84       1.0  0.17069  0.17866  0.32699  1.0000
  H   H97       1.0  0.20008  0.14050  0.29602  1.0000
  H   H98       1.0  0.21367  0.17586  0.27544  1.0000
  H   H99       1.0  0.17179  0.21492  0.32033  1.0000
  H   H100      1.0  0.15921  0.17969  0.34154  1.0000
  C   C85       1.0  0.02902  0.10933  0.35847  1.0000
  C   C86       1.0  0.02897  0.13002  0.36965  1.0000
  H   H101      1.0  0.12771  0.14952  0.29679  1.0000
  H   H102      1.0  0.04598  0.10125  0.35539  1.0000
  C   C87       1.0  0.13013  0.02202  0.47056  1.0000
  H   H103      1.0  0.00737  0.06893  0.41258  1.0000
  C   C88       1.0  0.13281  0.11092  0.47061  1.0000
  C   C89       1.0  0.11487  0.12713  0.47008  1.0000
  H   H104      1.0  0.33581  0.39571  0.48655  1.0000
  H   H105      1.0  0.10835  0.13348  0.45411  1.0000
  H   H106      1.0  0.29284  0.35843  0.30915  1.0000
  C   C90       1.0  0.36790  0.47681  0.37480  1.0000
  C   C91       1.0  0.38681  0.47897  0.35921  1.0000
  H   H107      1.0  0.34113  0.21070  0.28389  1.0000
  H   H108      1.0  0.39495  0.46391  0.35291  1.0000
  C   C92       1.0  0.32528  0.32558  0.32654  1.0000
  C   C93       1.0  0.34305  0.32372  0.31000  1.0000
  C   C94       1.0  0.33864  0.30970  0.29129  1.0000
  C   C95       1.0  0.31638  0.29747  0.28870  1.0000
  C   C96       1.0  0.29863  0.29927  0.30527  1.0000
  C   C97       1.0  0.30312  0.31314  0.32406  1.0000
  H   H109      1.0  0.36016  0.33318  0.31154  1.0000
  H   H110      1.0  0.35257  0.30849  0.27864  1.0000
  H   H111      1.0  0.28149  0.28988  0.30372  1.0000
  H   H112      1.0  0.28919  0.31439  0.33671  1.0000
  C   C98       1.0  0.35236  0.46890  0.46573  1.0000
  C   C99       1.0  0.03331  0.09790  0.44238  1.0000
  C   C100      1.0  0.38505  0.36941  0.46628  1.0000
  C   C101      1.0  0.36326  0.38080  0.46623  1.0000
  H   H113      1.0  0.09289  0.13476  0.30977  1.0000
  H   H114      1.0  0.36308  0.48192  0.47526  1.0000
  H   H115      1.0  0.35448  0.38471  0.45048  1.0000
  C   C102      1.0  0.40385  0.42831  0.45888  1.0000
  C   C103      1.0  0.47598  0.38224  0.35797  1.0000
  C   C104      1.0  0.47601  0.38252  0.38142  1.0000
  C   C105      1.0  0.13813  0.19833  0.26723  1.0000
  H   H116      1.0  0.32068  0.23103  0.27319  1.0000
  H   H117      1.0  0.03991  0.09363  0.42598  1.0000
  H   H118      1.0  0.29914  0.41231  0.26014  1.0000
  H   H119      1.0  0.15550  0.09083  0.49205  1.0000
  H   H120      1.0  0.00672  0.15642  0.38197  1.0000
  C   C106      1.0  0.38569  0.44173  0.46827  1.0000
  C   C107      1.0  0.42022  0.41676  0.47243  1.0000
  H   H121      1.0  0.31653  0.20159  0.26603  1.0000
  C   C108      1.0  0.10970  0.03680  0.43727  1.0000
  H   H122      1.0  0.09227  0.14840  0.48975  1.0000
  C   C109      1.0  0.10579  0.13553  0.49029  1.0000
  C   C110      1.0  0.38585  0.16802  0.25381  1.0000
  H   H123      1.0  0.09199  0.03108  0.44474  1.0000
  H   H124      1.0  0.01504  0.16411  0.49391  1.0000
  C   C111      1.0  0.29313  0.39509  0.26464  1.0000
  H   H125      1.0  0.39841  0.16089  0.26581  1.0000
  C   C112      1.0  0.13020  0.04254  0.48271  1.0000
  H   H126      1.0  0.11286  0.05514  0.44088  1.0000
  H   H127      1.0  0.13005  0.05884  0.47411  1.0000
  C   C113      1.0  0.13160  0.00147  0.48340  1.0000
  H   H128      1.0  0.36356  0.42559  0.43087  1.0000
  C   C114      1.0  0.27794  0.35077  0.27650  1.0000
  C   C115      1.0  0.12046  0.21166  0.27643  1.0000
  N   N7        1.0  0.12965  0.02258  0.44568  1.0000
  H   H129      1.0  0.27261  0.33368  0.28188  1.0000
  H   H130      1.0  0.34258  0.42550  0.45389  1.0000
  H   H131      1.0  0.27737  0.31245  0.25057  1.0000
  C   C116      1.0  0.00698  0.09894  0.35139  1.0000
  C   C117      1.0  0.00203  0.10612  0.46926  1.0000
  C   C118      1.0  0.12599  0.99968  0.43583  1.0000
  S   S38       1.0  0.26847  0.22443  0.25454  1.0000
  H   H132      1.0  0.15099  0.20565  0.25511  1.0000
  C   C119      1.0  0.36438  0.23759  0.25338  1.0000
  H   H133      1.0  0.22575  0.35050  0.24928  1.0000
  H   H134      1.0  0.15421  0.16569  0.26761  1.0000
  C   C120      1.0  0.05103  0.10232  0.45872  1.0000
  H   H135      1.0  0.00713  0.08292  0.34279  1.0000
  C   C121      1.0  0.00684  0.14031  0.37352  1.0000
  C   C122      1.0  0.28146  0.38127  0.24874  1.0000
  H   H136      1.0  0.23801  0.32548  0.26193  1.0000
  N   N8        1.0  0.09108  0.17005  0.31934  1.0000
  C   C123      1.0  0.10678  0.16623  0.33911  1.0000
  C   C124      1.0  0.07136  0.18495  0.32633  1.0000
  C   C125      1.0  0.07946  0.14798  0.31278  1.0000
  C   C126      1.0  0.10624  0.17974  0.30076  1.0000
  C   C127      1.0  0.12445  0.16665  0.29095  1.0000
  C   C128      1.0  0.10462  0.20261  0.29291  1.0000
  C   C129      1.0  0.14136  0.10310  0.49148  1.0000
  C   C130      1.0  0.29722  0.38682  0.28631  1.0000
  H   H137      1.0  0.11610  0.18234  0.34440  1.0000
  H   H138      1.0  0.09619  0.15935  0.35371  1.0000
  H   H139      1.0  0.12113  0.15394  0.33568  1.0000
  H   H140      1.0  0.07872  0.20110  0.33352  1.0000
  H   H141      1.0  0.05986  0.17671  0.33981  1.0000
  H   H142      1.0  0.05910  0.18888  0.31204  1.0000
  H   H143      1.0  0.43344  0.40608  0.46483  1.0000
  H   H144      1.0  0.06721  0.14078  0.32623  1.0000
  H   H145      1.0  0.06852  0.14993  0.29721  1.0000
  H   H146      1.0  0.15354  0.03316  0.41851  1.0000
  H   H147      1.0  0.09169  0.21402  0.29954  1.0000
  H   H148      1.0  0.34032  0.47826  0.45403  1.0000
  S   S39       1.0  0.31201  0.27992  0.26474  1.0000
  C   C131      1.0  0.38205  0.46788  0.43650  1.0000
  H   H149      1.0  0.11948  0.22931  0.27108  1.0000
  H   H150      1.0  0.41277  0.35495  0.48708  1.0000
  C   C132      1.0  0.39598  0.36390  0.48690  1.0000
  C   C133      1.0  0.01991  0.11030  0.48553  1.0000
  N   N9        1.0  0.34581  0.31020  0.42396  1.0000
  C   C134      1.0  0.33811  0.33366  0.41951  1.0000
  C   C135      1.0  0.32430  0.29437  0.42207  1.0000
  C   C136      1.0  0.35450  0.30885  0.44757  1.0000
  C   C137      1.0  0.36455  0.30468  0.40730  1.0000
  C   C138      1.0  0.38958  0.30345  0.41285  1.0000
  C   C139      1.0  0.35820  0.30170  0.38440  1.0000
  C   C140      1.0  0.40687  0.29879  0.39655  1.0000
  C   C141      1.0  0.37562  0.29716  0.36824  1.0000
  C   C142      1.0  0.39991  0.29559  0.37432  1.0000
  H   H151      1.0  0.33084  0.33591  0.40217  1.0000
  H   H152      1.0  0.32385  0.33873  0.43143  1.0000
  H   H153      1.0  0.35376  0.34596  0.42125  1.0000
  H   H154      1.0  0.31414  0.29692  0.40615  1.0000
  H   H155      1.0  0.31089  0.29688  0.43567  1.0000
  H   H156      1.0  0.32977  0.27636  0.42296  1.0000
  H   H157      1.0  0.33981  0.31207  0.45979  1.0000
  H   H158      1.0  0.36170  0.29186  0.45164  1.0000
  H   H159      1.0  0.36892  0.32207  0.45104  1.0000
  H   H160      1.0  0.39642  0.30677  0.42950  1.0000
  H   H161      1.0  0.33984  0.30376  0.37855  1.0000
  H   H162      1.0  0.42593  0.29849  0.40105  1.0000
  H   H163      1.0  0.37030  0.29572  0.35077  1.0000
  H   H164      1.0  0.41347  0.29273  0.36164  1.0000
  C   C143      1.0  0.00814  0.09929  0.44730  1.0000
  C   C144      1.0  0.35271  0.38695  0.48666  1.0000
  H   H165      1.0  0.15620  0.05044  0.44280  1.0000
  H   H166      1.0  0.35580  0.25412  0.25652  1.0000
  C   C145      1.0  0.38452  0.44232  0.49211  1.0000
  H   H167      1.0  0.36970  0.47836  0.42616  1.0000
  H   H168      1.0  0.40512  0.42612  0.44097  1.0000
  C   C146      1.0  0.37458  0.18832  0.25846  1.0000
  Fe  Fe19      1.0  0.27799  0.26182  0.24997  1.0000
  C   C147      1.0  0.28956  0.36475  0.29224  1.0000
  C   C148      1.0  0.13992  0.17580  0.27430  1.0000
  H   H169      1.0  0.37527  0.23394  0.26862  1.0000
  C   C149      1.0  0.33047  0.21546  0.26881  1.0000
  C   C150      1.0  0.04436  0.10834  0.48028  1.0000
  H   H170      1.0  0.33948  0.44495  0.43051  1.0000
  H   H171      1.0  0.39557  0.47962  0.44457  1.0000
  H   H172      1.0  0.10784  0.03608  0.41864  1.0000
  H   H173      1.0  0.07014  0.10122  0.45460  1.0000
  H   H174      1.0  0.30641  0.39749  0.29858  1.0000
  N   N10       1.0  0.34591  0.21931  0.24864  1.0000
  S   S40       1.0  0.23926  0.27210  0.25166  1.0000
  H   H175      1.0  0.37879  0.19627  0.27427  1.0000
  C   C151      1.0  0.35286  0.43669  0.44174  1.0000
  N   N11       1.0  0.36850  0.45369  0.45349  1.0000
  C   C152      1.0  0.15300  0.03262  0.43720  1.0000
  H   H176      1.0  0.16966  0.99703  0.37949  1.0000
  H   H177      1.0  0.01077  0.09722  0.40056  1.0000
  Fe  Fe20      1.0  0.22941  0.23434  0.25404  1.0000
  H   H178      1.0  0.34008  0.45914  0.47752  1.0000
  H   H179      1.0  0.39175  0.45755  0.42417  1.0000
  H   H180      1.0  0.16859  0.02267  0.44324  1.0000
  H   H181      1.0  0.99921  0.16668  0.45513  1.0000
  H   H182      1.0  0.05821  0.11167  0.49290  1.0000
  C   C153      1.0  0.99800  0.08509  0.40936  1.0000
  H   H183      1.0  0.34261  0.49503  0.39465  1.0000
  C   C154      1.0  0.41883  0.41799  0.49570  1.0000
  H   H184      1.0  0.49767  0.38066  0.41148  1.0000
  Fe  Fe21      1.0  0.41442  0.39654  0.59435  1.0000
  S   S41       1.0  0.39331  0.36547  0.58245  1.0000
  S   S42       1.0  0.45425  0.40823  0.59477  1.0000
  Fe  Fe22      1.0  0.36863  0.42053  0.60818  1.0000
  S   S43       1.0  0.34367  0.39134  0.59785  1.0000
  S   S44       1.0  0.35862  0.45259  0.62613  1.0000
  Fe  Fe23      1.0  0.37065  0.36834  0.61414  1.0000
  S   S45       1.0  0.36488  0.33692  0.63767  1.0000
  Fe  Fe24      1.0  0.36770  0.39038  0.56707  1.0000
  S   S46       1.0  0.35005  0.39042  0.53244  1.0000
  S   S47       1.0  0.39384  0.39778  0.62673  1.0000
  S   S48       1.0  0.39045  0.42115  0.57660  1.0000
  Fe  Fe25      1.0  0.08360  0.10498  0.61283  1.0000
  S   S49       1.0  0.10106  0.13859  0.60210  1.0000
  S   S50       1.0  0.04708  0.09706  0.62910  1.0000
  Fe  Fe26      1.0  0.12373  0.07728  0.59408  1.0000
  S   S51       1.0  0.14476  0.10846  0.58178  1.0000
  S   S52       1.0  0.13468  0.04239  0.58321  1.0000
  Fe  Fe27      1.0  0.13602  0.12428  0.61505  1.0000
  S   S53       1.0  0.16830  0.14637  0.62828  1.0000
  Fe  Fe28      1.0  0.10910  0.12097  0.56977  1.0000
  S   S54       1.0  0.10277  0.13874  0.53619  1.0000
  S   S55       1.0  0.11785  0.09154  0.62832  1.0000
  S   S56       1.0  0.08868  0.08881  0.57956  1.0000
  Fe  Fe29      1.0  0.26595  0.26536  0.72071  1.0000
  S   S57       1.0  0.22618  0.26442  0.73050  1.0000
  S   S58       1.0  0.27579  0.29618  0.69758  1.0000
  Fe  Fe30      1.0  0.22707  0.22633  0.72720  1.0000
  S   S59       1.0  0.19349  0.20508  0.71594  1.0000
  S   S60       1.0  0.26574  0.22742  0.71493  1.0000
  H   H185      1.0  0.27658  0.36326  0.74511  1.0000
  H   H186      1.0  0.43865  0.30914  0.64551  1.0000
  H   H187      1.0  0.42062  0.46358  0.60916  1.0000
  H   H188      1.0  0.21955  0.23979  0.55071  1.0000
  H   H189      1.0  0.29997  0.49185  0.64939  1.0000
  H   H190      1.0  0.21525  0.31722  0.74013  1.0000
  C   C155      1.0  0.12760  0.01707  0.59859  1.0000
  C   C156      1.0  0.12025  0.01731  0.62105  1.0000
  H   H191      1.0  0.23238  0.14820  0.69977  1.0000
  H   H192      1.0  0.11940  0.03332  0.62959  1.0000
  C   C157      1.0  0.17491  0.16228  0.65304  1.0000
  C   C158      1.0  0.19779  0.17361  0.65504  1.0000
  C   C159      1.0  0.20386  0.18669  0.67408  1.0000
  C   C160      1.0  0.18707  0.18867  0.69148  1.0000
  C   C161      1.0  0.16427  0.17720  0.68956  1.0000
  C   C162      1.0  0.15821  0.16413  0.67053  1.0000
  H   H193      1.0  0.21090  0.17237  0.64167  1.0000
  H   H194      1.0  0.22142  0.19541  0.67514  1.0000
  H   H195      1.0  0.15110  0.17849  0.70287  1.0000
  H   H196      1.0  0.14057  0.15555  0.66936  1.0000
  C   C163      1.0  0.16242  0.20550  0.53073  1.0000
  C   C164      1.0  0.02104  0.10939  0.61754  1.0000
  C   C165      1.0  0.02271  0.12947  0.60464  1.0000
  C   C166      1.0  0.03132  0.04567  0.59958  1.0000
  H   H197      1.0  0.04033  0.13743  0.60111  1.0000
  C   C167      1.0  0.36163  0.47930  0.61223  1.0000
  H   H198      1.0  0.21026  0.20263  0.56730  1.0000
  H   H199      1.0  0.47676  0.31458  0.65838  1.0000
  H   H200      1.0  0.36217  0.46579  0.57896  1.0000
  C   C168      1.0  0.24287  0.13725  0.71146  1.0000
  H   H201      1.0  0.30429  0.47001  0.61478  1.0000
  H   H202      1.0  0.39434  0.36630  0.52309  1.0000
  H   H203      1.0  0.43661  0.36715  0.62137  1.0000
  C   C169      1.0  0.33976  0.32592  0.65413  1.0000
  C   C170      1.0  0.34226  0.30554  0.66659  1.0000
  C   C171      1.0  0.32302  0.29613  0.67991  1.0000
  C   C172      1.0  0.30090  0.30701  0.68100  1.0000
  C   C173      1.0  0.29844  0.32743  0.66862  1.0000
  C   C174      1.0  0.31766  0.33682  0.65529  1.0000
  H   H204      1.0  0.35918  0.29686  0.66585  1.0000
  H   H205      1.0  0.32531  0.28044  0.68925  1.0000
  H   H206      1.0  0.28146  0.33604  0.66920  1.0000
  H   H207      1.0  0.31534  0.35246  0.64584  1.0000
  C   C175      1.0  0.48154  0.36957  0.59204  1.0000
  C   C176      1.0  0.48142  0.39314  0.59447  1.0000
  C   C177      1.0  0.40094  0.43061  0.50551  1.0000
  H   H208      1.0  0.46477  0.36015  0.58882  1.0000
  C   C178      1.0  0.03123  0.00532  0.61263  1.0000
  N   N12       1.0  0.17065  0.17280  0.55701  1.0000
  C   C179      1.0  0.16831  0.15599  0.53877  1.0000
  C   C180      1.0  0.18864  0.16422  0.57341  1.0000
  C   C181      1.0  0.14705  0.17382  0.56877  1.0000
  C   C182      1.0  0.17729  0.19554  0.54741  1.0000
  H   H209      1.0  0.41124  0.31949  0.65621  1.0000
  C   C183      1.0  0.30186  0.48821  0.61374  1.0000
  H   H210      1.0  0.04302  0.06103  0.59553  1.0000
  H   H211      1.0  0.07570  0.03768  0.58617  1.0000
  H   H212      1.0  0.43191  0.35944  0.68298  1.0000
  H   H213      1.0  0.18525  0.15564  0.52866  1.0000
  H   H214      1.0  0.16435  0.13848  0.54546  1.0000
  H   H215      1.0  0.15311  0.15949  0.52709  1.0000
  H   H216      1.0  0.20689  0.16294  0.56571  1.0000
  H   H217      1.0  0.18331  0.14690  0.57996  1.0000
  H   H218      1.0  0.19002  0.17508  0.58853  1.0000
  H   H219      1.0  0.13186  0.17769  0.55717  1.0000
  H   H220      1.0  0.14197  0.15734  0.57709  1.0000
  H   H221      1.0  0.14776  0.18686  0.58207  1.0000
  C   C184      1.0  0.13210  0.02210  0.51824  1.0000
  C   C185      1.0  0.00542  0.00419  0.61137  1.0000
  H   H222      1.0  0.13099  0.05838  0.51514  1.0000
  H   H223      1.0  0.40609  0.35738  0.66445  1.0000
  H   H224      1.0  0.42866  0.37909  0.65987  1.0000
  C   C186      1.0  0.06419  0.02218  0.59020  1.0000
  C   C187      1.0  0.43524  0.47647  0.60827  1.0000
  C   C188      1.0  0.16819  0.22699  0.52143  1.0000
  C   C189      1.0  0.46604  0.34983  0.65284  1.0000
  H   H225      1.0  0.13836  0.10459  0.52757  1.0000
  H   H226      1.0  0.29225  0.17226  0.72059  1.0000
  C   C190      1.0  0.43141  0.32182  0.65714  1.0000
  C   C191      1.0  0.26315  0.35467  0.73383  1.0000
  C   C192      1.0  0.42610  0.36099  0.66516  1.0000
  C   C193      1.0  0.28562  0.11732  0.73448  1.0000
  H   H227      1.0  0.05537  0.01635  0.57442  1.0000
  H   H228      1.0  0.13299  0.02222  0.53644  1.0000
  C   C194      1.0  0.45912  0.47028  0.61164  1.0000
  C   C195      1.0  0.47617  0.37219  0.64965  1.0000
  C   C196      1.0  0.19806  0.20860  0.55447  1.0000
  C   C197      1.0  0.13176  0.11096  0.51165  1.0000
  H   H229      1.0  0.49646  0.48184  0.61328  1.0000
  H   H230      1.0  0.15228  0.23189  0.73339  1.0000
  C   C198      1.0  0.13248  0.00164  0.50689  1.0000
  H   H231      1.0  0.00290  0.15558  0.58753  1.0000
  H   H232      1.0  0.15016  0.26180  0.73663  1.0000
  H   H233      1.0  0.27349  0.34544  0.72094  1.0000
  C   C199      1.0  0.43244  0.34935  0.62707  1.0000
  C   C200      1.0  0.18877  0.23926  0.52857  1.0000
  H   H234      1.0  0.44214  0.33799  0.61568  1.0000
  H   H235      1.0  0.39927  0.43071  0.52365  1.0000
  C   C201      1.0  0.38562  0.37034  0.50732  1.0000
  H   H236      1.0  0.46491  0.38634  0.64551  1.0000
  H   H237      1.0  0.01840  0.05113  0.61260  1.0000
  H   H238      1.0  0.25211  0.12495  0.70080  1.0000
  C   C202      1.0  0.48263  0.33216  0.65638  1.0000
  N   N13       1.0  0.43952  0.34541  0.65074  1.0000
  H   H239      1.0  0.41268  0.34602  0.62450  1.0000
  C   C203      1.0  0.11420  0.99673  0.63252  1.0000
  H   H240      1.0  0.25830  0.18064  0.74566  1.0000
  H   H241      1.0  0.46306  0.45264  0.61505  1.0000
  H   H242      1.0  0.22949  0.12749  0.72219  1.0000
  H   H243      1.0  0.01485  0.11521  0.50228  1.0000
  C   C204      1.0  0.14407  0.24504  0.74400  1.0000
  H   H244      1.0  0.21828  0.34146  0.72151  1.0000
  H   H245      1.0  0.02110  0.04131  0.58405  1.0000
  H   H246      1.0  0.27028  0.17430  0.69839  1.0000
  C   C205      1.0  0.11405  0.12735  0.51114  1.0000
  C   C206      1.0  0.27235  0.13601  0.74188  1.0000
  N   N14       1.0  0.04589  0.02644  0.60775  1.0000
  H   H247      1.0  0.28872  0.14999  0.70058  1.0000
  H   H248      1.0  0.04549  0.03772  0.64188  1.0000
  C   C207      1.0  0.36252  0.48103  0.58883  1.0000
  C   C208      1.0  0.13097  0.04250  0.50618  1.0000
  H   H249      1.0  0.14610  0.19672  0.52482  1.0000
  H   H250      1.0  0.25334  0.36809  0.72461  1.0000
  H   H251      1.0  0.43684  0.31751  0.67464  1.0000
  C   C209      1.0  0.36396  0.38199  0.50728  1.0000
  C   C210      1.0  0.27862  0.16228  0.71056  1.0000
  C   C211      1.0  0.47791  0.48677  0.61057  1.0000
  C   C212      1.0  0.20363  0.23011  0.54508  1.0000
  H   H252      1.0  0.23697  0.17969  0.72318  1.0000
  H   H253      1.0  0.19317  0.25594  0.52136  1.0000
  N   N15       1.0  0.26013  0.15090  0.72539  1.0000
  H   H254      1.0  0.23748  0.31821  0.71817  1.0000
  H   H255      1.0  0.12406  0.24277  0.74205  1.0000
  H   H256      1.0  0.10865  0.99699  0.64991  1.0000
  H   H257      1.0  0.13476  0.99574  0.57049  1.0000
  H   H258      1.0  0.28696  0.11359  0.71685  1.0000
  C   C213      1.0  0.00149  0.13973  0.59697  1.0000
  H   H259      1.0  0.21601  0.37446  0.74043  1.0000
  H   H260      1.0  0.07705  0.00902  0.59540  1.0000
  H   H261      1.0  0.27063  0.31125  0.74262  1.0000
  C   C214      1.0  0.05864  0.03388  0.62842  1.0000
  H   H262      1.0  0.07015  0.04961  0.62536  1.0000
  C   C215      1.0  0.24617  0.16895  0.73594  1.0000
  C   C216      1.0  0.22857  0.32859  0.73101  1.0000
  H   H263      1.0  0.07076  0.02077  0.63520  1.0000
  H   H264      1.0  0.30500  0.48972  0.57789  1.0000
  H   H265      1.0  0.37080  0.45126  0.50092  1.0000
  H   H266      1.0  0.43106  0.40846  0.50620  1.0000
  H   H267      1.0  0.30793  0.08923  0.74361  1.0000
  H   H268      1.0  0.15658  0.23418  0.50864  1.0000
  C   C217      1.0  0.12893  0.99615  0.58779  1.0000
  H   H269      1.0  0.23168  0.16167  0.74722  1.0000
  N   N16       1.0  0.24650  0.33897  0.74673  1.0000
  C   C218      1.0  0.99808  0.09927  0.62209  1.0000
  Fe  Fe31      1.0  0.38844  0.07119  0.85992  1.0000
  S   S61       1.0  0.41096  0.08046  0.88984  1.0000
  S   S62       1.0  0.40078  0.03866  0.84451  1.0000
  Fe  Fe32      1.0  0.35997  0.11500  0.86180  1.0000
  S   S63       1.0  0.38034  0.12656  0.89288  1.0000
  S   S64       1.0  0.33029  0.13855  0.84863  1.0000
  Fe  Fe33      1.0  0.41339  0.11531  0.87468  1.0000
  S   S65       1.0  0.44823  0.13668  0.87617  1.0000
  Fe  Fe34      1.0  0.37617  0.09052  0.90568  1.0000
  S   S66       1.0  0.37268  0.07499  0.94095  1.0000
  S   S67       1.0  0.39363  0.10572  0.84313  1.0000
  S   S68       1.0  0.35310  0.07928  0.87628  1.0000
  Fe  Fe35      1.0  0.08341  0.39366  0.86028  1.0000
  S   S69       1.0  0.11688  0.40430  0.84068  1.0000
  S   S70       1.0  0.04665  0.40316  0.84642  1.0000
  Fe  Fe36      1.0  0.11324  0.37667  0.90001  1.0000
  S   S71       1.0  0.14904  0.38545  0.88309  1.0000
  S   S72       1.0  0.10536  0.36369  0.93567  1.0000
  Fe  Fe37      1.0  0.13125  0.41807  0.87305  1.0000
  S   S73       1.0  0.15045  0.45226  0.87881  1.0000
  Fe  Fe38      1.0  0.13192  0.37061  0.85170  1.0000
  S   S74       1.0  0.14778  0.35130  0.82191  1.0000
  S   S75       1.0  0.09679  0.41005  0.89178  1.0000
  S   S76       1.0  0.09713  0.35927  0.86950  1.0000
  C   C219      1.0  0.36004  0.01265  0.85687  1.0000
  H   H270      1.0  0.28412  0.12902  0.79824  1.0000
  H   H271      1.0  0.24645  0.33300  0.79401  1.0000
  H   H272      1.0  0.24966  0.30743  0.76532  1.0000
  S   S77       1.0  0.22473  0.27615  0.79754  1.0000
  H   H273      1.0  0.41808  0.10554  0.95946  1.0000
  C   C220      1.0  0.13588  0.47767  0.87169  1.0000
  H   H274      1.0  0.13768  0.33922  0.99481  1.0000
  C   C221      1.0  0.16923  0.33025  0.81574  1.0000
  C   C222      1.0  0.17231  0.32392  0.79324  1.0000
  C   C223      1.0  0.18894  0.30734  0.78735  1.0000
  C   C224      1.0  0.20296  0.29690  0.80389  1.0000
  C   C225      1.0  0.19984  0.30315  0.82639  1.0000
  C   C226      1.0  0.18309  0.31966  0.83231  1.0000
  H   H275      1.0  0.16168  0.33195  0.78028  1.0000
  H   H276      1.0  0.19090  0.30276  0.77003  1.0000
  H   H277      1.0  0.21051  0.29521  0.83938  1.0000
  H   H278      1.0  0.18097  0.32425  0.84967  1.0000
  H   H279      1.0  0.11650  0.30615  0.82253  1.0000
  H   H280      1.0  0.01804  0.43420  0.87157  1.0000
  C   C227      1.0  0.10684  0.37518  0.98008  1.0000
  C   C228      1.0  0.12011  0.37398  0.96003  1.0000
  C   C229      1.0  0.14504  0.37927  0.96030  1.0000
  C   C230      1.0  0.14146  0.26014  0.78259  1.0000
  C   C231      1.0  0.12744  0.44538  0.97565  1.0000
  H   H281      1.0  0.08753  0.37109  0.98003  1.0000
  H   H282      1.0  0.15550  0.37815  0.94503  1.0000
  C   C232      1.0  0.43736  0.10969  0.95879  1.0000
  C   C233      1.0  0.01969  0.38832  0.85490  1.0000
  H   H283      1.0  0.37134  0.02673  0.92558  1.0000
  C   C234      1.0  0.47453  0.12432  0.86568  1.0000
  H   H284      1.0  0.35617  0.19603  0.84648  1.0000
  C   C235      1.0  0.47297  0.10769  0.84921  1.0000
  H   H285      1.0  0.19292  0.39419  0.76864  1.0000
  H   H286      1.0  0.45542  0.10214  0.84277  1.0000
  C   C236      1.0  0.32370  0.15478  0.82379  1.0000
  C   C237      1.0  0.30367  0.16901  0.82385  1.0000
  C   C238      1.0  0.29768  0.18234  0.80478  1.0000
  C   C239      1.0  0.31174  0.18172  0.78527  1.0000
  C   C240      1.0  0.33163  0.16733  0.78511  1.0000
  C   C241      1.0  0.33756  0.15393  0.80416  1.0000
  H   H287      1.0  0.29270  0.16978  0.83884  1.0000
  H   H288      1.0  0.28233  0.19324  0.80528  1.0000
  H   H289      1.0  0.34260  0.16656  0.77013  1.0000
  H   H290      1.0  0.35272  0.14285  0.80357  1.0000
  C   C242      1.0  0.45188  0.10991  0.97853  1.0000
  C   C243      1.0  0.36594  0.08910  0.96606  1.0000
  C   C244      1.0  0.35887  0.11168  0.96618  1.0000
  H   H291      1.0  0.37642  0.16412  0.85684  1.0000
  H   H292      1.0  0.35705  0.12099  0.95049  1.0000
  N   N17       1.0  0.11779  0.44890  0.95261  1.0000
  C   C245      1.0  0.29777  0.10331  0.74964  1.0000
  C   C246      1.0  0.13578  0.44022  0.93670  1.0000
  H   H293      1.0  0.38956  0.01361  0.94642  1.0000
  C   C247      1.0  0.11307  0.47296  0.94695  1.0000
  H   H294      1.0  0.08713  0.43557  0.93357  1.0000
  H   H295      1.0  0.18513  0.26215  0.76384  1.0000
  C   C248      1.0  0.10441  0.47902  0.92527  1.0000
  H   H296      1.0  0.44119  0.01370  0.87004  1.0000
  C   C249      1.0  0.20511  0.38103  0.77381  1.0000
  C   C250      1.0  0.13864  0.27698  0.81990  1.0000
  S   S78       1.0  0.30555  0.19865  0.76079  1.0000
  H   H297      1.0  0.38467  0.22296  0.77149  1.0000
  C   C251      1.0  0.27208  0.13979  0.76540  1.0000
  H   H298      1.0  0.14108  0.42266  0.94116  1.0000
  H   H299      1.0  0.15257  0.45133  0.93599  1.0000
  H   H300      1.0  0.12862  0.43929  0.91935  1.0000
  H   H301      1.0  0.47975  0.03718  0.82424  1.0000
  Fe  Fe39      1.0  0.27607  0.22407  0.75175  1.0000
  H   H302      1.0  0.35086  0.02847  0.85833  1.0000
  H   H303      1.0  0.09781  0.41667  0.95458  1.0000
  C   C252      1.0  0.47210  0.11994  0.93551  1.0000
  C   C253      1.0  0.23561  0.34653  0.78747  1.0000
  H   H304      1.0  0.42111  0.15015  0.83453  1.0000
  H   H305      1.0  0.34763  0.13935  0.98662  1.0000
  C   C254      1.0  0.26120  0.32039  0.75608  1.0000
  H   H306      1.0  0.41200  0.20079  0.79480  1.0000
  H   H307      1.0  0.30676  0.09680  0.78431  1.0000
  C   C255      1.0  0.11685  0.49093  0.96240  1.0000
  H   H308      1.0  0.16032  0.24890  0.81288  1.0000
  H   H309      1.0  0.08088  0.44082  0.96251  1.0000
  C   C256      1.0  0.14780  0.26072  0.80569  1.0000
  H   H310      1.0  0.15052  0.21598  0.79317  1.0000
  H   H311      1.0  0.12353  0.31681  0.97993  1.0000
  H   H312      1.0  0.11444  0.45067  0.98866  1.0000
  C   C257      1.0  0.47709  0.11537  0.97573  1.0000
  H   H313      1.0  0.43917  0.18520  0.85210  1.0000
  H   H314      1.0  0.41896  0.16519  0.80850  1.0000
  H   H315      1.0  0.44768  0.04132  0.87949  1.0000
  C   C258      1.0  0.35615  0.22258  0.79592  1.0000
  H   H316      1.0  0.26308  0.15386  0.77271  1.0000
  H   H317      1.0  0.19630  0.38380  0.80882  1.0000
  C   C259      1.0  0.21829  0.36951  0.75782  1.0000
  H   H318      1.0  0.22366  0.35374  0.82097  1.0000
  C   C260      1.0  0.37121  0.01290  0.93864  1.0000
  C   C261      1.0  0.20713  0.37537  0.79649  1.0000
  C   C262      1.0  0.17848  0.24464  0.76844  1.0000
  C   C263      1.0  0.15671  0.38489  0.98061  1.0000
  H   H319      1.0  0.45558  0.05072  0.83857  1.0000
  H   H320      1.0  0.01570  0.46962  0.90755  1.0000
  H   H321      1.0  0.33051  0.21875  0.82288  1.0000
  S   S79       1.0  0.23744  0.22111  0.76357  1.0000
  C   C264      1.0  0.22256  0.35837  0.80331  1.0000
  H   H322      1.0  0.34392  0.23193  0.78523  1.0000
  H   H323      1.0  0.10154  0.46640  0.91245  1.0000
  H   H324      1.0  0.17616  0.38818  0.98081  1.0000
  C   C265      1.0  0.48693  0.12023  0.95446  1.0000
  C   C266      1.0  0.35358  0.12204  0.98668  1.0000
  H   H325      1.0  0.37314  0.05962  0.98663  1.0000
  C   C267      1.0  0.37906  0.21735  0.78817  1.0000
  C   C268      1.0  0.02008  0.36914  0.86904  1.0000
  Fe  Fe40      1.0  0.23900  0.25935  0.76586  1.0000
  H   H326      1.0  0.35754  0.01754  0.95136  1.0000
  C   C269      1.0  0.49239  0.04713  0.86683  1.0000
  H   H327      1.0  0.03725  0.36287  0.87482  1.0000
  H   H328      1.0  0.12354  0.21786  0.77645  1.0000
  C   C270      1.0  0.44738  0.11474  0.93768  1.0000
  H   H329      1.0  0.18612  0.24060  0.78525  1.0000
  C   C271      1.0  0.12292  0.29308  0.81161  1.0000
  H   H330      1.0  0.27566  0.32698  0.76754  1.0000
  H   H331      1.0  0.18667  0.23274  0.75655  1.0000
  C   C272      1.0  0.38435  0.01288  0.85018  1.0000
  H   H332      1.0  0.10710  0.46156  0.85261  1.0000
  C   C273      1.0  0.09491  0.43497  0.95076  1.0000
  H   H333      1.0  0.42327  0.21135  0.84996  1.0000
  H   H334      1.0  0.46323  0.01783  0.89210  1.0000
  C   C274      1.0  0.29710  0.10749  0.77256  1.0000
  S   S80       1.0  0.27877  0.26209  0.75660  1.0000
  H   H335      1.0  0.38909  0.18971  0.86942  1.0000
  C   C275      1.0  0.23369  0.35164  0.76411  1.0000
  H   H336      1.0  0.13068  0.42712  0.97925  1.0000
  H   H337      1.0  0.14434  0.27760  0.83731  1.0000
  H   H338      1.0  0.48203  0.06255  0.87042  1.0000
  H   H339      1.0  0.47972  0.12376  0.91906  1.0000
  H   H340      1.0  0.03018  0.46243  0.86915  1.0000
  C   C276      1.0  0.36799  0.07717  0.98657  1.0000
  H   H341      1.0  0.39226  0.15151  0.82042  1.0000
  C   C277      1.0  0.11482  0.47751  0.85858  1.0000
  C   C278      1.0  0.48917  0.00655  0.85650  1.0000
  H   H342      1.0  0.34068  0.00662  0.90602  1.0000
  H   H343      1.0  0.45213  0.02149  0.83129  1.0000
  H   H344      1.0  0.43592  0.11465  0.92286  1.0000
  H   H345      1.0  0.43695  0.19953  0.82564  1.0000
  C   C279      1.0  0.11628  0.29301  0.78907  1.0000
  N   N18       1.0  0.40367  0.18226  0.83685  1.0000
  C   C280      1.0  0.42673  0.19520  0.84127  1.0000
  C   C281      1.0  0.39328  0.17493  0.85891  1.0000
  C   C282      1.0  0.40923  0.16143  0.82450  1.0000
  C   C283      1.0  0.38723  0.19633  0.82323  1.0000
  C   C284      1.0  0.39448  0.20455  0.80162  1.0000
  C   C285      1.0  0.36371  0.20201  0.83063  1.0000
  H   H346      1.0  0.40617  0.16460  0.86880  1.0000
  C   C286      1.0  0.34861  0.21510  0.81716  1.0000
  H   H347      1.0  0.10446  0.30597  0.78271  1.0000
  H   H348      1.0  0.12338  0.48807  0.97925  1.0000
  C   C287      1.0  0.12529  0.27680  0.77466  1.0000
  C   C288      1.0  0.49426  0.09866  0.84060  1.0000
  N   N19       1.0  0.47625  0.02798  0.85921  1.0000
  H   H349      1.0  0.15325  0.31313  0.99171  1.0000
  C   C289      1.0  0.28424  0.12562  0.78040  1.0000
  N   N20       1.0  0.15160  0.24281  0.76788  1.0000
  C   C290      1.0  0.01333  0.45185  0.86669  1.0000
  H   H350      1.0  0.41679  0.07816  0.98715  1.0000
  H   H351      1.0  0.49299  0.08619  0.82749  1.0000
  H   H352      1.0  0.14519  0.45465  0.97795  1.0000
  H   H353      1.0  0.48961  0.11602  0.98967  1.0000
  H   H354      1.0  0.38535  0.99997  0.89894  1.0000
  C   C291      1.0  0.46552  0.03463  0.83738  1.0000
  H   H355      1.0  0.15059  0.20631  0.76495  1.0000
  H   H356      1.0  0.00259  0.44153  0.91003  1.0000
  C   C292      1.0  0.14370  0.21976  0.77599  1.0000
  H   H357      1.0  0.00927  0.45195  0.84838  1.0000
  H   H358      1.0  0.11954  0.27792  0.75739  1.0000
  H   H359      1.0  0.40604  0.11863  0.99274  1.0000
  C   C293      1.0  0.45638  0.02496  0.87599  1.0000
  C   C294      1.0  0.49744  0.13160  0.87364  1.0000
  H   H360      1.0  0.99860  0.34288  0.88628  1.0000
  C   C295      1.0  0.99817  0.35788  0.87555  1.0000
  C   C296      1.0  0.13526  0.32047  0.99478  1.0000
  C   C297      1.0  0.99902  0.45914  0.90399  1.0000
  H   H361      1.0  0.10883  0.28347  0.99712  1.0000
  Fe  Fe41      1.0  0.36305  0.87145  0.10857  1.0000
  S   S81       1.0  0.35448  0.89428  0.07893  1.0000
  S   S82       1.0  0.33728  0.84159  0.11919  1.0000
  Fe  Fe42      1.0  0.41240  0.89520  0.11540  1.0000
  S   S83       1.0  0.40759  0.92037  0.08722  1.0000
  S   S84       1.0  0.44549  0.89409  0.13777  1.0000
  Fe  Fe43      1.0  0.36962  0.92284  0.10007  1.0000
  S   S85       1.0  0.34769  0.95475  0.09938  1.0000
  Fe  Fe44      1.0  0.39298  0.89035  0.06784  1.0000
  S   S86       1.0  0.40912  0.88876  0.03283  1.0000
  S   S87       1.0  0.37557  0.90031  0.13042  1.0000
  S   S88       1.0  0.40050  0.86491  0.09541  1.0000
  Fe  Fe45      1.0  0.10480  0.57714  0.11021  1.0000
  S   S89       1.0  0.08999  0.59744  0.08131  1.0000
  S   S90       1.0  0.09098  0.54037  0.10848  1.0000
  Fe  Fe46      1.0  0.13047  0.61950  0.13082  1.0000
  S   S91       1.0  0.11768  0.64225  0.10282  1.0000
  S   S92       1.0  0.15118  0.63064  0.16273  1.0000
  Fe  Fe47      1.0  0.08159  0.62338  0.10684  1.0000
  S   S93       1.0  0.04694  0.64285  0.10420  1.0000
  Fe  Fe48      1.0  0.12692  0.61416  0.07963  1.0000
  S   S94       1.0  0.14591  0.62237  0.04660  1.0000
  S   S95       1.0  0.09349  0.60211  0.13609  1.0000
  S   S96       1.0  0.14272  0.59239  0.10712  1.0000
  Fe  Fe49      1.0  0.26519  0.77929  0.22656  1.0000
  S   S97       1.0  0.22434  0.77773  0.23016  1.0000
  S   S98       1.0  0.28724  0.81041  0.21249  1.0000
  Fe  Fe50      1.0  0.22696  0.73984  0.22420  1.0000
  S   S99       1.0  0.20266  0.72369  0.19676  1.0000
  S   S100      1.0  0.26759  0.74216  0.21880  1.0000
  C   C298      1.0  0.13474  0.61191  0.02080  1.0000
  H   H362      1.0  0.27387  0.92661  0.13691  1.0000
  H   H363      1.0  0.37465  0.95841  0.00133  1.0000
  C   C299      1.0  0.16573  0.65666  0.17159  1.0000
  C   C300      1.0  0.17682  0.65738  0.19292  1.0000
  C   C301      1.0  0.18827  0.67758  0.20088  1.0000
  C   C302      1.0  0.18893  0.69743  0.18756  1.0000
  C   C303      1.0  0.17777  0.69671  0.16628  1.0000
  C   C304      1.0  0.16630  0.67653  0.15832  1.0000
  H   H364      1.0  0.17632  0.64222  0.20345  1.0000
  H   H365      1.0  0.19613  0.67789  0.21748  1.0000
  H   H366      1.0  0.17799  0.71193  0.15582  1.0000
  H   H367      1.0  0.15798  0.67637  0.14187  1.0000
  H   H368      1.0  0.18406  0.55612  0.02833  1.0000
  C   C305      1.0  0.49417  0.87889  0.08988  1.0000
  C   C306      1.0  0.01903  0.63092  0.11434  1.0000
  C   C307      1.0  0.01811  0.61556  0.13253  1.0000
  C   C308      1.0  0.45729  0.82941  0.11691  1.0000
  H   H369      1.0  0.03476  0.60992  0.14003  1.0000
  H   H370      1.0  0.16399  0.57645  0.03889  1.0000
  C   C309      1.0  0.10829  0.51582  0.11093  1.0000
  C   C310      1.0  0.13127  0.51619  0.12089  1.0000
  C   C311      1.0  0.44898  0.81688  0.09870  1.0000
  H   H371      1.0  0.13896  0.53191  0.12740  1.0000
  C   C312      1.0  0.37005  0.87271  0.00739  1.0000
  H   H372      1.0  0.16358  0.53614  0.08560  1.0000
  H   H373      1.0  0.43194  0.83314  0.18086  1.0000
  H   H374      1.0  0.36063  0.86931  0.02307  1.0000
  N   N21       1.0  0.28888  0.89704  0.12178  1.0000
  C   C313      1.0  0.36205  0.98184  0.10337  1.0000
  H   H375      1.0  0.25285  0.61989  0.21584  1.0000
  H   H376      1.0  0.32426  0.88744  0.13228  1.0000
  C   C314      1.0  0.27237  0.64797  0.23280  1.0000
  C   C315      1.0  0.07587  0.63651  0.02339  1.0000
  H   H377      1.0  0.39366  0.96918  0.11991  1.0000
  C   C316      1.0  0.24854  0.68154  0.23329  1.0000
  C   C317      1.0  0.32439  0.83290  0.14560  1.0000
  C   C318      1.0  0.32693  0.84607  0.16483  1.0000
  C   C319      1.0  0.31579  0.83867  0.18516  1.0000
  C   C320      1.0  0.30216  0.81797  0.18667  1.0000
  C   C321      1.0  0.30014  0.80454  0.16757  1.0000
  C   C322      1.0  0.31113  0.81201  0.14719  1.0000
  H   H378      1.0  0.33711  0.86210  0.16404  1.0000
  H   H379      1.0  0.31746  0.84923  0.19979  1.0000
  H   H380      1.0  0.28972  0.78862  0.16838  1.0000
  H   H381      1.0  0.30909  0.80161  0.13248  1.0000
  N   N22       1.0  0.40356  0.82398  0.15707  1.0000
  C   C323      1.0  0.38173  0.80838  0.15772  1.0000
  C   C324      1.0  0.41754  0.81979  0.17798  1.0000
  C   C325      1.0  0.39523  0.84759  0.15711  1.0000
  H   H382      1.0  0.38679  0.79028  0.15710  1.0000
  H   H383      1.0  0.37074  0.81048  0.17319  1.0000
  C   C326      1.0  0.13439  0.71387  0.20628  1.0000
  H   H384      1.0  0.42632  0.80307  0.17751  1.0000
  H   H385      1.0  0.40576  0.81982  0.19315  1.0000
  H   H386      1.0  0.38418  0.85115  0.14192  1.0000
  H   H387      1.0  0.38376  0.85081  0.17199  1.0000
  H   H388      1.0  0.41068  0.86033  0.15712  1.0000
  H   H389      1.0  0.23136  0.65034  0.20521  1.0000
  H   H390      1.0  0.27299  0.85165  0.11389  1.0000
  H   H391      1.0  0.11477  0.65898  0.20890  1.0000
  C   C327      1.0  0.41901  0.82104  0.13706  1.0000
  H   H392      1.0  0.05324  0.67851  0.18797  1.0000
  H   H393      1.0  0.36912  0.81188  0.14360  1.0000
  C   C328      1.0  0.31350  0.90296  0.13033  1.0000
  C   C329      1.0  0.12127  0.72147  0.18783  1.0000
  H   H394      1.0  0.04755  0.66485  0.16150  1.0000
  C   C330      1.0  0.27687  0.88012  0.13721  1.0000
  H   H395      1.0  0.09565  0.71323  0.16231  1.0000
  H   H396      1.0  0.27374  0.88417  0.09087  1.0000
  N   N23       1.0  0.15604  0.54189  0.05025  1.0000
  C   C331      1.0  0.16479  0.55866  0.03288  1.0000
  C   C332      1.0  0.13053  0.54691  0.05551  1.0000
  C   C333      1.0  0.17102  0.54563  0.07069  1.0000
  H   H397      1.0  0.23338  0.67139  0.24134  1.0000
  H   H398      1.0  0.17192  0.56387  0.07545  1.0000
  H   H399      1.0  0.14756  0.72521  0.21434  1.0000
  C   C334      1.0  0.44245  0.83184  0.13565  1.0000
  H   H400      1.0  0.15339  0.55796  0.01745  1.0000
  H   H401      1.0  0.05610  0.63163  0.05434  1.0000
  C   C335      1.0  0.11637  0.59493  0.02006  1.0000
  C   C336      1.0  0.15741  0.51792  0.04329  1.0000
  H   H402      1.0  0.29473  0.69015  0.22334  1.0000
  C   C337      1.0  0.49418  0.88583  0.13608  1.0000
  C   C338      1.0  0.03385  0.62390  0.02556  1.0000
  H   H403      1.0  0.27807  0.90208  0.16637  1.0000
  H   H404      1.0  0.49402  0.87617  0.07197  1.0000
  C   C339      1.0  0.39365  0.88229  0.00757  1.0000
  C   C340      1.0  0.47257  0.88419  0.10074  1.0000
  C   C341      1.0  0.14531  0.62003  0.00063  1.0000
  N   N24       1.0  0.08529  0.66794  0.17114  1.0000
  C   C342      1.0  0.09413  0.66658  0.14779  1.0000
  C   C343      1.0  0.08374  0.64440  0.18061  1.0000
  C   C344      1.0  0.06034  0.67658  0.17067  1.0000
  C   C345      1.0  0.10171  0.68355  0.18382  1.0000
  C   C346      1.0  0.10506  0.70663  0.17679  1.0000
  C   C347      1.0  0.11540  0.67634  0.20273  1.0000
  C   C348      1.0  0.13132  0.69143  0.21381  1.0000
  C   C349      1.0  0.05533  0.63083  0.03616  1.0000
  H   H405      1.0  0.11321  0.66100  0.14752  1.0000
  H   H406      1.0  0.08281  0.65433  0.13790  1.0000
  H   H407      1.0  0.09368  0.68307  0.13849  1.0000
  H   H408      1.0  0.10169  0.63628  0.18010  1.0000
  H   H409      1.0  0.07105  0.63322  0.17080  1.0000
  H   H410      1.0  0.07699  0.64402  0.19819  1.0000
  H   H411      1.0  0.05944  0.69330  0.16182  1.0000
  C   C350      1.0  0.26982  0.85774  0.13057  1.0000
  H   H412      1.0  0.14210  0.68547  0.22780  1.0000
  H   H413      1.0  0.32358  0.91497  0.11875  1.0000
  C   C351      1.0  0.29162  0.88881  0.09851  1.0000
  H   H414      1.0  0.30340  0.87383  0.09801  1.0000
  H   H415      1.0  0.11860  0.54463  0.04058  1.0000
  H   H416      1.0  0.25840  0.64902  0.18807  1.0000
  H   H417      1.0  0.31322  0.91133  0.14687  1.0000
  H   H418      1.0  0.30046  0.90204  0.08732  1.0000
  H   H419      1.0  0.18995  0.54026  0.06809  1.0000
  C   C352      1.0  0.41100  0.80848  0.11807  1.0000
  H   H420      1.0  0.09551  0.57202  0.99909  1.0000
  H   H421      1.0  0.39313  0.80045  0.11707  1.0000
  H   H422      1.0  0.25587  0.91420  0.11480  1.0000
  C   C353      1.0  0.27479  0.91802  0.12051  1.0000
  C   C354      1.0  0.38443  0.98416  0.11433  1.0000
  H   H423      1.0  0.28327  0.93084  0.10861  1.0000
  C   C355      1.0  0.27272  0.88559  0.15997  1.0000
  H   H424      1.0  0.45140  0.97538  0.09867  1.0000
  H   H425      1.0  0.12417  0.73882  0.18175  1.0000
  H   H426      1.0  0.47514  0.83780  0.11627  1.0000
  H   H427      1.0  0.44931  0.84286  0.14870  1.0000
  C   C356      1.0  0.47249  0.88763  0.12388  1.0000
  H   H428      1.0  0.41925  0.79725  0.08476  1.0000
  H   H429      1.0  0.45595  0.88549  0.09119  1.0000
  H   H430      1.0  0.26717  0.58994  0.24040  1.0000
  H   H431      1.0  0.24041  0.69559  0.22337  1.0000
  H   H432      1.0  0.26005  0.87389  0.19260  1.0000
  C   C357      1.0  0.47670  0.94883  0.10381  1.0000
  H   H433      1.0  0.25466  0.82482  0.14064  1.0000
  C   C358      1.0  0.25922  0.84202  0.14583  1.0000
  C   C359      1.0  0.03276  0.62286  0.00213  1.0000
  N   N25       1.0  0.26343  0.66713  0.21902  1.0000
  C   C360      1.0  0.26232  0.86965  0.17512  1.0000
  H   H434      1.0  0.49418  0.88842  0.15400  1.0000
  C   C361      1.0  0.25559  0.84791  0.16806  1.0000
  C   C362      1.0  0.28421  0.68121  0.20996  1.0000
  H   H435      1.0  0.12285  0.53577  0.06917  1.0000
  C   C363      1.0  0.42586  0.80652  0.09923  1.0000
  H   H436      1.0  0.27808  0.69487  0.19831  1.0000
  H   H437      1.0  0.14464  0.50343  0.07524  1.0000
  H   H438      1.0  0.24196  0.67464  0.18952  1.0000
  H   H439      1.0  0.17035  0.52404  0.00875  1.0000
  H   H440      1.0  0.10771  0.58888  0.03536  1.0000
  H   H441      1.0  0.29699  0.67064  0.20064  1.0000
  C   C364      1.0  0.24821  0.65982  0.19965  1.0000
  C   C365      1.0  0.16529  0.51162  0.02161  1.0000
  H   H442      1.0  0.01800  0.61926  0.03566  1.0000
  H   H443      1.0  0.24832  0.83533  0.18004  1.0000
  C   C366      1.0  0.10937  0.58551  0.99944  1.0000
  C   C367      1.0  0.48837  0.98857  0.10008  1.0000
  C   C368      1.0  0.47035  0.97134  0.10067  1.0000
  H   H444      1.0  0.09273  0.64143  0.03177  1.0000
  H   H445      1.0  0.12892  0.56468  0.06129  1.0000
  H   H446      1.0  0.46264  0.93540  0.10426  1.0000
  H   H447      1.0  0.46034  0.81562  0.08396  1.0000
  C   C369      1.0  0.27309  0.60742  0.24329  1.0000
  C   C370      1.0  0.26499  0.62490  0.22924  1.0000
  H   H448      1.0  0.15955  0.63318  0.00106  1.0000
  C   C371      1.0  0.14408  0.49598  0.12290  1.0000
  C   C372      1.0  0.15101  0.49996  0.05859  1.0000
  C   C373      1.0  0.07500  0.63556  0.99995  1.0000
  H   H449      1.0  0.16174  0.49624  0.13086  1.0000
  H   H450      1.0  0.99779  0.65007  0.09082  1.0000
  H   H451      1.0  0.25940  0.68956  0.24698  1.0000
  Fe  Fe51      1.0  0.41153  0.62448  0.37695  1.0000
  S   S101      1.0  0.39071  0.61329  0.34637  1.0000
  S   S102      1.0  0.44858  0.64245  0.37646  1.0000
  Fe  Fe52      1.0  0.37397  0.60428  0.40955  1.0000
  S   S103      1.0  0.35027  0.59086  0.38148  1.0000
  S   S104      1.0  0.36757  0.59350  0.44601  1.0000
  Fe  Fe53      1.0  0.38483  0.58014  0.36559  1.0000
  S   S105      1.0  0.39434  0.54734  0.34854  1.0000
  Fe  Fe54      1.0  0.35758  0.62513  0.36426  1.0000
  S   S106      1.0  0.32425  0.64184  0.34830  1.0000
  S   S107      1.0  0.40787  0.59086  0.39473  1.0000
  S   S108      1.0  0.37905  0.63911  0.39378  1.0000
  Fe  Fe55      1.0  0.08046  0.89577  0.37947  1.0000
  S   S109      1.0  0.11012  0.90511  0.35493  1.0000
  S   S110      1.0  0.04287  0.90766  0.37108  1.0000
  Fe  Fe56      1.0  0.11562  0.87539  0.41248  1.0000
  S   S111      1.0  0.14830  0.88291  0.39044  1.0000
  S   S112      1.0  0.11631  0.85646  0.44594  1.0000
  Fe  Fe57      1.0  0.13135  0.91687  0.38476  1.0000
  S   S113      1.0  0.15378  0.94990  0.38320  1.0000
  Fe  Fe58      1.0  0.12476  0.87042  0.36184  1.0000
  S   S114      1.0  0.13382  0.85222  0.32907  1.0000
  S   S115      1.0  0.10068  0.91022  0.40894  1.0000
  S   S116      1.0  0.09312  0.86026  0.38438  1.0000
  H   H452      1.0  0.05194  0.90147  0.48895  1.0000
  H   H453      1.0  0.29463  0.59879  0.27222  1.0000
  S   S117      1.0  0.30169  0.71476  0.27010  1.0000
  Fe  Fe59      1.0  0.22994  0.76900  0.26679  1.0000
  S   S118      1.0  0.21587  0.78371  0.29980  1.0000
  S   S119      1.0  0.27058  0.77274  0.26354  1.0000
  C   C374      1.0  0.15714  0.83351  0.32133  1.0000
  C   C375      1.0  0.17378  0.82502  0.33681  1.0000
  C   C376      1.0  0.19161  0.80997  0.32984  1.0000
  C   C377      1.0  0.19331  0.80334  0.30729  1.0000
  C   C378      1.0  0.17691  0.81214  0.29174  1.0000
  C   C379      1.0  0.15893  0.82703  0.29875  1.0000
  H   H454      1.0  0.17273  0.82975  0.35423  1.0000
  H   H455      1.0  0.20411  0.80331  0.34209  1.0000
  H   H456      1.0  0.17788  0.80725  0.27437  1.0000
  H   H457      1.0  0.14625  0.83346  0.28655  1.0000
  C   C380      1.0  0.11247  0.97388  0.37543  1.0000
  C   C381      1.0  0.13766  0.97489  0.37828  1.0000
  H   H458      1.0  0.20235  0.94176  0.33158  1.0000
  H   H459      1.0  0.10266  0.95761  0.37601  1.0000
  H   H460      1.0  0.47512  0.55203  0.28638  1.0000
  C   C382      1.0  0.06233  0.83071  0.34151  1.0000
  C   C383      1.0  0.01630  0.89144  0.37803  1.0000
  N   N26       1.0  0.05296  0.84566  0.32339  1.0000
  H   H461      1.0  0.03442  0.86079  0.38692  1.0000
  C   C384      1.0  0.01711  0.86860  0.38481  1.0000
  C   C385      1.0  0.20259  0.92895  0.31810  1.0000
  C   C386      1.0  0.12407  0.89567  0.47017  1.0000
  C   C387      1.0  0.12061  0.87202  0.47083  1.0000
  H   H462      1.0  0.17708  0.91654  0.35536  1.0000
  H   H463      1.0  0.18711  0.89853  0.28683  1.0000
  H   H464      1.0  0.12480  0.90466  0.45421  1.0000
  H   H465      1.0  0.11756  0.84222  0.49235  1.0000
  C   C388      1.0  0.31855  0.66183  0.32614  1.0000
  C   C389      1.0  0.33716  0.67295  0.31379  1.0000
  C   C390      1.0  0.33160  0.68915  0.29691  1.0000
  C   C391      1.0  0.30742  0.69458  0.29214  1.0000
  C   C392      1.0  0.28878  0.68317  0.30424  1.0000
  C   C393      1.0  0.29434  0.66700  0.32111  1.0000
  H   H466      1.0  0.35585  0.66922  0.31737  1.0000
  H   H467      1.0  0.34621  0.69761  0.28754  1.0000
  H   H468      1.0  0.27006  0.68649  0.30046  1.0000
  H   H469      1.0  0.27977  0.65844  0.33045  1.0000
  H   H470      1.0  0.44444  0.54333  0.28164  1.0000
  C   C394      1.0  0.37084  0.60997  0.47053  1.0000
  C   C395      1.0  0.37363  0.63370  0.46974  1.0000
  H   H471      1.0  0.05316  0.87118  0.48378  1.0000
  H   H472      1.0  0.37320  0.64266  0.45375  1.0000
  C   C396      1.0  0.38434  0.52041  0.35938  1.0000
  C   C397      1.0  0.36576  0.51824  0.37529  1.0000
  C   C398      1.0  0.49266  0.59021  0.36390  1.0000
  H   H473      1.0  0.35744  0.53327  0.38147  1.0000
  N   N27       1.0  0.18186  0.91212  0.31977  1.0000
  C   C399      1.0  0.32911  0.71734  0.35114  1.0000
  C   C400      1.0  0.47197  0.60271  0.36823  1.0000
  C   C401      1.0  0.47437  0.62592  0.37271  1.0000
  C   C402      1.0  0.35741  0.49653  0.38276  1.0000
  H   H474      1.0  0.45411  0.59457  0.36753  1.0000
  H   H475      1.0  0.02269  0.88320  0.32771  1.0000
  H   H476      1.0  0.20534  0.88594  0.30842  1.0000
  C   C403      1.0  0.02615  0.84619  0.32482  1.0000
  Fe  Fe60      1.0  0.27021  0.73549  0.25622  1.0000
  C   C404      1.0  0.01351  0.86670  0.32679  1.0000
  H   H477      1.0  0.12943  0.92603  0.48955  1.0000
  H   H478      1.0  0.44322  0.64913  0.43772  1.0000
  H   H479      1.0  0.37884  0.66423  0.48911  1.0000
  H   H480      1.0  0.05687  0.81256  0.33934  1.0000
  H   H481      1.0  0.05554  0.83586  0.35819  1.0000
  H   H482      1.0  0.44723  0.58280  0.46756  1.0000
  C   C405      1.0  0.46815  0.63257  0.31590  1.0000
  C   C406      1.0  0.12003  0.86054  0.49173  1.0000
  C   C407      1.0  0.37675  0.64589  0.48980  1.0000
  H   H483      1.0  0.45993  0.64839  0.32019  1.0000
  H   H484      1.0  0.42192  0.62622  0.48111  1.0000
  H   H485      1.0  0.29344  0.75989  0.30730  1.0000
  H   H486      1.0  0.34837  0.71845  0.34741  1.0000
  C   C408      1.0  0.37105  0.59864  0.49148  1.0000
  H   H487      1.0  0.05992  0.88042  0.31214  1.0000
  N   N28       1.0  0.27066  0.74648  0.33425  1.0000
  C   C409      1.0  0.25467  0.75626  0.35135  1.0000
  C   C410      1.0  0.28271  0.76582  0.32176  1.0000
  C   C411      1.0  0.25535  0.73354  0.31812  1.0000
  C   C412      1.0  0.28795  0.73096  0.34504  1.0000
  C   C413      1.0  0.27936  0.71296  0.35948  1.0000
  C   C414      1.0  0.31339  0.73253  0.34093  1.0000
  C   C415      1.0  0.29526  0.69787  0.36955  1.0000
  C   C416      1.0  0.48959  0.59135  0.30765  1.0000
  C   C417      1.0  0.28858  0.61232  0.26121  1.0000
  H   H488      1.0  0.26557  0.76481  0.36470  1.0000
  H   H489      1.0  0.24251  0.76907  0.34374  1.0000
  H   H490      1.0  0.24235  0.74326  0.35949  1.0000
  H   H491      1.0  0.26922  0.77756  0.31447  1.0000
  H   H492      1.0  0.29488  0.77609  0.33288  1.0000
  H   H493      1.0  0.26658  0.72690  0.30440  1.0000
  H   H494      1.0  0.24540  0.71882  0.32619  1.0000
  H   H495      1.0  0.24151  0.74438  0.31018  1.0000
  H   H496      1.0  0.26022  0.71005  0.36268  1.0000
  H   H497      1.0  0.32161  0.74500  0.32954  1.0000
  H   H498      1.0  0.09664  0.95165  0.30255  1.0000
  H   H499      1.0  0.05304  0.81887  0.29905  1.0000
  C   C418      1.0  0.42257  0.57435  0.30314  1.0000
  H   H500      1.0  0.20253  0.93816  0.30163  1.0000
  H   H501      1.0  0.41871  0.58610  0.28887  1.0000
  C   C419      1.0  0.49207  0.62745  0.46618  1.0000
  C   C420      1.0  0.47443  0.61769  0.45138  1.0000
  C   C421      1.0  0.45352  0.61303  0.31249  1.0000
  C   C422      1.0  0.45651  0.55851  0.28494  1.0000
  C   C423      1.0  0.11859  0.92293  0.29613  1.0000
  H   H502      1.0  0.16544  0.89001  0.34480  1.0000
  C   C424      1.0  0.11384  0.94378  0.30560  1.0000
  H   H503      1.0  0.33225  0.68791  0.37276  1.0000
  H   H504      1.0  0.19754  0.89478  0.34822  1.0000
  H   H505      1.0  0.41183  0.55819  0.30054  1.0000
  H   H506      1.0  0.22038  0.92075  0.31997  1.0000
  H   H507      1.0  0.08259  0.83141  0.34215  1.0000
  H   H508      1.0  0.47167  0.55085  0.32742  1.0000
  H   H509      1.0  0.45599  0.56998  0.26990  1.0000
  H   H510      1.0  0.17413  0.87837  0.30715  1.0000
  H   H511      1.0  0.43861  0.58639  0.43860  1.0000
  H   H512      1.0  0.02008  0.80943  0.32269  1.0000
  H   H513      1.0  0.36876  0.58031  0.49228  1.0000
  H   H514      1.0  0.13233  0.98502  0.47576  1.0000
  C   C425      1.0  0.06010  0.83658  0.30142  1.0000
  C   C426      1.0  0.06528  0.86837  0.32568  1.0000
  C   C427      1.0  0.18050  0.90301  0.34305  1.0000
  H   H515      1.0  0.30808  0.63858  0.27918  1.0000
  H   H516      1.0  0.06119  0.87585  0.34218  1.0000
  H   H517      1.0  0.05308  0.84717  0.28735  1.0000
  C   C428      1.0  0.44182  0.62721  0.47796  1.0000
  H   H518      1.0  0.08538  0.86745  0.32476  1.0000
  C   C429      1.0  0.43590  0.63126  0.43824  1.0000
  H   H519      1.0  0.41592  0.63156  0.44096  1.0000
  H   H520      1.0  0.43846  0.62438  0.42122  1.0000
  H   H521      1.0  0.41505  0.58133  0.31875  1.0000
  C   C430      1.0  0.15868  0.92297  0.31430  1.0000
  C   C431      1.0  0.32009  0.70012  0.36547  1.0000
  C   C432      1.0  0.48326  0.60794  0.43150  1.0000
  H   H522      1.0  0.47096  0.60077  0.41913  1.0000
  H   H523      1.0  0.41804  0.59317  0.46002  1.0000
  C   C433      1.0  0.05743  0.88482  0.49602  1.0000
  N   N29       1.0  0.44799  0.61763  0.45587  1.0000
  H   H524      1.0  0.08026  0.83629  0.29975  1.0000
  H   H525      1.0  0.12698  0.97015  0.32746  1.0000
  H   H526      1.0  0.10498  0.91461  0.28568  1.0000
  H   H527      1.0  0.44125  0.53931  0.32406  1.0000
  C   C434      1.0  0.28828  0.65225  0.25110  1.0000
  H   H528      1.0  0.44670  0.56379  0.34086  1.0000
  C   C435      1.0  0.39483  0.50070  0.35137  1.0000
  C   C436      1.0  0.14056  0.91249  0.30050  1.0000
  C   C437      1.0  0.43766  0.59398  0.45549  1.0000
  C   C438      1.0  0.46384  0.59175  0.30812  1.0000
  S   S120      1.0  0.22974  0.73091  0.26122  1.0000
  C   C439      1.0  0.18727  0.89302  0.30478  1.0000
  H   H529      1.0  0.16511  0.95244  0.33566  1.0000
  H   H530      1.0  0.43422  0.61499  0.31403  1.0000
  C   C440      1.0  0.29618  0.63471  0.26509  1.0000
  H   H531      1.0  0.14269  0.89600  0.29329  1.0000
  C   C441      1.0  0.01181  0.82565  0.32437  1.0000
  H   H532      1.0  0.28835  0.68384  0.38004  1.0000
  H   H533      1.0  0.14178  0.98877  0.43893  1.0000
  C   C442      1.0  0.13097  0.95424  0.31955  1.0000
  C   C443      1.0  0.15298  0.94400  0.32397  1.0000
  C   C444      1.0  0.49333  0.63161  0.31500  1.0000
  N   N30       1.0  0.44896  0.57050  0.30536  1.0000
  H   H534      1.0  0.40914  0.50221  0.33900  1.0000
  C   C445      1.0  0.45242  0.55543  0.32520  1.0000
  C   C446      1.0  0.49769  0.63631  0.37363  1.0000
  C   C447      1.0  0.12676  0.90774  0.49022  1.0000
  H   H535      1.0  0.01428  0.88390  0.48116  1.0000
  H   H536      1.0  0.29452  0.66931  0.25493  1.0000
  H   H537      1.0  0.49064  0.57240  0.35996  1.0000
  H   H538      1.0  0.44737  0.64553  0.47895  1.0000
  H   H539      1.0  0.45023  0.61768  0.49207  1.0000
  H   H540      1.0  0.48718  0.63555  0.48156  1.0000
  H   H541      1.0  0.10921  0.99081  0.44236  1.0000
  H   H542      1.0  0.08036  0.99298  0.36968  1.0000
  C   C448      1.0  0.09987  0.99395  0.37185  1.0000
  H   H543      1.0  0.07753  0.88595  0.49722  1.0000
  C   C449      1.0  0.00564  0.88164  0.49734  1.0000
  Fe  Fe61      1.0  0.38054  0.63131  0.56929  1.0000
  S   S121      1.0  0.34649  0.61328  0.58164  1.0000
  S   S122      1.0  0.38162  0.65015  0.53563  1.0000
  Fe  Fe62      1.0  0.41013  0.61490  0.60925  1.0000
  S   S123      1.0  0.37791  0.59565  0.62454  1.0000
  S   S124      1.0  0.44602  0.60750  0.62624  1.0000
  Fe  Fe63      1.0  0.37036  0.58406  0.58956  1.0000
  S   S125      1.0  0.36159  0.54884  0.57615  1.0000
  Fe  Fe64      1.0  0.35646  0.62672  0.61592  1.0000
  S   S126      1.0  0.32431  0.63574  0.63868  1.0000
  S   S127      1.0  0.40368  0.60132  0.57484  1.0000
  S   S128      1.0  0.38943  0.64692  0.60300  1.0000
  Fe  Fe65      1.0  0.10797  0.91787  0.61628  1.0000
  S   S129      1.0  0.09896  0.88340  0.63193  1.0000
  S   S130      1.0  0.10657  0.95035  0.63605  1.0000
  Fe  Fe66      1.0  0.11928  0.89825  0.57051  1.0000
  S   S131      1.0  0.11209  0.86224  0.58244  1.0000
  S   S132      1.0  0.12816  0.91248  0.53575  1.0000
  Fe  Fe67      1.0  0.07937  0.87645  0.59937  1.0000
  S   S133      1.0  0.04268  0.85905  0.59285  1.0000
  Fe  Fe68      1.0  0.13242  0.87187  0.61415  1.0000
  S   S134      1.0  0.16539  0.85567  0.63107  1.0000
  S   S135      1.0  0.08556  0.91177  0.58555  1.0000
  S   S136      1.0  0.14231  0.90710  0.60044  1.0000
  Fe  Fe69      1.0  0.26389  0.73011  0.72178  1.0000
  S   S137      1.0  0.25713  0.76780  0.72079  1.0000
  S   S138      1.0  0.29556  0.72065  0.69879  1.0000
  H   H544      1.0  0.46122  0.64215  0.59288  1.0000
  Fe  Fe70      1.0  0.21731  0.75827  0.71980  1.0000
  S   S139      1.0  0.18674  0.77132  0.69706  1.0000
  H   H545      1.0  0.31369  0.56775  0.57811  1.0000
  S   S140      1.0  0.22420  0.72079  0.71846  1.0000
  C   C450      1.0  0.36282  0.50252  0.57813  1.0000
  H   H546      1.0  0.27425  0.56381  0.63993  1.0000
  H   H547      1.0  0.12228  0.86368  0.52783  1.0000
  C   C451      1.0  0.18113  0.79542  0.67943  1.0000
  C   C452      1.0  0.15796  0.79734  0.66972  1.0000
  C   C453      1.0  0.15271  0.81564  0.65504  1.0000
  C   C454      1.0  0.17069  0.83224  0.64969  1.0000
  C   C455      1.0  0.19393  0.83023  0.65929  1.0000
  C   C456      1.0  0.19913  0.81203  0.67411  1.0000
  H   H548      1.0  0.14391  0.78455  0.67357  1.0000
  H   H549      1.0  0.13480  0.81683  0.64778  1.0000
  H   H550      1.0  0.20800  0.84294  0.65531  1.0000
  H   H551      1.0  0.21704  0.81084  0.68136  1.0000
  H   H552      1.0  0.41128  0.50301  0.60104  1.0000
  C   C457      1.0  0.01538  0.86928  0.60376  1.0000
  C   C458      1.0  0.01530  0.88634  0.61980  1.0000
  C   C459      1.0  0.30228  0.49938  0.59295  1.0000
  H   H553      1.0  0.03233  0.89361  0.62589  1.0000
  C   C460      1.0  0.11517  0.97585  0.62156  1.0000
  C   C461      1.0  0.12257  0.97565  0.59914  1.0000
  H   H554      1.0  0.43512  0.54864  0.63059  1.0000
  H   H555      1.0  0.12348  0.95967  0.59053  1.0000
  H   H556      1.0  0.03875  0.94941  0.62799  1.0000
  H   H557      1.0  0.04769  0.84353  0.51545  1.0000
  N   N31       1.0  0.04602  0.87985  0.51824  1.0000
  C   C462      1.0  0.29807  0.53619  0.61112  1.0000
  H   H558      1.0  0.37430  0.60179  0.52745  1.0000
  H   H559      1.0  0.30204  0.53056  0.57492  1.0000
  C   C463      1.0  0.31713  0.65938  0.65574  1.0000
  C   C464      1.0  0.29527  0.65847  0.66808  1.0000
  C   C465      1.0  0.28848  0.67680  0.68150  1.0000
  C   C466      1.0  0.30343  0.69649  0.68275  1.0000
  C   C467      1.0  0.32526  0.69743  0.67038  1.0000
  C   C468      1.0  0.33210  0.67906  0.65704  1.0000
  H   H560      1.0  0.28347  0.64342  0.66727  1.0000
  H   H561      1.0  0.27165  0.67567  0.69082  1.0000
  H   H562      1.0  0.33700  0.71253  0.67104  1.0000
  H   H563      1.0  0.34891  0.68018  0.64767  1.0000
  C   C469      1.0  0.30052  0.52301  0.59152  1.0000
  C   C470      1.0  0.36261  0.52246  0.59068  1.0000
  H   H564      1.0  0.04818  0.91454  0.52919  1.0000
  H   H565      1.0  0.36231  0.53599  0.62402  1.0000
  H   H566      1.0  0.13370  0.98579  0.51637  1.0000
  C   C471      1.0  0.29954  0.50060  0.63324  1.0000
  C   C472      1.0  0.47468  0.61636  0.61518  1.0000
  C   C473      1.0  0.47716  0.63389  0.59912  1.0000
  H   H567      1.0  0.47393  0.55731  0.61130  1.0000
  N   N32       1.0  0.17009  0.90626  0.67685  1.0000
  C   C474      1.0  0.19187  0.90708  0.66218  1.0000
  C   C475      1.0  0.14871  0.91001  0.66224  1.0000
  C   C476      1.0  0.17194  0.92537  0.69270  1.0000
  C   C477      1.0  0.16864  0.88438  0.68956  1.0000
  C   C478      1.0  0.18805  0.87804  0.70379  1.0000
  C   C479      1.0  0.14833  0.86882  0.68829  1.0000
  H   H568      1.0  0.30904  0.74520  0.73871  1.0000
  C   C480      1.0  0.04275  0.98500  0.61911  1.0000
  H   H569      1.0  0.47718  0.55105  0.58176  1.0000
  H   H570      1.0  0.19172  0.89216  0.65093  1.0000
  H   H571      1.0  0.19270  0.92261  0.65121  1.0000
  H   H572      1.0  0.20909  0.90700  0.67184  1.0000
  H   H573      1.0  0.15035  0.92644  0.65267  1.0000
  H   H574      1.0  0.13157  0.91054  0.67204  1.0000
  H   H575      1.0  0.36867  0.76145  0.71502  1.0000
  H   H576      1.0  0.18872  0.92503  0.70302  1.0000
  H   H577      1.0  0.17218  0.94214  0.68369  1.0000
  H   H578      1.0  0.15617  0.92484  0.70440  1.0000
  H   H579      1.0  0.20407  0.88896  0.70563  1.0000
  H   H580      1.0  0.13293  0.87178  0.67756  1.0000
  H   H581      1.0  0.48835  0.52140  0.60539  1.0000
  H   H582      1.0  0.14675  0.89650  0.64953  1.0000
  H   H583      1.0  0.36105  0.49803  0.64295  1.0000
  N   N33       1.0  0.29678  0.56130  0.61039  1.0000
  H   H584      1.0  0.29535  0.58999  0.58728  1.0000
  H   H585      1.0  0.20261  0.85253  0.72601  1.0000
  H   H586      1.0  0.41225  0.53150  0.57476  1.0000
  H   H587      1.0  0.44129  0.53298  0.56113  1.0000
  H   H588      1.0  0.07534  0.89916  0.53393  1.0000
  H   H589      1.0  0.30957  0.79138  0.71681  1.0000
  C   C481      1.0  0.49556  0.60587  0.62321  1.0000
  H   H590      1.0  0.01453  0.87383  0.55366  1.0000
  H   H591      1.0  0.40903  0.53876  0.61503  1.0000
  C   C482      1.0  0.00555  0.87608  0.53769  1.0000
  C   C483      1.0  0.12266  0.87265  0.51183  1.0000
  N   N34       1.0  0.33693  0.77123  0.73309  1.0000
  H   H592      1.0  0.42648  0.55839  0.56882  1.0000
  H   H593      1.0  0.29647  0.53310  0.64767  1.0000
  C   C484      1.0  0.42637  0.54880  0.61374  1.0000
  H   H594      1.0  0.27264  0.58716  0.62080  1.0000
  H   H595      1.0  0.04980  0.89375  0.55156  1.0000
  H   H596      1.0  0.04827  0.85338  0.54381  1.0000
  H   H597      1.0  0.31878  0.56643  0.64020  1.0000
  H   H598      1.0  0.28093  0.56432  0.57736  1.0000
  C   C485      1.0  0.37709  0.63448  0.51074  1.0000
  C   C486      1.0  0.29764  0.52422  0.63204  1.0000
  N   N35       1.0  0.44274  0.54010  0.59641  1.0000
  H   H599      1.0  0.33521  0.56619  0.61432  1.0000
  C   C487      1.0  0.46424  0.55606  0.59492  1.0000
  C   C488      1.0  0.29660  0.57114  0.58725  1.0000
  H   H600      1.0  0.45894  0.57372  0.59060  1.0000
  H   H601      1.0  0.34422  0.74052  0.71527  1.0000
  C   C489      1.0  0.14779  0.84820  0.70036  1.0000
  C   C490      1.0  0.43020  0.54073  0.57436  1.0000
  C   C491      1.0  0.18737  0.85729  0.71563  1.0000
  H   H602      1.0  0.36288  0.50365  0.55999  1.0000
  H   H603      1.0  0.33814  0.79088  0.70228  1.0000
  H   H604      1.0  0.31707  0.76678  0.70206  1.0000
  H   H605      1.0  0.49380  0.59236  0.63571  1.0000
  N   N36       1.0  0.22879  0.74291  0.64611  1.0000
  C   C492      1.0  0.21213  0.75913  0.63531  1.0000
  C   C493      1.0  0.21356  0.72525  0.65804  1.0000
  C   C494      1.0  0.24356  0.75567  0.66284  1.0000
  C   C495      1.0  0.24508  0.73199  0.63013  1.0000
  C   C496      1.0  0.26194  0.71601  0.63799  1.0000
  C   C497      1.0  0.24497  0.73684  0.60665  1.0000
  C   C498      1.0  0.27758  0.70546  0.62334  1.0000
  C   C499      1.0  0.26075  0.72618  0.59213  1.0000
  C   C500      1.0  0.27700  0.71053  0.60046  1.0000
  H   H606      1.0  0.19999  0.75059  0.62286  1.0000
  H   H607      1.0  0.19993  0.76669  0.64781  1.0000
  H   H608      1.0  0.22227  0.77366  0.62701  1.0000
  H   H609      1.0  0.20267  0.71484  0.64600  1.0000
  H   H610      1.0  0.20065  0.73291  0.66990  1.0000
  H   H611      1.0  0.22452  0.71345  0.66828  1.0000
  H   H612      1.0  0.25618  0.76833  0.65448  1.0000
  H   H613      1.0  0.23194  0.76503  0.67452  1.0000
  H   H614      1.0  0.25468  0.74433  0.67348  1.0000
  H   H615      1.0  0.26326  0.71162  0.65563  1.0000
  H   H616      1.0  0.23294  0.74884  0.59906  1.0000
  H   H617      1.0  0.29031  0.69331  0.62978  1.0000
  H   H618      1.0  0.26044  0.73012  0.57428  1.0000
  H   H619      1.0  0.28926  0.70232  0.58919  1.0000
  C   C501      1.0  0.27441  0.56835  0.62176  1.0000
  C   C502      1.0  0.01912  0.87930  0.51760  1.0000
  H   H620      1.0  0.25796  0.56026  0.61400  1.0000
  H   H621      1.0  0.06224  0.98455  0.62104  1.0000
  C   C503      1.0  0.36244  0.52080  0.61412  1.0000
  H   H622      1.0  0.13247  0.83626  0.69859  1.0000
  C   C504      1.0  0.31810  0.57147  0.62218  1.0000
  H   H623      1.0  0.42147  0.56663  0.60997  1.0000
  C   C505      1.0  0.47294  0.50954  0.60594  1.0000
  H   H624      1.0  0.31817  0.59039  0.62159  1.0000
  C   C506      1.0  0.37419  0.61078  0.51146  1.0000
  H   H625      1.0  0.36172  0.74436  0.74002  1.0000
  C   C507      1.0  0.44876  0.51637  0.60212  1.0000
  C   C508      1.0  0.32499  0.78055  0.71272  1.0000
  C   C509      1.0  0.12590  0.89633  0.51111  1.0000
  C   C510      1.0  0.43009  0.49913  0.60360  1.0000
  H   H626      1.0  0.07465  0.85717  0.52676  1.0000
  C   C511      1.0  0.35378  0.75375  0.72557  1.0000
  C   C512      1.0  0.05445  0.85752  0.52638  1.0000
  C   C513      1.0  0.05511  0.89759  0.53386  1.0000
  H   H627      1.0  0.16710  0.82600  0.72253  1.0000
  C   C514      1.0  0.16731  0.84236  0.71384  1.0000
  C   C515      1.0  0.36181  0.49927  0.62483  1.0000
  C   C516      1.0  0.00419  0.96409  0.62152  1.0000
  C   C517      1.0  0.02940  0.96472  0.62330  1.0000
  C   C518      1.0  0.34898  0.78981  0.74590  1.0000
  Fe  Fe71      1.0  0.37138  0.87641  0.90722  1.0000
  S   S141      1.0  0.38951  0.91041  0.90012  1.0000
  S   S142      1.0  0.35633  0.86390  0.94092  1.0000
  Fe  Fe72      1.0  0.36957  0.86331  0.85743  1.0000
  S   S143      1.0  0.38792  0.89668  0.84631  1.0000
  S   S144      1.0  0.36039  0.83183  0.83605  1.0000
  Fe  Fe73      1.0  0.41291  0.89205  0.87595  1.0000
  S   S145      1.0  0.45176  0.90635  0.87400  1.0000
  Fe  Fe74      1.0  0.36376  0.91306  0.87124  1.0000
  S   S146      1.0  0.34330  0.94564  0.86736  1.0000
  S   S147      1.0  0.39674  0.85749  0.88537  1.0000
  S   S148      1.0  0.34340  0.88025  0.88004  1.0000
  Fe  Fe75      1.0  0.10691  0.57656  0.87192  1.0000
  S   S149      1.0  0.10332  0.61134  0.85596  1.0000
  S   S150      1.0  0.10007  0.54445  0.85214  1.0000
  Fe  Fe76      1.0  0.11521  0.59521  0.91899  1.0000
  S   S151      1.0  0.11320  0.63140  0.90670  1.0000
  S   S152      1.0  0.11189  0.57983  0.95416  1.0000
  Fe  Fe77      1.0  0.08102  0.61886  0.88650  1.0000
  S   S153      1.0  0.04642  0.63866  0.88806  1.0000
  Fe  Fe78      1.0  0.13578  0.62125  0.87707  1.0000
  S   S154      1.0  0.16931  0.64261  0.86519  1.0000
  S   S155      1.0  0.08188  0.58346  0.90027  1.0000
  S   S156      1.0  0.14057  0.58567  0.89139  1.0000
  H   H628      1.0  0.27059  0.74686  0.89272  1.0000
  S   S157      1.0  0.19643  0.69270  0.77129  1.0000
  S   S158      1.0  0.26862  0.79575  0.77864  1.0000
  H   H629      1.0  0.20822  0.61093  0.80719  1.0000
  C   C519      1.0  0.17578  0.65763  0.83936  1.0000
  C   C520      1.0  0.19811  0.66988  0.83692  1.0000
  C   C521      1.0  0.20440  0.68144  0.81660  1.0000
  C   C522      1.0  0.18846  0.68083  0.79830  1.0000
  C   C523      1.0  0.16599  0.66880  0.80087  1.0000
  C   C524      1.0  0.15969  0.65727  0.82118  1.0000
  H   H630      1.0  0.21074  0.67033  0.85082  1.0000
  H   H631      1.0  0.22179  0.69043  0.81497  1.0000
  H   H632      1.0  0.15347  0.66815  0.78690  1.0000
  H   H633      1.0  0.14244  0.64803  0.82267  1.0000
  Fe  Fe79      1.0  0.25436  0.76491  0.75852  1.0000
  H   H634      1.0  0.03147  0.59077  0.88694  1.0000
  H   H635      1.0  0.25976  0.75853  0.85401  1.0000
  H   H636      1.0  0.29551  0.77164  0.91615  1.0000
  C   C525      1.0  0.13784  0.61102  0.97990  1.0000
  C   C526      1.0  0.12015  0.59343  0.97932  1.0000
  H   H637      1.0  0.03031  0.59644  0.96367  1.0000
  H   H638      1.0  0.11564  0.52711  0.96805  1.0000
  H   H639      1.0  0.14636  0.61716  0.96449  1.0000
  H   H640      1.0  0.34070  0.85945  0.98684  1.0000
  C   C527      1.0  0.33580  0.80900  0.75212  1.0000
  C   C528      1.0  0.13474  0.51906  0.87366  1.0000
  C   C529      1.0  0.11393  0.51894  0.86020  1.0000
  C   C530      1.0  0.04754  0.60417  0.95692  1.0000
  H   H641      1.0  0.18822  0.55104  0.82741  1.0000
  H   H642      1.0  0.14250  0.53496  0.87963  1.0000
  H   H643      1.0  0.06259  0.59354  0.96304  1.0000
  H   H644      1.0  0.30379  0.80342  0.93757  1.0000
  C   C531      1.0  0.47822  0.89045  0.87689  1.0000
  H   H645      1.0  0.27431  0.79578  0.83871  1.0000
  C   C532      1.0  0.35917  0.97118  0.85962  1.0000
  H   H646      1.0  0.10080  0.53629  0.93008  1.0000
  H   H647      1.0  0.35327  0.91359  0.94849  1.0000
  H   H648      1.0  0.45994  0.85769  0.88079  1.0000
  C   C533      1.0  0.36383  0.93410  0.97656  1.0000
  H   H649      1.0  0.37807  0.83790  0.78321  1.0000
  H   H650      1.0  0.37532  0.99078  0.97545  1.0000
  H   H651      1.0  0.32846  0.99175  0.86589  1.0000
  H   H652      1.0  0.14577  0.55375  0.82836  1.0000
  C   C534      1.0  0.15698  0.61778  0.76344  1.0000
  C   C535      1.0  0.33389  0.82178  0.82145  1.0000
  C   C536      1.0  0.31472  0.83583  0.81609  1.0000
  C   C537      1.0  0.29490  0.82746  0.80319  1.0000
  C   C538      1.0  0.29380  0.80491  0.79559  1.0000
  C   C539      1.0  0.31260  0.79064  0.80158  1.0000
  C   C540      1.0  0.33255  0.79909  0.81425  1.0000
  H   H653      1.0  0.31543  0.85332  0.82139  1.0000
  H   H654      1.0  0.28042  0.83865  0.79885  1.0000
  H   H655      1.0  0.31187  0.77315  0.79638  1.0000
  H   H656      1.0  0.34722  0.78801  0.81832  1.0000
  C   C541      1.0  0.37097  0.87130  0.96637  1.0000
  C   C542      1.0  0.35884  0.86709  0.98685  1.0000
  C   C543      1.0  0.39438  0.88125  0.96655  1.0000
  H   H657      1.0  0.02991  0.64216  0.93683  1.0000
  H   H658      1.0  0.40389  0.88461  0.95090  1.0000
  H   H659      1.0  0.29977  0.82136  0.86121  1.0000
  N   N37       1.0  0.36528  0.99029  0.92891  1.0000
  C   C544      1.0  0.38397  0.98600  0.91177  1.0000
  C   C545      1.0  0.09978  0.50155  0.91946  1.0000
  C   C546      1.0  0.37028  0.82488  0.77241  1.0000
  C   C547      1.0  0.19660  0.62833  0.77785  1.0000
  H   H660      1.0  0.02957  0.63477  0.83056  1.0000
  H   H661      1.0  0.30387  0.77133  0.75251  1.0000
  H   H662      1.0  0.39271  0.95555  0.85162  1.0000
  H   H663      1.0  0.01578  0.61707  0.99475  1.0000
  H   H664      1.0  0.18022  0.64468  0.74947  1.0000
  C   C548      1.0  0.40571  0.88654  0.98707  1.0000
  C   C549      1.0  0.38373  0.80627  0.76671  1.0000
  C   C550      1.0  0.14577  0.49851  0.87922  1.0000
  C   C551      1.0  0.10394  0.51876  0.93484  1.0000
  H   H665      1.0  0.32634  0.75277  0.76317  1.0000
  H   H666      1.0  0.07106  0.63753  0.93350  1.0000
  C   C552      1.0  0.99956  0.52351  0.86880  1.0000
  H   H667      1.0  0.33677  0.97651  0.90744  1.0000
  H   H668      1.0  0.38474  0.77491  0.75011  1.0000
  H   H669      1.0  0.01287  0.63400  0.96105  1.0000
  C   C553      1.0  0.36455  0.97136  0.94562  1.0000
  H   H670      1.0  0.00113  0.60272  0.84011  1.0000
  H   H671      1.0  0.01353  0.53688  0.87032  1.0000
  H   H672      1.0  0.09341  0.50577  0.90272  1.0000
  C   C554      1.0  0.01544  0.60067  0.88826  1.0000
  C   C555      1.0  0.17241  0.59777  0.79678  1.0000
  H   H673      1.0  0.99815  0.65529  0.89155  1.0000
  H   H674      1.0  0.21265  0.63958  0.77727  1.0000
  H   H675      1.0  0.15555  0.60431  0.83824  1.0000
  N   N38       1.0  0.31532  0.81527  0.90466  1.0000
  C   C556      1.0  0.33889  0.81998  0.89323  1.0000
  C   C557      1.0  0.30275  0.83697  0.90698  1.0000
  C   C558      1.0  0.32068  0.80657  0.92763  1.0000
  C   C559      1.0  0.30016  0.79936  0.89112  1.0000
  C   C560      1.0  0.29144  0.77777  0.89945  1.0000
  C   C561      1.0  0.29361  0.80535  0.86880  1.0000
  C   C562      1.0  0.27704  0.76328  0.88613  1.0000
  C   C563      1.0  0.27913  0.79079  0.85571  1.0000
  C   C564      1.0  0.27089  0.76978  0.86432  1.0000
  H   H676      1.0  0.33672  0.82920  0.87701  1.0000
  H   H677      1.0  0.35144  0.83083  0.90350  1.0000
  H   H678      1.0  0.34822  0.80401  0.88957  1.0000
  H   H679      1.0  0.30017  0.84584  0.89058  1.0000
  H   H680      1.0  0.31330  0.84919  0.91760  1.0000
  H   H681      1.0  0.28454  0.83408  0.91477  1.0000
  H   H682      1.0  0.33107  0.79074  0.92714  1.0000
  H   H683      1.0  0.33211  0.81907  0.93724  1.0000
  C   C565      1.0  0.47732  0.86682  0.87997  1.0000
  H   H684      1.0  0.19112  0.55669  0.79773  1.0000
  H   H685      1.0  0.18771  0.60239  0.83974  1.0000
  C   C566      1.0  0.17057  0.59226  0.83704  1.0000
  H   H686      1.0  0.16882  0.57996  0.85137  1.0000
  C   C567      1.0  0.19022  0.56484  0.81441  1.0000
  H   H687      1.0  0.20809  0.57357  0.81758  1.0000
  C   C568      1.0  0.39590  0.99218  0.84790  1.0000
  C   C569      1.0  0.14688  0.56665  0.81443  1.0000
  H   H688      1.0  0.40215  0.98423  0.91959  1.0000
  C   C570      1.0  0.19377  0.61194  0.79499  1.0000
  N   N39       1.0  0.16988  0.58063  0.81522  1.0000
  C   C571      1.0  0.01766  0.62435  0.88916  1.0000
  H   H689      1.0  0.01386  0.67174  0.81829  1.0000
  H   H690      1.0  0.13068  0.57721  0.81648  1.0000
  H   H691      1.0  0.14511  0.55711  0.79854  1.0000
  H   H692      1.0  0.37988  0.97008  0.90248  1.0000
  H   H693      1.0  0.40215  0.80511  0.77292  1.0000
  C   C572      1.0  0.07352  0.63739  0.95205  1.0000
  C   C573      1.0  0.15398  0.60122  0.78047  1.0000
  H   H694      1.0  0.04677  0.60272  0.93829  1.0000
  C   C574      1.0  0.05319  0.62905  0.98855  1.0000
  C   C575      1.0  0.34739  0.99184  0.86112  1.0000
  H   H695      1.0  0.08956  0.62689  0.95555  1.0000
  C   C576      1.0  0.34130  0.99168  0.91772  1.0000
  S   S159      1.0  0.26334  0.72767  0.75985  1.0000
  C   C577      1.0  0.37036  0.97438  0.96868  1.0000
  C   C578      1.0  0.47601  0.98556  0.85380  1.0000
  C   C579      1.0  0.37000  0.95591  0.98383  1.0000
  C   C580      1.0  0.01015  0.63684  0.82904  1.0000
  H   H696      1.0  0.14256  0.62052  0.75143  1.0000
  C   C581      1.0  0.48787  0.96518  0.85116  1.0000
  H   H697      1.0  0.13692  0.59162  0.78068  1.0000
  H   H698      1.0  0.45642  0.98461  0.85352  1.0000
  C   C582      1.0  0.00122  0.65770  0.82227  1.0000
  H   H699      1.0  0.09178  0.63977  0.99122  1.0000
  H   H700      1.0  0.47738  0.94927  0.84954  1.0000
  Fe  Fe80      1.0  0.22271  0.72056  0.75647  1.0000
  C   C583      1.0  0.03072  0.64144  0.95555  1.0000
  H   H701      1.0  0.42396  0.89394  0.98708  1.0000
  C   C584      1.0  0.11240  0.51348  0.95626  1.0000
  C   C585      1.0  0.37338  0.78895  0.75360  1.0000
  N   N40       1.0  0.05144  0.62812  0.96375  1.0000
  H   H702      1.0  0.03226  0.65926  0.96149  1.0000
  C   C586      1.0  0.34646  0.82635  0.76493  1.0000
  C   C587      1.0  0.38351  0.97140  0.85300  1.0000
  H   H703      1.0  0.16200  0.49874  0.88944  1.0000
  H   H704      1.0  0.33583  0.84052  0.76998  1.0000
  H   H705      1.0  0.07792  0.65526  0.95681  1.0000
  H   H706      1.0  0.35385  0.94518  0.92156  1.0000
  C   C588      1.0  0.17824  0.63128  0.76215  1.0000
  S   S160      1.0  0.21376  0.75759  0.75743  1.0000
  C   C589      1.0  0.35793  0.93062  0.95414  1.0000
  C   C590      1.0  0.35829  0.94889  0.93885  1.0000
  H   H707      1.0  0.41449  0.99215  0.84223  1.0000
  C   C591      1.0  0.10406  0.49810  0.85265  1.0000
  H   H708      1.0  0.08804  0.49787  0.84214  1.0000
  C   C592      1.0  0.00464  0.50107  0.87469  1.0000
  H   H709      1.0  0.36375  0.91982  0.98832  1.0000
  H   H710      1.0  0.32652  0.99322  0.93025  1.0000
  H   H711      1.0  0.02272  0.49787  0.88074  1.0000
  C   C593      1.0  0.31823  0.75966  0.74747  1.0000
  H   H712      1.0  0.31679  0.81035  0.74797  1.0000
  Fe  Fe81      1.0  0.59247  0.11163  0.10082  1.0000
  S   S161      1.0  0.61990  0.14038  0.09402  1.0000
  S   S162      1.0  0.55684  0.11525  0.11928  1.0000
  Fe  Fe82      1.0  0.62730  0.07484  0.08784  1.0000
  S   S163      1.0  0.65734  0.10081  0.08118  1.0000
  S   S164      1.0  0.63471  0.03889  0.07715  1.0000
  Fe  Fe83      1.0  0.64618  0.11843  0.11256  1.0000
  S   S165      1.0  0.67332  0.12705  0.14086  1.0000
  Fe  Fe84      1.0  0.62887  0.12040  0.06315  1.0000
  S   S166      1.0  0.64130  0.13367  0.02887  1.0000
  S   S167      1.0  0.61835  0.09046  0.12071  1.0000
  S   S168      1.0  0.59918  0.09372  0.06846  1.0000
  Fe  Fe85      1.0  0.88461  0.39816  0.07116  1.0000
  S   S169      1.0  0.88837  0.36231  0.08417  1.0000
  S   S170      1.0  0.88449  0.41373  0.03584  1.0000
  Fe  Fe86      1.0  0.89002  0.41830  0.11788  1.0000
  S   S171      1.0  0.89408  0.38410  0.13481  1.0000
  S   S172      1.0  0.89798  0.45133  0.13594  1.0000
  Fe  Fe87      1.0  0.91853  0.37668  0.10587  1.0000
  S   S173      1.0  0.95319  0.35858  0.11443  1.0000
  Fe  Fe88      1.0  0.86358  0.37192  0.11251  1.0000
  S   S174      1.0  0.83223  0.34712  0.12318  1.0000
  S   S175      1.0  0.91676  0.41159  0.09084  1.0000
  S   S176      1.0  0.85751  0.40706  0.09761  1.0000
  Fe  Fe89      1.0  0.77969  0.26025  0.22321  1.0000
  S   S177      1.0  0.74007  0.26800  0.22216  1.0000
  S   S178      1.0  0.81082  0.28446  0.21074  1.0000
  Fe  Fe90      1.0  0.73340  0.22989  0.21835  1.0000
  S   S179      1.0  0.70443  0.21878  0.19237  1.0000
  S   S180      1.0  0.77332  0.22258  0.21740  1.0000
  C   C594      1.0  0.88344  0.47649  0.12812  1.0000
  H   H713      1.0  0.91008  0.45966  0.02608  1.0000
  H   H714      1.0  0.90990  0.33028  0.11507  1.0000
  H   H715      1.0  0.87992  0.32742  0.12636  1.0000
  C   C595      1.0  0.86189  0.47589  0.11572  1.0000
  H   H716      1.0  0.89587  0.33487  0.16506  1.0000
  H   H717      1.0  0.85344  0.45972  0.11128  1.0000
  C   C596      1.0  0.98106  0.36940  0.10316  1.0000
  C   C597      1.0  0.98164  0.38647  0.08657  1.0000
  H   H718      1.0  0.96489  0.39304  0.08020  1.0000
  H   H719      1.0  0.79104  0.35424  0.17403  1.0000
  C   C598      1.0  0.82613  0.33046  0.14803  1.0000
  C   C599      1.0  0.84049  0.33235  0.16732  1.0000
  C   C600      1.0  0.83536  0.31832  0.18635  1.0000
  C   C601      1.0  0.81553  0.30251  0.18659  1.0000
  C   C602      1.0  0.80070  0.30111  0.16755  1.0000
  C   C603      1.0  0.80608  0.31489  0.14838  1.0000
  H   H720      1.0  0.85544  0.34471  0.16761  1.0000
  H   H721      1.0  0.84690  0.31968  0.20099  1.0000
  H   H722      1.0  0.78541  0.28906  0.16736  1.0000
  H   H723      1.0  0.79470  0.31336  0.13364  1.0000
  C   C604      1.0  0.85715  0.25977  0.17764  1.0000
  H   H724      1.0  0.59066  0.12248  0.01921  1.0000
  H   H725      1.0  0.85843  0.37066  0.02607  1.0000
  H   H726      1.0  0.93709  0.47107  0.04010  1.0000
  C   C605      1.0  0.62336  0.01287  0.11523  1.0000
  C   C606      1.0  0.62903  0.01322  0.09237  1.0000
  C   C607      1.0  0.86630  0.28489  0.14592  1.0000
  H   H727      1.0  0.62135  0.02865  0.12392  1.0000
  C   C608      1.0  0.87975  0.26530  0.18691  1.0000
  C   C609      1.0  0.86373  0.37893  0.01038  1.0000
  C   C610      1.0  0.91822  0.46418  0.04260  1.0000
  H   H728      1.0  0.86633  0.47961  0.06773  1.0000
  C   C611      1.0  0.97947  0.41393  0.13958  1.0000
  C   C612      1.0  0.68293  0.15313  0.15387  1.0000
  C   C613      1.0  0.70042  0.15257  0.17114  1.0000
  C   C614      1.0  0.70788  0.17251  0.18259  1.0000
  C   C615      1.0  0.69770  0.19335  0.17712  1.0000
  C   C616      1.0  0.68045  0.19394  0.15966  1.0000
  C   C617      1.0  0.67329  0.17409  0.14797  1.0000
  H   H729      1.0  0.70818  0.13657  0.17585  1.0000
  H   H730      1.0  0.72113  0.17167  0.19595  1.0000
  H   H731      1.0  0.67251  0.20992  0.15516  1.0000
  H   H732      1.0  0.66035  0.17513  0.13440  1.0000
  C   C618      1.0  0.89579  0.28058  0.17574  1.0000
  C   C619      1.0  0.52956  0.11887  0.10422  1.0000
  C   C620      1.0  0.52956  0.12908  0.08286  1.0000
  H   H733      1.0  0.72144  0.34204  0.23263  1.0000
  H   H734      1.0  0.54661  0.13398  0.07483  1.0000
  H   H735      1.0  0.89243  0.30490  0.11016  1.0000
  H   H736      1.0  0.87967  0.45253  0.06713  1.0000
  C   C621      1.0  0.89662  0.31795  0.12300  1.0000
  H   H737      1.0  0.78771  0.40933  0.21973  1.0000
  H   H738      1.0  0.91969  0.44773  0.05199  1.0000
  H   H739      1.0  0.93278  0.49184  0.07577  1.0000
  H   H740      1.0  0.92535  0.28198  0.12666  1.0000
  H   H741      1.0  0.86986  0.46559  0.04150  1.0000
  C   C622      1.0  0.68742  0.01460  0.14317  1.0000
  H   H742      1.0  0.68691  0.02455  0.15820  1.0000
  C   C623      1.0  0.99413  0.45815  0.12687  1.0000
  H   H743      1.0  0.91309  0.28436  0.18362  1.0000
  C   C624      1.0  0.69130  0.01056  0.10297  1.0000
  H   H744      1.0  0.94332  0.42639  0.14071  1.0000
  C   C625      1.0  0.77344  0.37692  0.23230  1.0000
  H   H745      1.0  0.64896  0.18422  0.00981  1.0000
  C   C626      1.0  0.87869  0.46915  0.05794  1.0000
  N   N41       1.0  0.69570  0.05006  0.11978  1.0000
  C   C627      1.0  0.70058  0.05825  0.09643  1.0000
  C   C628      1.0  0.67384  0.06140  0.12776  1.0000
  C   C629      1.0  0.71675  0.05752  0.13373  1.0000
  C   C630      1.0  0.69169  0.02508  0.12181  1.0000
  N   N42       1.0  0.90310  0.48023  0.05488  1.0000
  H   H746      1.0  0.63844  0.21084  0.20525  1.0000
  C   C631      1.0  0.96963  0.45270  0.13122  1.0000
  H   H747      1.0  0.77256  0.32817  0.20186  1.0000
  C   C632      1.0  0.85058  0.26934  0.15710  1.0000
  H   H748      1.0  0.68480  0.05446  0.08520  1.0000
  H   H749      1.0  0.70381  0.07705  0.09552  1.0000
  H   H750      1.0  0.71695  0.05052  0.08935  1.0000
  H   H751      1.0  0.65756  0.05577  0.11799  1.0000
  H   H752      1.0  0.67586  0.08024  0.12595  1.0000
  H   H753      1.0  0.66991  0.05772  0.14574  1.0000
  H   H754      1.0  0.73340  0.04867  0.12884  1.0000
  H   H755      1.0  0.72063  0.07620  0.13196  1.0000
  H   H756      1.0  0.71363  0.05417  0.15191  1.0000
  C   C633      1.0  0.76883  0.35347  0.22793  1.0000
  C   C634      1.0  0.96234  0.43063  0.13756  1.0000
  H   H757      1.0  0.69338  0.01693  0.08596  1.0000
  H   H758      1.0  0.79897  0.39467  0.18264  1.0000
  H   H759      1.0  0.97358  0.39664  0.14403  1.0000
  N   N43       1.0  0.60492  0.14516  0.17264  1.0000
  C   C635      1.0  0.57979  0.14922  0.18007  1.0000
  C   C636      1.0  0.60799  0.15404  0.14937  1.0000
  C   C637      1.0  0.60761  0.12016  0.17209  1.0000
  C   C638      1.0  0.62263  0.15698  0.18756  1.0000
  C   C639      1.0  0.64121  0.14552  0.19928  1.0000
  C   C640      1.0  0.62189  0.18086  0.19036  1.0000
  C   C641      1.0  0.78606  0.36056  0.19032  1.0000
  C   C642      1.0  0.63864  0.19248  0.20402  1.0000
  C   C643      1.0  0.65772  0.15731  0.21305  1.0000
  H   H760      1.0  0.57530  0.16742  0.17861  1.0000
  H   H761      1.0  0.56611  0.13974  0.16964  1.0000
  H   H762      1.0  0.57707  0.14370  0.19788  1.0000
  H   H763      1.0  0.60552  0.17263  0.14789  1.0000
  H   H764      1.0  0.59468  0.14580  0.13772  1.0000
  H   H765      1.0  0.62648  0.15076  0.14304  1.0000
  H   H766      1.0  0.62572  0.11584  0.16539  1.0000
  H   H767      1.0  0.60520  0.11219  0.18904  1.0000
  H   H768      1.0  0.59387  0.11183  0.16086  1.0000
  H   H769      1.0  0.64391  0.12757  0.19760  1.0000
  H   H770      1.0  0.60875  0.19086  0.18155  1.0000
  C   C644      1.0  0.77541  0.34578  0.20640  1.0000
  H   H771      1.0  0.93886  0.28999  0.15294  1.0000
  H   H772      1.0  0.95606  0.46553  0.12959  1.0000
  H   H773      1.0  0.67000  0.18995  0.22525  1.0000
  H   H774      1.0  0.67227  0.14844  0.22126  1.0000
  H   H775      1.0  0.50716  0.10469  0.13098  1.0000
  C   C645      1.0  0.88944  0.29111  0.15503  1.0000
  C   C646      1.0  0.65647  0.18072  0.21539  1.0000
  C   C647      1.0  0.50745  0.13380  0.07223  1.0000
  H   H776      1.0  0.94222  0.30859  0.12909  1.0000
  C   C648      1.0  0.79052  0.38336  0.19516  1.0000
  C   C649      1.0  0.92919  0.29654  0.13795  1.0000
  H   H777      1.0  0.85951  0.29228  0.13054  1.0000
  H   H778      1.0  0.92260  0.32104  0.17445  1.0000
  C   C650      1.0  0.50730  0.11271  0.11451  1.0000
  C   C651      1.0  0.78419  0.39154  0.21607  1.0000
  H   H779      1.0  0.52610  0.99730  0.10224  1.0000
  C   C652      1.0  0.87691  0.39969  0.01057  1.0000
  H   H780      1.0  0.91610  0.46711  0.08665  1.0000
  C   C653      1.0  0.60095  0.12113  0.00387  1.0000
  H   H781      1.0  0.50761  0.14237  0.05602  1.0000
  H   H782      1.0  0.88462  0.25795  0.20303  1.0000
  C   C654      1.0  0.73422  0.32818  0.23598  1.0000
  N   N44       1.0  0.90649  0.30777  0.14391  1.0000
  C   C655      1.0  0.62617  0.12451  0.00425  1.0000
  H   H783      1.0  0.84441  0.24848  0.18666  1.0000
  H   H784      1.0  0.73631  0.31888  0.22007  1.0000
  C   C656      1.0  0.91256  0.32668  0.15933  1.0000
  H   H785      1.0  0.83272  0.26536  0.15023  1.0000
  H   H786      1.0  0.92433  0.34015  0.15104  1.0000
  C   C657      1.0  0.91438  0.48353  0.07725  1.0000
  H   H787      1.0  0.77549  0.30728  0.23380  1.0000
  H   H788      1.0  0.90352  0.49436  0.08810  1.0000
  N   N45       1.0  0.75776  0.33735  0.24467  1.0000
  Fe  Fe91      1.0  0.62792  0.40648  0.36980  1.0000
  S   S181      1.0  0.60975  0.39991  0.40298  1.0000
  S   S182      1.0  0.63472  0.44178  0.35458  1.0000
  Fe  Fe92      1.0  0.62821  0.35603  0.35768  1.0000
  S   S183      1.0  0.60914  0.34576  0.39005  1.0000
  S   S184      1.0  0.63495  0.32943  0.33057  1.0000
  Fe  Fe93      1.0  0.58525  0.37538  0.38438  1.0000
  S   S185      1.0  0.54671  0.37536  0.39790  1.0000
  Fe  Fe94      1.0  0.63467  0.37087  0.40669  1.0000
  S   S186      1.0  0.64966  0.35831  0.44004  1.0000
  S   S187      1.0  0.60167  0.38386  0.35070  1.0000
  S   S188      1.0  0.65553  0.37933  0.37474  1.0000
  Fe  Fe95      1.0  0.90040  0.11189  0.41080  1.0000
  S   S189      1.0  0.91339  0.13542  0.38283  1.0000
  S   S190      1.0  0.91596  0.11246  0.44613  1.0000
  Fe  Fe96      1.0  0.87496  0.07918  0.37856  1.0000
  S   S191      1.0  0.88566  0.10009  0.34785  1.0000
  S   S192      1.0  0.85309  0.04567  0.37782  1.0000
  Fe  Fe97      1.0  0.92228  0.10388  0.36455  1.0000
  S   S193      1.0  0.95743  0.09472  0.34794  1.0000
  Fe  Fe98      1.0  0.87558  0.13039  0.36801  1.0000
  S   S194      1.0  0.85780  0.16274  0.35446  1.0000
  S   S195      1.0  0.91211  0.08077  0.39338  1.0000
  S   S196      1.0  0.86206  0.10904  0.39790  1.0000
  C   C658      1.0  0.97714  0.11634  0.42459  1.0000
  H   H789      1.0  0.83710  0.03002  0.42263  1.0000
  S   S197      1.0  0.78357  0.18706  0.27482  1.0000
  Fe  Fe99      1.0  0.73941  0.26119  0.25948  1.0000
  S   S198      1.0  0.72898  0.28605  0.28702  1.0000
  S   S199      1.0  0.77960  0.25527  0.26086  1.0000
  C   C659      1.0  0.98478  0.10893  0.35583  1.0000
  H   H790      1.0  0.50829  0.47120  0.35795  1.0000
  C   C660      1.0  0.98478  0.12968  0.36687  1.0000
  H   H791      1.0  0.73983  0.36143  0.26531  1.0000
  H   H792      1.0  0.96781  0.13768  0.37007  1.0000
  C   C661      1.0  0.83808  0.16896  0.33139  1.0000
  C   C662      1.0  0.82479  0.15203  0.31999  1.0000
  C   C663      1.0  0.80851  0.15794  0.30264  1.0000
  C   C664      1.0  0.80548  0.18079  0.29609  1.0000
  C   C665      1.0  0.81907  0.19772  0.30722  1.0000
  C   C666      1.0  0.83500  0.19183  0.32487  1.0000
  H   H793      1.0  0.82678  0.13439  0.32476  1.0000
  H   H794      1.0  0.79815  0.14465  0.29423  1.0000
  H   H795      1.0  0.81726  0.21535  0.30237  1.0000
  H   H796      1.0  0.84518  0.20511  0.33347  1.0000
  C   C667      1.0  0.85328  0.99898  0.37652  1.0000
  H   H797      1.0  0.60487  0.34123  0.46929  1.0000
  C   C668      1.0  0.86683  0.01908  0.38103  1.0000
  C   C669      1.0  0.89113  0.01762  0.38742  1.0000
  C   C670      1.0  0.57092  0.45007  0.33911  1.0000
  H   H798      1.0  0.51813  0.43302  0.36437  1.0000
  H   H799      1.0  0.90175  0.03280  0.39128  1.0000
  C   C671      1.0  0.53164  0.43564  0.35058  1.0000
  C   C672      1.0  0.87387  0.11843  0.47027  1.0000
  C   C673      1.0  0.89745  0.11049  0.47028  1.0000
  H   H800      1.0  0.90489  0.04464  0.35108  1.0000
  C   C674      1.0  0.75302  0.34762  0.26677  1.0000
  H   H801      1.0  0.86626  0.12534  0.45497  1.0000
  H   H802      1.0  0.82777  0.01978  0.44998  1.0000
  C   C675      1.0  0.51981  0.37753  0.38198  1.0000
  C   C676      1.0  0.51978  0.37682  0.35854  1.0000
  H   H803      1.0  0.65540  0.34414  0.48598  1.0000
  H   H804      1.0  0.53655  0.37436  0.34964  1.0000
  H   H805      1.0  0.57602  0.43266  0.33428  1.0000
  C   C677      1.0  0.64542  0.37280  0.46539  1.0000
  C   C678      1.0  0.64925  0.36138  0.48594  1.0000
  C   C679      1.0  0.86072  0.04306  0.47405  1.0000
  S   S200      1.0  0.72986  0.22384  0.25584  1.0000
  C   C680      1.0  0.63768  0.39513  0.46549  1.0000
  H   H806      1.0  0.95608  0.07387  0.42681  1.0000
  H   H807      1.0  0.52204  0.34211  0.48250  1.0000
  H   H808      1.0  0.63495  0.40417  0.44978  1.0000
  C   C681      1.0  0.66147  0.31797  0.31847  1.0000
  C   C682      1.0  0.65870  0.30207  0.30114  1.0000
  C   C683      1.0  0.67901  0.29229  0.29114  1.0000
  C   C684      1.0  0.70250  0.29821  0.29842  1.0000
  C   C685      1.0  0.70532  0.31409  0.31573  1.0000
  C   C686      1.0  0.68500  0.32393  0.32567  1.0000
  H   H809      1.0  0.64062  0.29729  0.29540  1.0000
  H   H810      1.0  0.67642  0.28010  0.27791  1.0000
  H   H811      1.0  0.72333  0.31874  0.32168  1.0000
  H   H812      1.0  0.68753  0.33603  0.33900  1.0000
  H   H813      1.0  0.84348  0.08240  0.45360  1.0000
  C   C687      1.0  0.63301  0.46699  0.37010  1.0000
  C   C688      1.0  0.63038  0.46650  0.39344  1.0000
  H   H814      1.0  0.90785  0.03777  0.28882  1.0000
  H   H815      1.0  0.63009  0.45041  0.40250  1.0000
  H   H816      1.0  0.88973  0.04154  0.43677  1.0000
  H   H817      1.0  0.58825  0.45916  0.34346  1.0000
  H   H818      1.0  0.83919  0.06921  0.48985  1.0000
  N   N46       1.0  0.91628  0.02614  0.32237  1.0000
  H   H819      1.0  0.95982  0.08539  0.45378  1.0000
  H   H820      1.0  0.74483  0.33486  0.27889  1.0000
  H   H821      1.0  0.89142  0.05357  0.32521  1.0000
  H   H822      1.0  0.88526  0.01592  0.46656  1.0000
  H   H823      1.0  0.58199  0.36931  0.43353  1.0000
  C   C689      1.0  0.97010  0.07838  0.43963  1.0000
  C   C690      1.0  0.89491  0.01000  0.32197  1.0000
  C   C691      1.0  0.54767  0.47297  0.36405  1.0000
  H   H824      1.0  0.83156  0.06864  0.42939  1.0000
  C   C692      1.0  0.87731  0.02590  0.47951  1.0000
  H   H825      1.0  0.52266  0.44339  0.33573  1.0000
  H   H826      1.0  0.79294  0.32454  0.25273  1.0000
  H   H827      1.0  0.81889  0.06123  0.45628  1.0000
  C   C693      1.0  0.84357  0.02673  0.44010  1.0000
  C   C694      1.0  0.56407  0.43744  0.37736  1.0000
  C   C695      1.0  0.85154  0.05554  0.49221  1.0000
  H   H828      1.0  0.58213  0.44494  0.38209  1.0000
  N   N47       1.0  0.85414  0.04767  0.45033  1.0000
  H   H829      1.0  0.68977  0.27311  0.37901  1.0000
  C   C696      1.0  0.77419  0.31827  0.24863  1.0000
  H   H830      1.0  0.88873  0.00531  0.33926  1.0000
  H   H831      1.0  0.56351  0.45878  0.32401  1.0000
  H   H832      1.0  0.93809  0.04485  0.29768  1.0000
  C   C697      1.0  0.97898  0.02291  0.34897  1.0000
  C   C698      1.0  0.92337  0.03142  0.29881  1.0000
  H   H833      1.0  0.92532  0.09532  0.49033  1.0000
  H   H834      1.0  0.77010  0.35435  0.27460  1.0000
  H   H835      1.0  0.59404  0.33054  0.44350  1.0000
  H   H836      1.0  0.63560  0.48856  0.34053  1.0000
  H   H837      1.0  0.87181  0.05972  0.41999  1.0000
  H   H838      1.0  0.56707  0.41926  0.37371  1.0000
  H   H839      1.0  0.92214  0.06155  0.33112  1.0000
  C   C699      1.0  0.97868  0.00069  0.35746  1.0000
  H   H840      1.0  0.62684  0.48641  0.42322  1.0000
  H   H841      1.0  0.96795  0.12359  0.43925  1.0000
  C   C700      1.0  0.94553  0.16221  0.48337  1.0000
  C   C701      1.0  0.83621  0.06575  0.44743  1.0000
  N   N48       1.0  0.74685  0.21987  0.33023  1.0000
  C   C702      1.0  0.76441  0.20656  0.34352  1.0000
  C   C703      1.0  0.73174  0.20346  0.31712  1.0000
  C   C704      1.0  0.76100  0.23483  0.31442  1.0000
  C   C705      1.0  0.73111  0.23394  0.34405  1.0000
  C   C706      1.0  0.71284  0.24698  0.33376  1.0000
  C   C707      1.0  0.73371  0.23569  0.36773  1.0000
  C   C708      1.0  0.69806  0.26077  0.34632  1.0000
  C   C709      1.0  0.71884  0.24960  0.38012  1.0000
  C   C710      1.0  0.70109  0.26213  0.36943  1.0000
  H   H842      1.0  0.75500  0.19482  0.35578  1.0000
  H   H843      1.0  0.77540  0.19572  0.33259  1.0000
  H   H844      1.0  0.77768  0.21781  0.35254  1.0000
  H   H845      1.0  0.72017  0.19236  0.32836  1.0000
  H   H846      1.0  0.74315  0.19227  0.30690  1.0000
  H   H847      1.0  0.71963  0.21200  0.30499  1.0000
  H   H848      1.0  0.77208  0.24794  0.32347  1.0000
  H   H849      1.0  0.77351  0.22500  0.30400  1.0000
  H   H850      1.0  0.74915  0.24401  0.30252  1.0000
  H   H851      1.0  0.71011  0.24704  0.31578  1.0000
  H   H852      1.0  0.74724  0.22667  0.37705  1.0000
  H   H853      1.0  0.68441  0.27078  0.33801  1.0000
  H   H854      1.0  0.72121  0.25087  0.39813  1.0000
  C   C711      1.0  0.87624  0.05504  0.43764  1.0000
  H   H855      1.0  0.85694  0.01316  0.43868  1.0000
  H   H856      1.0  0.88533  0.07019  0.44534  1.0000
  H   H857      1.0  0.59105  0.37995  0.46005  1.0000
  C   C712      1.0  0.93737  0.01717  0.33467  1.0000
  Fe  Fe100     1.0  0.77029  0.21844  0.25523  1.0000
  H   H858      1.0  0.92647  0.16137  0.47907  1.0000
  H   H859      1.0  0.98337  0.10850  0.47396  1.0000
  H   H860      1.0  0.55202  0.43769  0.39232  1.0000
  H   H861      1.0  0.58356  0.31749  0.46954  1.0000
  H   H862      1.0  0.96294  0.11391  0.41141  1.0000
  N   N49       1.0  0.56776  0.34958  0.46158  1.0000
  C   C713      1.0  0.54806  0.33957  0.44741  1.0000
  C   C714      1.0  0.57567  0.37159  0.45103  1.0000
  C   C715      1.0  0.58834  0.33401  0.46103  1.0000
  H   H863      1.0  0.93006  0.01607  0.29048  1.0000
  N   N50       1.0  0.55323  0.44945  0.35789  1.0000
  C   C716      1.0  0.53645  0.34852  0.49319  1.0000
  C   C717      1.0  0.90842  0.04733  0.33287  1.0000
  H   H864      1.0  0.53675  0.41840  0.34539  1.0000
  C   C718      1.0  0.62855  0.48693  0.40514  1.0000
  H   H865      1.0  0.53256  0.35110  0.44575  1.0000
  H   H866      1.0  0.55439  0.33689  0.42990  1.0000
  H   H867      1.0  0.54141  0.32272  0.45409  1.0000
  H   H868      1.0  0.56059  0.38365  0.45037  1.0000
  C   C719      1.0  0.95869  0.03106  0.33772  1.0000
  H   H869      1.0  0.95990  0.04838  0.33133  1.0000
  H   H870      1.0  0.87907  0.01744  0.31329  1.0000
  H   H871      1.0  0.99504  0.03389  0.35102  1.0000
  C   C720      1.0  0.63340  0.40580  0.48596  1.0000
  H   H872      1.0  0.83439  0.99990  0.37171  1.0000
  H   H873      1.0  0.76783  0.30684  0.26264  1.0000
  H   H874      1.0  0.95480  0.16513  0.44832  1.0000
  C   C721      1.0  0.90718  0.10174  0.49026  1.0000
  C   C722      1.0  0.56043  0.35324  0.48513  1.0000
  C   C723      1.0  0.52392  0.48161  0.36275  1.0000
  H   H875      1.0  0.62726  0.42304  0.48587  1.0000
  C   C724      1.0  0.96175  0.16424  0.46536  1.0000
  H   H876      1.0  0.92117  0.99564  0.39227  1.0000
  H   H877      1.0  0.58487  0.48277  0.37300  1.0000
  C   C725      1.0  0.98671  0.16505  0.46916  1.0000
  C   C726      1.0  0.56651  0.48824  0.37125  1.0000
  C   C727      1.0  0.63356  0.48805  0.35858  1.0000
  H   H878      1.0  0.99071  0.12933  0.41815  1.0000
  H   H879      1.0  0.98307  0.08140  0.39715  1.0000
  C   C728      1.0  0.86046  0.11835  0.49037  1.0000
  H   H880      1.0  0.84246  0.12512  0.49042  1.0000
  C   C729      1.0  0.90211  0.99647  0.38807  1.0000
  H   H881      1.0  0.72528  0.31593  0.24812  1.0000
  H   H882      1.0  0.97841  0.06242  0.44558  1.0000
  N   N51       1.0  0.98884  0.09477  0.43044  1.0000
  H   H883      1.0  0.59600  0.36628  0.49583  1.0000
  C   C730      1.0  0.49795  0.37937  0.34658  1.0000
  C   C731      1.0  0.99558  0.16364  0.49102  1.0000
  C   C732      1.0  0.49785  0.38025  0.39334  1.0000
  H   H884      1.0  0.49801  0.37895  0.32844  1.0000
  H   H885      1.0  0.76903  0.38438  0.24812  1.0000
  Fe  Fe101     1.0  0.62476  0.41205  0.61298  1.0000
  S   S201      1.0  0.61456  0.37848  0.63001  1.0000
  S   S202      1.0  0.63698  0.44453  0.63029  1.0000
  Fe  Fe102     1.0  0.62684  0.39169  0.56628  1.0000
  S   S203      1.0  0.61780  0.35632  0.57938  1.0000
  S   S204      1.0  0.63004  0.40817  0.53160  1.0000
  Fe  Fe103     1.0  0.58969  0.37311  0.60024  1.0000
  S   S205      1.0  0.55245  0.35529  0.60153  1.0000
  Fe  Fe104     1.0  0.64333  0.36393  0.60840  1.0000
  S   S206      1.0  0.67372  0.34080  0.62062  1.0000
  S   S207      1.0  0.59725  0.40794  0.58550  1.0000
  S   S208      1.0  0.65485  0.39792  0.59297  1.0000
  Fe  Fe105     1.0  0.86773  0.11910  0.62011  1.0000
  S   S209      1.0  0.85508  0.08902  0.59929  1.0000
  S   S210      1.0  0.84858  0.13160  0.65182  1.0000
  Fe  Fe106     1.0  0.91706  0.12245  0.59605  1.0000
  S   S211      1.0  0.90848  0.09320  0.57352  1.0000
  S   S212      1.0  0.95214  0.14342  0.59282  1.0000
  Fe  Fe107     1.0  0.87205  0.10845  0.56983  1.0000
  S   S213      1.0  0.85386  0.11205  0.53576  1.0000
  Fe  Fe108     1.0  0.89255  0.07574  0.60413  1.0000
  S   S214      1.0  0.90535  0.04049  0.61274  1.0000
  S   S215      1.0  0.88169  0.13946  0.59013  1.0000
  S   S216      1.0  0.90411  0.10402  0.62711  1.0000
  Fe  Fe109     1.0  0.73358  0.26712  0.72430  1.0000
  S   S217      1.0  0.77451  0.27077  0.72267  1.0000
  S   S218      1.0  0.70446  0.29222  0.71334  1.0000
  H   H886      1.0  0.94297  0.19395  0.53427  1.0000
  H   H887      1.0  0.63069  0.25588  0.71329  1.0000
  H   H888      1.0  0.91731  0.16658  0.62438  1.0000
  Fe  Fe110     1.0  0.77372  0.23317  0.71463  1.0000
  S   S219      1.0  0.79455  0.22033  0.68397  1.0000
  H   H889      1.0  0.90630  0.17372  0.69484  1.0000
  S   S220      1.0  0.73280  0.23051  0.71418  1.0000
  H   H890      1.0  0.75773  0.17645  0.67032  1.0000
  H   H891      1.0  0.94038  0.19655  0.64297  1.0000
  H   H892      1.0  0.90128  0.09455  0.52552  1.0000
  C   C733      1.0  0.89019  0.01519  0.60399  1.0000
  C   C734      1.0  0.86843  0.01548  0.59190  1.0000
  H   H893      1.0  0.64745  0.36293  0.52217  1.0000
  H   H894      1.0  0.65722  0.45374  0.52403  1.0000
  C   C735      1.0  0.95398  0.16116  0.50594  1.0000
  H   H895      1.0  0.86051  0.03154  0.58765  1.0000
  H   H896      1.0  0.62748  0.27538  0.73631  1.0000
  H   H897      1.0  0.92717  0.13323  0.55021  1.0000
  C   C736      1.0  0.97853  0.12967  0.60169  1.0000
  C   C737      1.0  0.97692  0.10917  0.61390  1.0000
  C   C738      1.0  0.78041  0.12685  0.65413  1.0000
  H   H898      1.0  0.95933  0.10127  0.61766  1.0000
  H   H899      1.0  0.75046  0.17956  0.73519  1.0000
  C   C739      1.0  0.83503  0.15714  0.66055  1.0000
  C   C740      1.0  0.82786  0.15893  0.68312  1.0000
  C   C741      1.0  0.81619  0.17833  0.69077  1.0000
  C   C742      1.0  0.81106  0.19615  0.67584  1.0000
  C   C743      1.0  0.81886  0.19463  0.65340  1.0000
  C   C744      1.0  0.83086  0.17536  0.64581  1.0000
  H   H900      1.0  0.83111  0.14506  0.69476  1.0000
  H   H901      1.0  0.81108  0.17944  0.70818  1.0000
  H   H902      1.0  0.81517  0.20832  0.64167  1.0000
  H   H903      1.0  0.83621  0.17435  0.62841  1.0000
  C   C745      1.0  0.52556  0.37033  0.59750  1.0000
  C   C746      1.0  0.75445  0.14501  0.69041  1.0000
  C   C747      1.0  0.52556  0.39400  0.59888  1.0000
  H   H904      1.0  0.62567  0.44975  0.56354  1.0000
  H   H905      1.0  0.54239  0.40353  0.60169  1.0000
  C   C748      1.0  0.68086  0.32626  0.64633  1.0000
  C   C749      1.0  0.70118  0.31239  0.64701  1.0000
  C   C750      1.0  0.70835  0.30139  0.66712  1.0000
  C   C751      1.0  0.69544  0.30432  0.68700  1.0000
  C   C752      1.0  0.67491  0.31790  0.68627  1.0000
  C   C753      1.0  0.66753  0.32862  0.66609  1.0000
  H   H906      1.0  0.71161  0.31030  0.63187  1.0000
  H   H907      1.0  0.72417  0.29104  0.66729  1.0000
  H   H908      1.0  0.66473  0.32035  0.70147  1.0000
  H   H909      1.0  0.65161  0.33878  0.66591  1.0000
  C   C754      1.0  0.91136  0.16079  0.51946  1.0000
  H   H910      1.0  0.96604  0.16990  0.64976  1.0000
  C   C755      1.0  0.63668  0.39421  0.50649  1.0000
  C   C756      1.0  0.62277  0.47003  0.62283  1.0000
  C   C757      1.0  0.60084  0.46966  0.61104  1.0000
  H   H911      1.0  0.70804  0.15605  0.69156  1.0000
  H   H912      1.0  0.59192  0.45361  0.60698  1.0000
  N   N52       1.0  0.69137  0.40026  0.66167  1.0000
  C   C758      1.0  0.69763  0.40426  0.63765  1.0000
  C   C759      1.0  0.66545  0.39278  0.66275  1.0000
  C   C760      1.0  0.69445  0.42239  0.67309  1.0000
  C   C761      1.0  0.70622  0.38291  0.67290  1.0000
  C   C762      1.0  0.72302  0.36973  0.66115  1.0000
  C   C763      1.0  0.70344  0.37818  0.69623  1.0000
  C   C764      1.0  0.73638  0.35320  0.67226  1.0000
  C   C765      1.0  0.71676  0.36147  0.70711  1.0000
  C   C766      1.0  0.73323  0.34904  0.69515  1.0000
  H   H913      1.0  0.69399  0.38869  0.62761  1.0000
  H   H914      1.0  0.68647  0.41774  0.62988  1.0000
  H   H915      1.0  0.71700  0.40981  0.63554  1.0000
  H   H916      1.0  0.66237  0.37650  0.65381  1.0000
  H   H917      1.0  0.65358  0.40552  0.65476  1.0000
  H   H918      1.0  0.65888  0.39008  0.68022  1.0000
  H   H919      1.0  0.68737  0.42172  0.69053  1.0000
  H   H920      1.0  0.71393  0.42803  0.67373  1.0000
  H   H921      1.0  0.68429  0.43598  0.66427  1.0000
  H   H922      1.0  0.72566  0.37129  0.64324  1.0000
  H   H923      1.0  0.69051  0.38699  0.70615  1.0000
  C   C767      1.0  0.64037  0.26475  0.72720  1.0000
  C   C768      1.0  0.92477  0.13187  0.67344  1.0000
  H   H924      1.0  0.90786  0.17754  0.51138  1.0000
  H   H925      1.0  0.99493  0.01880  0.60714  1.0000
  H   H926      1.0  0.74857  0.34289  0.66287  1.0000
  H   H927      1.0  0.65632  0.48447  0.58850  1.0000
  H   H928      1.0  0.54314  0.36312  0.54808  1.0000
  H   H929      1.0  0.57132  0.48383  0.52251  1.0000
  H   H930      1.0  0.93331  0.09765  0.68329  1.0000
  H   H931      1.0  0.52018  0.32306  0.65858  1.0000
  H   H932      1.0  0.93768  0.12237  0.52412  1.0000
  C   C769      1.0  0.87049  0.11029  0.51055  1.0000
  N   N53       1.0  0.74191  0.15527  0.70950  1.0000
  C   C770      1.0  0.76148  0.12198  0.69065  1.0000
  H   H933      1.0  0.89742  0.00877  0.50544  1.0000
  C   C771      1.0  0.54784  0.36048  0.53064  1.0000
  H   H934      1.0  0.50343  0.33988  0.59259  1.0000
  H   H935      1.0  0.65390  0.27677  0.71901  1.0000
  C   C772      1.0  0.59008  0.49014  0.60492  1.0000
  H   H936      1.0  0.88056  0.03098  0.53635  1.0000
  H   H937      1.0  0.65996  0.22439  0.71703  1.0000
  C   C773      1.0  0.95821  0.15500  0.65812  1.0000
  C   C774      1.0  0.64475  0.37198  0.50645  1.0000
  C   C775      1.0  0.73338  0.13843  0.72692  1.0000
  H   H938      1.0  0.65079  0.49152  0.63760  1.0000
  H   H939      1.0  0.76479  0.18586  0.70880  1.0000
  H   H940      1.0  0.71391  0.35767  0.72480  1.0000
  C   C776      1.0  0.94038  0.11392  0.67682  1.0000
  H   H941      1.0  0.94093  0.19757  0.67333  1.0000
  C   C777      1.0  0.92914  0.19454  0.65842  1.0000
  C   C778      1.0  0.89367  0.10143  0.51027  1.0000
  N   N54       1.0  0.65435  0.47386  0.55391  1.0000
  H   H942      1.0  0.95871  0.13457  0.54388  1.0000
  C   C779      1.0  0.50773  0.33678  0.65666  1.0000
  H   H943      1.0  0.74294  0.33559  0.70349  1.0000
  C   C780      1.0  0.96480  0.11651  0.67108  1.0000
  H   H944      1.0  0.90578  0.12838  0.67708  1.0000
  H   H945      1.0  0.91611  0.20855  0.65736  1.0000
  C   C781      1.0  0.66548  0.47337  0.57660  1.0000
  C   C782      1.0  0.53040  0.35208  0.51567  1.0000
  H   H946      1.0  0.88629  0.18807  0.67575  1.0000
  C   C783      1.0  0.85858  0.05099  0.51436  1.0000
  H   H947      1.0  0.89366  0.15100  0.63899  1.0000
  C   C784      1.0  0.51698  0.35894  0.65362  1.0000
  N   N55       1.0  0.91646  0.17183  0.66000  1.0000
  C   C785      1.0  0.72034  0.16746  0.70145  1.0000
  H   H948      1.0  0.78004  0.09575  0.67338  1.0000
  H   H949      1.0  0.77550  0.16333  0.72640  1.0000
  H   H950      1.0  0.89088  0.18081  0.63418  1.0000
  H   H951      1.0  0.96144  0.17467  0.54999  1.0000
  H   H952      1.0  0.99250  0.13854  0.65636  1.0000
  H   H953      1.0  0.50853  0.39374  0.64715  1.0000
  N   N56       1.0  0.93741  0.15883  0.52545  1.0000
  C   C786      1.0  0.77433  0.11318  0.67273  1.0000
  H   H954      1.0  0.66419  0.45603  0.58445  1.0000
  H   H955      1.0  0.93029  0.17592  0.55641  1.0000
  C   C787      1.0  0.87497  0.03412  0.51912  1.0000
  C   C788      1.0  0.76120  0.15849  0.67127  1.0000
  C   C789      1.0  0.57137  0.36555  0.52318  1.0000
  H   H956      1.0  0.61832  0.47887  0.56663  1.0000
  C   C790      1.0  0.66629  0.45636  0.54055  1.0000
  H   H957      1.0  0.68587  0.46075  0.53780  1.0000
  C   C791      1.0  0.97953  0.16154  0.50916  1.0000
  H   H958      1.0  0.57284  0.48965  0.59621  1.0000
  H   H959      1.0  0.66533  0.43939  0.54918  1.0000
  H   H960      1.0  0.79099  0.12015  0.64058  1.0000
  H   H961      1.0  0.60123  0.24339  0.73856  1.0000
  H   H962      1.0  0.68496  0.47901  0.57595  1.0000
  H   H963      1.0  0.61930  0.46681  0.53918  1.0000
  C   C792      1.0  0.93332  0.15321  0.66446  1.0000
  H   H964      1.0  0.98728  0.16010  0.52578  1.0000
  H   H965      1.0  0.85162  0.06101  0.52791  1.0000
  C   C793      1.0  0.90406  0.16749  0.63841  1.0000
  C   C794      1.0  0.94039  0.13628  0.53631  1.0000
  C   C795      1.0  0.89778  0.17300  0.67792  1.0000
  H   H966      1.0  0.88453  0.15832  0.67778  1.0000
  C   C796      1.0  0.77367  0.14940  0.65332  1.0000
  H   H967      1.0  0.75765  0.11050  0.70461  1.0000
  C   C797      1.0  0.94333  0.17667  0.54211  1.0000
  H   H968      1.0  0.58492  0.37230  0.53477  1.0000
  H   H969      1.0  0.68213  0.24738  0.71932  1.0000
  C   C798      1.0  0.88436  0.02162  0.50172  1.0000
  H   H970      1.0  0.89931  0.15893  0.53446  1.0000
  C   C799      1.0  0.62828  0.46710  0.55592  1.0000
  H   H971      1.0  0.77904  0.16017  0.63910  1.0000
  C   C800      1.0  0.75888  0.17172  0.72041  1.0000
  N   N57       1.0  0.65227  0.24843  0.74261  1.0000
  C   C801      1.0  0.50355  0.40531  0.59749  1.0000
  H   H972      1.0  0.68133  0.22490  0.73974  1.0000
  C   C802      1.0  0.57758  0.36201  0.50081  1.0000
  C   C803      1.0  0.97367  0.13697  0.66169  1.0000
  H   H973      1.0  0.50364  0.42358  0.59916  1.0000
  H   H974      1.0  0.51206  0.34834  0.52158  1.0000
  C   C804      1.0  0.50351  0.35818  0.59385  1.0000
  H   H975      1.0  0.53645  0.36233  0.65295  1.0000
  C   C805      1.0  0.63388  0.49108  0.62837  1.0000
  H   H976      1.0  0.67258  0.48820  0.51153  1.0000
  H   H977      1.0  0.90507  0.14718  0.50795  1.0000
  H   H978      1.0  0.72530  0.18259  0.69080  1.0000
  C   C806      1.0  0.66963  0.23570  0.72913  1.0000
  H   H979      1.0  0.70969  0.17407  0.71564  1.0000
  H   H980      1.0  0.99660  0.08382  0.63217  1.0000
  C   C807      1.0  0.50123  0.37663  0.65033  1.0000
  H   H981      1.0  0.72095  0.12517  0.71966  1.0000
  H   H982      1.0  0.74881  0.13013  0.73540  1.0000
  H   H983      1.0  0.97675  0.10240  0.67321  1.0000
  H   H984      1.0  0.72321  0.14666  0.74058  1.0000
  Fe  Fe111     1.0  0.57937  0.09927  0.85642  1.0000
  S   S221      1.0  0.59034  0.13166  0.87353  1.0000
  S   S222      1.0  0.54340  0.09284  0.83862  1.0000
  Fe  Fe112     1.0  0.62410  0.07505  0.87268  1.0000
  S   S223      1.0  0.63846  0.10582  0.89115  1.0000
  S   S224      1.0  0.64474  0.04290  0.87899  1.0000
  Fe  Fe113     1.0  0.60020  0.10912  0.90278  1.0000
  S   S225      1.0  0.58542  0.11433  0.93779  1.0000
  Fe  Fe114     1.0  0.62807  0.12607  0.86017  1.0000
  S   S226      1.0  0.65189  0.15785  0.85048  1.0000
  S   S227      1.0  0.58656  0.07715  0.88647  1.0000
  S   S228      1.0  0.61635  0.09485  0.84083  1.0000
  Fe  Fe115     1.0  0.86321  0.37534  0.85997  1.0000
  S   S229      1.0  0.89941  0.39291  0.85198  1.0000
  S   S230      1.0  0.83598  0.36544  0.83215  1.0000
  Fe  Fe116     1.0  0.87176  0.37864  0.91086  1.0000
  S   S231      1.0  0.90859  0.39555  0.90682  1.0000
  S   S232      1.0  0.85394  0.36729  0.94371  1.0000
  Fe  Fe117     1.0  0.89113  0.41677  0.87993  1.0000
  S   S233      1.0  0.90457  0.45371  0.87963  1.0000
  Fe  Fe118     1.0  0.91423  0.37080  0.87938  1.0000
  S   S234      1.0  0.94865  0.35127  0.87642  1.0000
  S   S235      1.0  0.85369  0.40141  0.88567  1.0000
  S   S236      1.0  0.87873  0.35162  0.88568  1.0000
  S   S237      1.0  0.71003  0.19074  0.76151  1.0000
  H   H985      1.0  0.84628  0.33213  0.76701  1.0000
  S   S238      1.0  0.73315  0.25804  0.76145  1.0000
  C   C808      1.0  0.88544  0.47715  0.87835  1.0000
  H   H986      1.0  0.62056  0.05538  0.91855  1.0000
  H   H987      1.0  0.50595  0.05264  0.85379  1.0000
  H   H988      1.0  0.85227  0.45776  0.87238  1.0000
  C   C809      1.0  0.97577  0.36611  0.86851  1.0000
  C   C810      1.0  0.79777  0.42529  0.90204  1.0000
  N   N58       1.0  0.79049  0.35300  0.89086  1.0000
  H   H989      1.0  0.68699  0.19090  0.98840  1.0000
  H   H990      1.0  0.64662  0.04729  0.93407  1.0000
  H   H991      1.0  0.84643  0.35320  0.98979  1.0000
  H   H992      1.0  0.66293  0.21501  0.77331  1.0000
  H   H993      1.0  0.84903  0.29203  0.75622  1.0000
  C   C811      1.0  0.86360  0.37968  0.96927  1.0000
  C   C812      1.0  0.62805  0.20038  0.78087  1.0000
  N   N59       1.0  0.61276  0.04133  0.95164  1.0000
  C   C813      1.0  0.87709  0.40027  0.96949  1.0000
  H   H994      1.0  0.59110  0.18830  0.78542  1.0000
  H   H995      1.0  0.88228  0.40862  0.95382  1.0000
  C   C814      1.0  0.80873  0.29790  0.80011  1.0000
  C   C815      1.0  0.82472  0.29765  0.81861  1.0000
  C   C816      1.0  0.83289  0.31800  0.82889  1.0000
  C   C817      1.0  0.82546  0.33902  0.82060  1.0000
  C   C818      1.0  0.80914  0.33928  0.80238  1.0000
  C   C819      1.0  0.80079  0.31891  0.79222  1.0000
  H   H996      1.0  0.83094  0.28154  0.82494  1.0000
  H   H997      1.0  0.84502  0.31736  0.84311  1.0000
  H   H998      1.0  0.80312  0.35539  0.79586  1.0000
  H   H999      1.0  0.78851  0.31947  0.77807  1.0000
  C   C820      1.0  0.63413  0.01566  0.87039  1.0000
  C   C821      1.0  0.61556  0.01291  0.85454  1.0000
  S   S239      1.0  0.79994  0.27157  0.78736  1.0000
  H   H1000     1.0  0.60715  0.02770  0.84739  1.0000
  C   C822      1.0  0.79091  0.41749  0.88095  1.0000
  C   C823      1.0  0.66859  0.16617  0.82575  1.0000
  C   C824      1.0  0.68206  0.18700  0.82546  1.0000
  C   C825      1.0  0.69520  0.19462  0.80621  1.0000
  C   C826      1.0  0.69495  0.18153  0.78683  1.0000
  C   C827      1.0  0.68145  0.16072  0.78710  1.0000
  C   C828      1.0  0.66845  0.15303  0.80640  1.0000
  H   H1001     1.0  0.68236  0.19737  0.84027  1.0000
  H   H1002     1.0  0.70541  0.21066  0.80637  1.0000
  H   H1003     1.0  0.68094  0.15044  0.77224  1.0000
  H   H1004     1.0  0.65819  0.13701  0.80625  1.0000
  H   H1005     1.0  0.52656  0.02108  0.85635  1.0000
  H   H1006     1.0  0.78381  0.38935  0.86013  1.0000
  C   C829      1.0  0.60184  0.11663  0.96320  1.0000
  C   C830      1.0  0.62718  0.11864  0.96370  1.0000
  Fe  Fe119     1.0  0.77410  0.25947  0.75912  1.0000
  H   H1007     1.0  0.63736  0.11781  0.94830  1.0000
  C   C831      1.0  0.51864  0.12185  0.86571  1.0000
  C   C832      1.0  0.51715  0.10540  0.84907  1.0000
  H   H1008     1.0  0.63102  0.07277  0.94079  1.0000
  H   H1009     1.0  0.53614  0.12728  0.87227  1.0000
  H   H1010     1.0  0.89364  0.42636  0.99001  1.0000
  S   S240      1.0  0.77582  0.22202  0.75088  1.0000
  H   H1011     1.0  0.57542  0.04034  0.96216  1.0000
  H   H1012     1.0  0.97683  0.42540  0.88207  1.0000
  C   C833      1.0  0.86107  0.32221  0.77337  1.0000
  C   C834      1.0  0.97536  0.38540  0.85451  1.0000
  H   H1013     1.0  0.58828  0.06849  0.95721  1.0000
  C   C835      1.0  0.67030  0.18656  0.97956  1.0000
  H   H1014     1.0  0.65356  0.27079  0.77080  1.0000
  C   C836      1.0  0.88349  0.41030  0.99003  1.0000
  H   H1015     1.0  0.62382  0.06315  0.97895  1.0000
  Fe  Fe120     1.0  0.73482  0.22158  0.75115  1.0000
  H   H1016     1.0  0.56924  0.11579  0.98316  1.0000
  C   C837      1.0  0.62842  0.05475  0.93567  1.0000
  C   C838      1.0  0.80215  0.40977  0.91936  1.0000
  H   H1017     1.0  0.95821  0.39172  0.84879  1.0000
  C   C839      1.0  0.86262  0.29962  0.76725  1.0000
  C   C840      1.0  0.64886  0.18304  0.99166  1.0000
  N   N60       1.0  0.99247  0.45965  0.87985  1.0000
  C   C841      1.0  0.79230  0.37785  0.89449  1.0000
  C   C842      1.0  0.51495  0.00595  0.85531  1.0000
  H   H1018     1.0  0.76100  0.35380  0.86706  1.0000
  C   C843      1.0  0.66603  0.26188  0.75955  1.0000
  H   H1019     1.0  0.67843  0.27500  0.75153  1.0000
  H   H1020     1.0  0.65879  0.12569  0.98430  1.0000
  H   H1021     1.0  0.78822  0.42962  0.86734  1.0000
  C   C844      1.0  0.79956  0.38643  0.91568  1.0000
  H   H1022     1.0  0.80034  0.44337  0.90479  1.0000
  H   H1023     1.0  0.86354  0.49432  0.95709  1.0000
  C   C845      1.0  0.86047  0.47457  0.87444  1.0000
  H   H1024     1.0  0.59693  0.02413  0.91135  1.0000
  C   C846      1.0  0.60320  0.20047  0.77675  1.0000
  C   C847      1.0  0.64378  0.21591  0.76970  1.0000
  C   C848      1.0  0.99727  0.39624  0.84747  1.0000
  N   N61       1.0  0.64982  0.17371  0.91993  1.0000
  C   C849      1.0  0.65709  0.19526  0.90810  1.0000
  C   C850      1.0  0.66788  0.15642  0.91485  1.0000
  C   C851      1.0  0.62619  0.16566  0.91041  1.0000
  C   C852      1.0  0.64896  0.17740  0.94444  1.0000
  C   C853      1.0  0.67039  0.18395  0.95628  1.0000
  C   C854      1.0  0.62726  0.17445  0.95726  1.0000
  C   C855      1.0  0.63928  0.12292  0.98414  1.0000
  C   C856      1.0  0.58812  0.05066  0.95125  1.0000
  H   H1025     1.0  0.75767  0.34945  0.91029  1.0000
  H   H1026     1.0  0.67555  0.20157  0.91298  1.0000
  H   H1027     1.0  0.65743  0.19307  0.88952  1.0000
  H   H1028     1.0  0.64420  0.20883  0.91177  1.0000
  H   H1029     1.0  0.68675  0.16216  0.91895  1.0000
  H   H1030     1.0  0.66800  0.15229  0.89666  1.0000
  H   H1031     1.0  0.66388  0.14031  0.92438  1.0000
  H   H1032     1.0  0.61185  0.17823  0.91265  1.0000
  H   H1033     1.0  0.62748  0.16296  0.89204  1.0000
  H   H1034     1.0  0.61990  0.14913  0.91815  1.0000
  H   H1035     1.0  0.68750  0.18673  0.94767  1.0000
  H   H1036     1.0  0.61008  0.16912  0.94997  1.0000
  C   C857      1.0  0.81517  0.34391  0.89156  1.0000
  C   C858      1.0  0.85691  0.36910  0.98979  1.0000
  H   H1037     1.0  0.99687  0.41088  0.83627  1.0000
  N   N62       1.0  0.91283  0.32886  0.81535  1.0000
  C   C859      1.0  0.89837  0.33142  0.83596  1.0000
  C   C860      1.0  0.93378  0.31467  0.82118  1.0000
  C   C861      1.0  0.92286  0.35161  0.80813  1.0000
  C   C862      1.0  0.89674  0.31897  0.79786  1.0000
  C   C863      1.0  0.87763  0.33173  0.78863  1.0000
  C   C864      1.0  0.89803  0.29602  0.79100  1.0000
  C   C865      1.0  0.61128  0.01719  0.94490  1.0000
  C   C866      1.0  0.88111  0.28659  0.77595  1.0000
  C   C867      1.0  0.61840  0.99899  0.95924  1.0000
  H   H1038     1.0  0.89017  0.31481  0.84184  1.0000
  H   H1039     1.0  0.90977  0.33824  0.84982  1.0000
  H   H1040     1.0  0.88332  0.34326  0.83334  1.0000
  H   H1041     1.0  0.92784  0.29821  0.82927  1.0000
  H   H1042     1.0  0.94604  0.32314  0.83370  1.0000
  H   H1043     1.0  0.94495  0.31139  0.80613  1.0000
  H   H1044     1.0  0.90869  0.36449  0.80657  1.0000
  H   H1045     1.0  0.93613  0.35868  0.82059  1.0000
  H   H1046     1.0  0.93231  0.35074  0.79170  1.0000
  H   H1047     1.0  0.87457  0.34888  0.79389  1.0000
  H   H1048     1.0  0.91155  0.28483  0.79742  1.0000
  H   H1049     1.0  0.80422  0.37518  0.92943  1.0000
  H   H1050     1.0  0.88191  0.26888  0.77140  1.0000
  H   H1051     1.0  0.95587  0.44708  0.88696  1.0000
  H   H1052     1.0  0.80836  0.41576  0.93557  1.0000
  H   H1053     1.0  0.82693  0.49186  0.86941  1.0000
  H   H1054     1.0  0.58026  0.05115  0.93407  1.0000
  H   H1055     1.0  0.78462  0.34218  0.92548  1.0000
  H   H1056     1.0  0.79085  0.35300  0.85459  1.0000
  C   C868      1.0  0.63507  0.23218  0.75409  1.0000
  H   H1057     1.0  0.81493  0.32526  0.88877  1.0000
  C   C869      1.0  0.77560  0.34151  0.90879  1.0000
  H   H1058     1.0  0.57461  0.21603  0.75824  1.0000
  C   C870      1.0  0.58885  0.11743  0.98340  1.0000
  C   C871      1.0  0.62737  0.17729  0.98051  1.0000
  H   H1059     1.0  0.77753  0.32805  0.86696  1.0000
  H   H1060     1.0  0.82679  0.35217  0.87832  1.0000
  C   C872      1.0  0.62293  0.04480  0.97449  1.0000
  C   C873      1.0  0.97195  0.44289  0.87673  1.0000
  H   H1061     1.0  0.77231  0.32310  0.90548  1.0000
  H   H1062     1.0  0.61149  0.03596  0.98758  1.0000
  H   H1063     1.0  0.82437  0.34701  0.90793  1.0000
  H   H1064     1.0  0.96631  0.44186  0.85883  1.0000
  H   H1065     1.0  0.63521  0.18815  0.79277  1.0000
  C   C874      1.0  0.77938  0.34681  0.86896  1.0000
  C   C875      1.0  0.78831  0.39415  0.87707  1.0000
  C   C876      1.0  0.60225  0.01126  0.92337  1.0000
  H   H1066     1.0  0.67776  0.25119  0.77025  1.0000
  H   H1067     1.0  0.50621  0.12426  0.95260  1.0000
  H   H1068     1.0  0.94882  0.47679  0.86247  1.0000
  H   H1069     1.0  0.65935  0.99828  0.89171  1.0000
  H   H1070     1.0  0.61088  0.17397  0.99013  1.0000
  C   C877      1.0  0.84618  0.49389  0.87271  1.0000
  H   H1071     1.0  0.64179  0.03876  0.97577  1.0000
  H   H1072     1.0  0.62555  0.00170  0.97588  1.0000
  H   H1073     1.0  0.50223  0.04255  0.88248  1.0000
  C   C878      1.0  0.59398  0.21612  0.76144  1.0000
  H   H1074     1.0  0.98404  0.46557  0.91438  1.0000
  C   C879      1.0  0.96362  0.48913  0.86455  1.0000
  C   C880      1.0  0.64502  0.99630  0.87939  1.0000
  H   H1075     1.0  0.49883  0.14467  0.88614  1.0000
  C   C881      1.0  0.60958  0.23181  0.75021  1.0000
  C   C882      1.0  0.98678  0.48316  0.87287  1.0000
  Fe  Fe121     1.0  0.58078  0.87683  0.10015  1.0000
  S   S241      1.0  0.59605  0.88475  0.13413  1.0000
  S   S242      1.0  0.54248  0.87093  0.08733  1.0000
  Fe  Fe122     1.0  0.63061  0.87840  0.07801  1.0000
  S   S243      1.0  0.65027  0.88718  0.11030  1.0000
  S   S244      1.0  0.64891  0.86787  0.04581  1.0000
  Fe  Fe123     1.0  0.62571  0.86037  0.12676  1.0000
  S   S245      1.0  0.63518  0.83150  0.15158  1.0000
  Fe  Fe124     1.0  0.61954  0.91094  0.11546  1.0000
  S   S246      1.0  0.62187  0.94559  0.13168  1.0000
  S   S247      1.0  0.60798  0.85030  0.09417  1.0000
  S   S248      1.0  0.60231  0.90450  0.08190  1.0000
  Fe  Fe125     1.0  0.86246  0.62749  0.11649  1.0000
  S   S249      1.0  0.89994  0.63637  0.10299  1.0000
  S   S250      1.0  0.83867  0.65741  0.12543  1.0000
  Fe  Fe126     1.0  0.86851  0.57665  0.10752  1.0000
  S   S251      1.0  0.90625  0.58184  0.09400  1.0000
  S   S252      1.0  0.84840  0.54255  0.10529  1.0000
  Fe  Fe127     1.0  0.91180  0.60586  0.12251  1.0000
  S   S253      1.0  0.94565  0.60617  0.14418  1.0000
  Fe  Fe128     1.0  0.89144  0.61173  0.07536  1.0000
  S   S254      1.0  0.90508  0.61930  0.03999  1.0000
  S   S255      1.0  0.87485  0.59825  0.13795  1.0000
  S   S256      1.0  0.85314  0.60522  0.08696  1.0000
  Fe  Fe129     1.0  0.73673  0.76022  0.22272  1.0000
  S   S257      1.0  0.77666  0.75647  0.23096  1.0000
  S   S258      1.0  0.72946  0.78896  0.19707  1.0000
  Fe  Fe130     1.0  0.76857  0.71856  0.22980  1.0000
  S   S259      1.0  0.79182  0.68915  0.21804  1.0000
  S   S260      1.0  0.72957  0.72240  0.21937  1.0000
  C   C883      1.0  0.88788  0.61499  0.01532  1.0000
  H   H1076     1.0  0.87846  0.51714  0.06931  1.0000
  H   H1077     1.0  0.89001  0.57567  0.19721  1.0000
  H   H1078     1.0  0.54404  0.96520  0.14468  1.0000
  H   H1079     1.0  0.85409  0.60668  0.03206  1.0000
  H   H1080     1.0  0.87661  0.55469  0.05198  1.0000
  C   C884      1.0  0.97371  0.61502  0.13181  1.0000
  C   C885      1.0  0.89790  0.54655  0.02318  1.0000
  H   H1081     1.0  0.95803  0.63558  0.10574  1.0000
  H   H1082     1.0  0.92998  0.65475  0.20890  1.0000
  C   C886      1.0  0.82552  0.66572  0.15135  1.0000
  C   C887      1.0  0.81378  0.68655  0.15220  1.0000
  C   C888      1.0  0.80323  0.69398  0.17229  1.0000
  C   C889      1.0  0.80427  0.68064  0.19191  1.0000
  C   C890      1.0  0.81586  0.65973  0.19102  1.0000
  C   C891      1.0  0.82641  0.65228  0.17094  1.0000
  H   H1083     1.0  0.81287  0.69712  0.13721  1.0000
  H   H1084     1.0  0.79441  0.71009  0.17261  1.0000
  H   H1085     1.0  0.81650  0.64911  0.20598  1.0000
  H   H1086     1.0  0.83504  0.63609  0.17061  1.0000
  C   C892      1.0  0.86198  0.51741  0.11473  1.0000
  H   H1087     1.0  0.89214  0.53421  0.13135  1.0000
  H   H1088     1.0  0.87868  0.64985  0.15541  1.0000
  C   C893      1.0  0.66168  0.82071  0.16477  1.0000
  C   C894      1.0  0.68508  0.82988  0.16060  1.0000
  C   C895      1.0  0.70546  0.82004  0.17080  1.0000
  C   C896      1.0  0.70283  0.80106  0.18547  1.0000
  C   C897      1.0  0.67942  0.79224  0.19007  1.0000
  C   C898      1.0  0.65905  0.80195  0.17970  1.0000
  H   H1089     1.0  0.68755  0.84449  0.14951  1.0000
  H   H1090     1.0  0.72344  0.82710  0.16714  1.0000
  H   H1091     1.0  0.67698  0.77774  0.20135  1.0000
  H   H1092     1.0  0.64109  0.79474  0.18320  1.0000
  H   H1093     1.0  0.87869  0.66650  0.02322  1.0000
  C   C899      1.0  0.63905  0.87828  0.01933  1.0000
  H   H1094     1.0  0.89295  0.67897  0.20957  1.0000
  H   H1095     1.0  0.61878  0.90556  0.03252  1.0000
  C   C900      1.0  0.55539  0.96864  0.12947  1.0000
  C   C901      1.0  0.62385  0.97133  0.11600  1.0000
  H   H1096     1.0  0.55620  0.98728  0.12617  1.0000
  C   C902      1.0  0.62878  0.97168  0.09301  1.0000
  H   H1097     1.0  0.86233  0.65213  0.21625  1.0000
  H   H1098     1.0  0.63113  0.95590  0.08437  1.0000
  H   H1099     1.0  0.65776  0.85312  0.00080  1.0000
  C   C903      1.0  0.99723  0.63812  0.10482  1.0000
  C   C904      1.0  0.85770  0.61665  0.22142  1.0000
  C   C905      1.0  0.51590  0.87725  0.10198  1.0000
  C   C906      1.0  0.51589  0.88069  0.12515  1.0000
  H   H1100     1.0  0.61718  0.99179  0.14483  1.0000
  C   C907      1.0  0.91048  0.52972  0.01247  1.0000
  C   C908      1.0  0.73317  0.62625  0.22856  1.0000
  H   H1101     1.0  0.53252  0.87920  0.13463  1.0000
  C   C909      1.0  0.88862  0.63399  0.19612  1.0000
  H   H1102     1.0  0.75948  0.65110  0.21359  1.0000
  N   N63       1.0  0.83782  0.66793  0.05185  1.0000
  H   H1103     1.0  0.83986  0.70435  0.05377  1.0000
  C   C910      1.0  0.82819  0.68960  0.05965  1.0000
  C   C911      1.0  0.82141  0.64890  0.05982  1.0000
  H   H1104     1.0  0.86987  0.64885  0.05786  1.0000
  H   H1105     1.0  0.55257  0.95360  0.07469  1.0000
  H   H1106     1.0  0.65979  0.87022  0.23313  1.0000
  H   H1107     1.0  0.67918  0.98351  0.16187  1.0000
  H   H1108     1.0  0.89731  0.56355  0.01591  1.0000
  H   H1109     1.0  0.75884  0.58650  0.18274  1.0000
  H   H1110     1.0  0.76049  0.82785  0.23376  1.0000
  H   H1111     1.0  0.99493  0.59637  0.15576  1.0000
  H   H1112     1.0  0.68380  0.84653  0.20833  1.0000
  C   C912      1.0  0.71120  0.83999  0.23324  1.0000
  H   H1113     1.0  0.80949  0.69229  0.05341  1.0000
  C   C913      1.0  0.88428  0.59253  0.20137  1.0000
  H   H1114     1.0  0.53606  0.88495  0.04116  1.0000
  C   C914      1.0  0.88763  0.51997  0.05341  1.0000
  H   H1115     1.0  0.80218  0.65123  0.05507  1.0000
  C   C915      1.0  0.75171  0.63401  0.21338  1.0000
  H   H1116     1.0  0.70962  0.59660  0.23665  1.0000
  H   H1117     1.0  0.91058  0.60879  0.17997  1.0000
  H   H1118     1.0  0.82155  0.64708  0.07849  1.0000
  C   C916      1.0  0.53798  0.88198  0.02336  1.0000
  C   C917      1.0  0.62456  0.89723  0.01754  1.0000
  H   H1119     1.0  0.90774  0.63728  0.15358  1.0000
  C   C918      1.0  0.83904  0.66819  0.02701  1.0000
  H   H1120     1.0  0.82692  0.63249  0.05276  1.0000
  C   C919      1.0  0.68299  0.97739  0.12674  1.0000
  H   H1121     1.0  0.74435  0.78891  0.12681  1.0000
  H   H1122     1.0  0.90036  0.69060  0.18244  1.0000
  H   H1123     1.0  0.93646  0.63955  0.18386  1.0000
  C   C920      1.0  0.63149  0.99256  0.08130  1.0000
  C   C921      1.0  0.86302  0.60943  0.01606  1.0000
  C   C922      1.0  0.68992  0.84961  0.22537  1.0000
  C   C923      1.0  0.54993  0.93122  0.11483  1.0000
  N   N64       1.0  0.54574  0.95563  0.11009  1.0000
  H   H1124     1.0  0.73407  0.67371  0.23171  1.0000
  H   H1125     1.0  0.91074  0.49820  0.14363  1.0000
  H   H1126     1.0  0.86022  0.66453  0.08144  1.0000
  H   H1127     1.0  0.92213  0.49584  0.01315  1.0000
  C   C924      1.0  0.51278  0.98337  0.10285  1.0000
  C   C925      1.0  0.73337  0.58938  0.20982  1.0000
  H   H1128     1.0  0.54449  0.92040  0.10040  1.0000
  H   H1129     1.0  0.85603  0.58009  0.22372  1.0000
  C   C926      1.0  0.51986  0.96063  0.10648  1.0000
  C   C927      1.0  0.99552  0.60792  0.14144  1.0000
  C   C928      1.0  0.55995  0.96238  0.08978  1.0000
  C   C929      1.0  0.81743  0.66906  0.01405  1.0000
  H   H1130     1.0  0.72619  0.57208  0.20830  1.0000
  H   H1131     1.0  0.82737  0.69002  0.07836  1.0000
  H   H1132     1.0  0.72220  0.76214  0.15245  1.0000
  H   H1133     1.0  0.57547  0.87364  0.02612  1.0000
  H   H1134     1.0  0.90578  0.66724  0.15102  1.0000
  C   C930      1.0  0.97466  0.62993  0.11327  1.0000
  C   C931      1.0  0.86176  0.66505  0.06281  1.0000
  H   H1135     1.0  0.57931  0.95785  0.09152  1.0000
  C   C932      1.0  0.56015  0.87550  0.01485  1.0000
  C   C933      1.0  0.89595  0.61167  0.19153  1.0000
  H   H1136     1.0  0.50116  0.88996  0.01568  1.0000
  N   N65       1.0  0.67342  0.81103  0.09069  1.0000
  C   C934      1.0  0.64707  0.80495  0.08919  1.0000
  C   C935      1.0  0.67593  0.83518  0.09709  1.0000
  C   C936      1.0  0.68380  0.80869  0.06790  1.0000
  C   C937      1.0  0.68649  0.79695  0.10727  1.0000
  C   C938      1.0  0.67434  0.78157  0.12254  1.0000
  C   C939      1.0  0.71215  0.79920  0.10924  1.0000
  C   C940      1.0  0.68724  0.76890  0.13829  1.0000
  C   C941      1.0  0.72484  0.78653  0.12516  1.0000
  C   C942      1.0  0.71241  0.77135  0.13959  1.0000
  H   H1137     1.0  0.63801  0.81510  0.07584  1.0000
  H   H1138     1.0  0.64387  0.78673  0.08510  1.0000
  H   H1139     1.0  0.63745  0.80854  0.10513  1.0000
  H   H1140     1.0  0.66790  0.83775  0.11392  1.0000
  H   H1141     1.0  0.66648  0.84641  0.08498  1.0000
  H   H1142     1.0  0.69517  0.84144  0.09771  1.0000
  H   H1143     1.0  0.68351  0.79056  0.06290  1.0000
  H   H1144     1.0  0.67345  0.81840  0.05503  1.0000
  H   H1145     1.0  0.70277  0.81559  0.06661  1.0000
  H   H1146     1.0  0.65481  0.77952  0.12320  1.0000
  H   H1147     1.0  0.72255  0.81124  0.09891  1.0000
  H   H1148     1.0  0.67758  0.75777  0.15022  1.0000
  C   C943      1.0  0.88360  0.51803  0.12705  1.0000
  N   N66       1.0  0.90085  0.65391  0.18485  1.0000
  C   C944      1.0  0.67634  0.86293  0.23935  1.0000
  H   H1149     1.0  0.87131  0.67691  0.18668  1.0000
  C   C945      1.0  0.89813  0.65199  0.16020  1.0000
  C   C946      1.0  0.76080  0.61975  0.19713  1.0000
  C   C947      1.0  0.89089  0.67600  0.19127  1.0000
  H   H1150     1.0  0.87480  0.67936  0.05862  1.0000
  H   H1151     1.0  0.93676  0.66975  0.18286  1.0000
  C   C948      1.0  0.92711  0.65453  0.19042  1.0000
  H   H1152     1.0  0.57426  0.96402  0.13377  1.0000
  C   C949      1.0  0.86923  0.63593  0.21162  1.0000
  H   H1153     1.0  0.84275  0.61853  0.23297  1.0000
  H   H1154     1.0  0.79988  0.66990  0.02196  1.0000
  C   C950      1.0  0.88633  0.54159  0.04352  1.0000
  C   C951      1.0  0.86514  0.59500  0.21625  1.0000
  C   C952      1.0  0.68718  0.98707  0.10556  1.0000
  C   C953      1.0  0.51835  0.88475  0.00897  1.0000
  H   H1155     1.0  0.77491  0.62613  0.18573  1.0000
  C   C954      1.0  0.85107  0.49629  0.10930  1.0000
  C   C955      1.0  0.86128  0.66752  0.01499  1.0000
  H   H1156     1.0  0.69539  0.65358  0.22377  1.0000
  C   C956      1.0  0.75172  0.59747  0.19540  1.0000
  H   H1157     1.0  0.56948  0.92814  0.11800  1.0000
  H   H1158     1.0  0.53993  0.92497  0.13007  1.0000
  C   C957      1.0  0.89409  0.49761  0.13400  1.0000
  H   H1159     1.0  0.55998  0.98099  0.08631  1.0000
  H   H1160     1.0  0.67884  0.95928  0.12852  1.0000
  C   C958      1.0  0.90086  0.50257  0.04333  1.0000
  C   C959      1.0  0.62096  0.99197  0.12702  1.0000
  C   C960      1.0  0.91194  0.50799  0.02225  1.0000
  C   C961      1.0  0.69714  0.64493  0.24044  1.0000
  C   C962      1.0  0.68307  0.99112  0.14551  1.0000
  C   C963      1.0  0.72411  0.60353  0.22610  1.0000
  H   H1161     1.0  0.68628  0.97638  0.09093  1.0000
  C   C964      1.0  0.64649  0.86775  0.99961  1.0000
  H   H1162     1.0  0.72078  0.82995  0.22142  1.0000
  H   H1163     1.0  0.68585  0.62892  0.24018  1.0000
  N   N67       1.0  0.72291  0.64093  0.24584  1.0000
  C   C965      1.0  0.50104  0.94345  0.10654  1.0000
  H   H1164     1.0  0.50459  0.92569  0.10873  1.0000
  H   H1165     1.0  0.74100  0.80416  0.24257  1.0000
  H   H1166     1.0  0.63593  0.99272  0.06361  1.0000
  H   H1167     1.0  0.83426  0.49570  0.09989  1.0000
  Fe  Fe131     1.0  0.61837  0.56721  0.39270  1.0000
  S   S261      1.0  0.61262  0.57896  0.35701  1.0000
  S   S262      1.0  0.62661  0.53318  0.40903  1.0000
  Fe  Fe132     1.0  0.60360  0.61254  0.41185  1.0000
  S   S263      1.0  0.59602  0.62806  0.37784  1.0000
  S   S264      1.0  0.59550  0.63030  0.44419  1.0000
  Fe  Fe133     1.0  0.57833  0.59394  0.37028  1.0000
  S   S265      1.0  0.54110  0.58507  0.35601  1.0000
  Fe  Fe134     1.0  0.63095  0.61246  0.36704  1.0000
  S   S266      1.0  0.66416  0.63177  0.35125  1.0000
  S   S267      1.0  0.58316  0.58003  0.40503  1.0000
  S   S268      1.0  0.63933  0.59912  0.40202  1.0000
  Fe  Fe135     1.0  0.86431  0.87824  0.40905  1.0000
  S   S269      1.0  0.85077  0.90017  0.38056  1.0000
  S   S270      1.0  0.84315  0.87422  0.44157  1.0000
  Fe  Fe136     1.0  0.91089  0.86785  0.38467  1.0000
  S   S271      1.0  0.90130  0.88904  0.35463  1.0000
  S   S272      1.0  0.94576  0.84898  0.38870  1.0000
  Fe  Fe137     1.0  0.88909  0.91472  0.37947  1.0000
  S   S273      1.0  0.90478  0.95106  0.38042  1.0000
  Fe  Fe138     1.0  0.86372  0.87236  0.35804  1.0000
  S   S274      1.0  0.84561  0.86046  0.32518  1.0000
  S   S275      1.0  0.90159  0.89438  0.40923  1.0000
  S   S276      1.0  0.87435  0.84950  0.38681  1.0000
  H   H1168     1.0  0.59544  0.51560  0.45352  1.0000
  H   H1169     1.0  0.90765  0.81973  0.41029  1.0000
  S   S277      1.0  0.68708  0.70148  0.26904  1.0000
  Fe  Fe139     1.0  0.76460  0.75477  0.26705  1.0000
  S   S278      1.0  0.78138  0.77163  0.29834  1.0000
  H   H1170     1.0  0.91181  0.91608  0.45888  1.0000
  C   C966      1.0  0.97279  0.86568  0.38535  1.0000
  H   H1171     1.0  0.69830  0.68771  0.39675  1.0000
  C   C967      1.0  0.97205  0.88867  0.37923  1.0000
  C   C968      1.0  0.51690  0.62721  0.46129  1.0000
  H   H1172     1.0  0.95475  0.89653  0.37696  1.0000
  C   C969      1.0  0.88893  0.97649  0.38251  1.0000
  H   H1173     1.0  0.85394  0.96243  0.37291  1.0000
  H   H1174     1.0  0.95217  0.78948  0.44148  1.0000
  C   C970      1.0  0.82881  0.83497  0.31815  1.0000
  C   C971      1.0  0.81862  0.82012  0.33445  1.0000
  C   C972      1.0  0.80440  0.80082  0.32801  1.0000
  C   C973      1.0  0.80034  0.79587  0.30524  1.0000
  C   C974      1.0  0.81100  0.81044  0.28893  1.0000
  C   C975      1.0  0.82487  0.82995  0.29536  1.0000
  H   H1175     1.0  0.82134  0.82369  0.35203  1.0000
  H   H1176     1.0  0.79639  0.78968  0.34083  1.0000
  H   H1177     1.0  0.80874  0.80665  0.27137  1.0000
  H   H1178     1.0  0.83282  0.84117  0.28258  1.0000
  C   C976      1.0  0.84629  0.87211  0.48756  1.0000
  C   C977      1.0  0.85914  0.87255  0.46722  1.0000
  C   C978      1.0  0.88433  0.87068  0.46764  1.0000
  C   C979      1.0  0.85383  0.81560  0.45888  1.0000
  H   H1179     1.0  0.65997  0.59647  0.48954  1.0000
  H   H1180     1.0  0.89429  0.87081  0.45209  1.0000
  C   C980      1.0  0.51592  0.60074  0.36412  1.0000
  C   C981      1.0  0.51843  0.62376  0.36943  1.0000
  H   H1181     1.0  0.57708  0.52230  0.38096  1.0000
  H   H1182     1.0  0.53625  0.63207  0.36962  1.0000
  C   C982      1.0  0.62898  0.50797  0.39360  1.0000
  C   C983      1.0  0.56217  0.51091  0.37596  1.0000
  H   H1183     1.0  0.64432  0.65345  0.44835  1.0000
  H   H1184     1.0  0.63180  0.52456  0.36119  1.0000
  C   C984      1.0  0.67613  0.70300  0.43613  1.0000
  C   C985      1.0  0.66984  0.65151  0.32852  1.0000
  C   C986      1.0  0.65183  0.65768  0.31325  1.0000
  C   C987      1.0  0.65744  0.67310  0.29537  1.0000
  C   C988      1.0  0.68103  0.68278  0.29254  1.0000
  C   C989      1.0  0.69902  0.67675  0.30791  1.0000
  C   C990      1.0  0.69346  0.66117  0.32567  1.0000
  H   H1185     1.0  0.63360  0.65046  0.31511  1.0000
  H   H1186     1.0  0.64333  0.67758  0.28363  1.0000
  H   H1187     1.0  0.71723  0.68401  0.30607  1.0000
  H   H1188     1.0  0.70760  0.65656  0.33731  1.0000
  S   S279      1.0  0.72516  0.76015  0.25900  1.0000
  C   C991      1.0  0.60991  0.62233  0.46943  1.0000
  C   C992      1.0  0.63150  0.61058  0.46934  1.0000
  H   H1189     1.0  0.58745  0.54092  0.43937  1.0000
  H   H1190     1.0  0.63960  0.60608  0.45360  1.0000
  C   C993      1.0  0.98821  0.86645  0.32865  1.0000
  H   H1191     1.0  0.62521  0.55794  0.45439  1.0000
  H   H1192     1.0  0.50458  0.64662  0.31843  1.0000
  C   C994      1.0  0.89793  0.81137  0.45636  1.0000
  N   N68       1.0  0.74130  0.83257  0.26489  1.0000
  C   C995      1.0  0.87110  0.95764  0.45404  1.0000
  H   H1193     1.0  0.53564  0.53674  0.37723  1.0000
  C   C996      1.0  0.86436  0.95932  0.47659  1.0000
  H   H1194     1.0  0.68024  0.63980  0.39585  1.0000
  C   C997      1.0  0.67895  0.68416  0.39225  1.0000
  C   C998      1.0  0.65209  0.67975  0.47141  1.0000
  H   H1195     1.0  0.64269  0.67067  0.48506  1.0000
  C   C999      1.0  0.98653  0.82561  0.32655  1.0000
  H   H1196     1.0  0.68337  0.72933  0.46023  1.0000
  C   C1000     1.0  0.87471  0.94532  0.49355  1.0000
  C   C1001     1.0  0.93427  0.83234  0.44469  1.0000
  H   H1197     1.0  0.91595  0.86602  0.48827  1.0000
  C   C1002     1.0  0.63135  0.50846  0.37024  1.0000
  H   H1198     1.0  0.56571  0.52721  0.45779  1.0000
  H   H1199     1.0  0.95772  0.96931  0.36151  1.0000
  H   H1200     1.0  0.66914  0.63617  0.42376  1.0000
  H   H1201     1.0  0.86267  0.96795  0.44117  1.0000
  C   C1003     1.0  0.66299  0.70109  0.47496  1.0000
  N   N69       1.0  0.59515  0.54511  0.47466  1.0000
  H   H1202     1.0  0.75229  0.86107  0.28554  1.0000
  C   C1004     1.0  0.64101  0.66536  0.40172  1.0000
  H   H1203     1.0  0.89323  0.94083  0.43021  1.0000
  H   H1204     1.0  0.83878  0.81702  0.49205  1.0000
  H   H1205     1.0  0.51440  0.60006  0.41164  1.0000
  H   H1206     1.0  0.90492  0.78965  0.41696  1.0000
  H   H1207     1.0  0.95525  0.84592  0.33116  1.0000
  C   C1005     1.0  0.93611  0.79205  0.45235  1.0000
  C   C1006     1.0  0.67876  0.64848  0.41223  1.0000
  Fe  Fe140     1.0  0.72099  0.72198  0.25657  1.0000
  H   H1208     1.0  0.49970  0.65424  0.37719  1.0000
  S   S280      1.0  0.75948  0.71649  0.26685  1.0000
  H   H1209     1.0  0.66990  0.70049  0.38903  1.0000
  C   C1007     1.0  0.58541  0.53149  0.45568  1.0000
  C   C1008     1.0  0.86428  0.97772  0.37724  1.0000
  C   C1009     1.0  0.51972  0.50434  0.36759  1.0000
  C   C1010     1.0  0.89215  0.92980  0.48650  1.0000
  H   H1210     1.0  0.92372  0.84629  0.43706  1.0000
  H   H1211     1.0  0.97899  0.88223  0.33077  1.0000
  H   H1212     1.0  0.56331  0.56503  0.47746  1.0000
  H   H1213     1.0  0.63037  0.68106  0.40109  1.0000
  H   H1214     1.0  0.93833  0.83697  0.46234  1.0000
  N   N70       1.0  0.66608  0.67019  0.40987  1.0000
  C   C1011     1.0  0.65314  0.66997  0.45028  1.0000
  H   H1215     1.0  0.63084  0.65276  0.41256  1.0000
  H   H1216     1.0  0.77618  0.84304  0.27846  1.0000
  H   H1217     1.0  0.69748  0.65135  0.41887  1.0000
  C   C1012     1.0  0.91639  0.80541  0.41914  1.0000
  H   H1218     1.0  0.87262  0.81532  0.42810  1.0000
  H   H1219     1.0  0.59082  0.57954  0.48599  1.0000
  C   C1013     1.0  0.62151  0.54922  0.47087  1.0000
  H   H1220     1.0  0.64090  0.65821  0.38455  1.0000
  C   C1014     1.0  0.66519  0.68122  0.43198  1.0000
  H   H1221     1.0  0.58509  0.57588  0.45707  1.0000
  H   H1222     1.0  0.99605  0.83793  0.39306  1.0000
  C   C1015     1.0  0.95810  0.98657  0.35471  1.0000
  C   C1016     1.0  0.50811  0.60759  0.42693  1.0000
  C   C1017     1.0  0.64300  0.60513  0.48972  1.0000
  H   H1223     1.0  0.72810  0.67383  0.26099  1.0000
  C   C1018     1.0  0.89880  0.92837  0.46395  1.0000
  H   H1224     1.0  0.95181  0.83221  0.43541  1.0000
  C   C1019     1.0  0.70522  0.85710  0.26937  1.0000
  H   H1225     1.0  0.71772  0.64097  0.28177  1.0000
  H   H1226     1.0  0.94372  0.79607  0.46914  1.0000
  C   C1020     1.0  0.93778  0.99452  0.34338  1.0000
  H   H1227     1.0  0.93368  0.80339  0.40984  1.0000
  H   H1228     1.0  0.72786  0.82812  0.29896  1.0000
  H   H1229     1.0  0.75038  0.80890  0.29147  1.0000
  H   H1230     1.0  0.71038  0.86044  0.28653  1.0000
  C   C1021     1.0  0.75923  0.85048  0.27188  1.0000
  C   C1022     1.0  0.71936  0.84319  0.25567  1.0000
  H   H1231     1.0  0.85070  0.97139  0.48020  1.0000
  C   C1023     1.0  0.88829  0.94224  0.44776  1.0000
  C   C1024     1.0  0.89855  0.81136  0.48020  1.0000
  C   C1025     1.0  0.87488  0.81393  0.44604  1.0000
  C   C1026     1.0  0.89653  0.86795  0.48817  1.0000
  H   H1232     1.0  0.82675  0.87337  0.48734  1.0000
  H   H1233     1.0  0.66210  0.70864  0.49139  1.0000
  N   N71       1.0  0.92067  0.81024  0.44326  1.0000
  H   H1234     1.0  0.62997  0.55999  0.48406  1.0000
  H   H1235     1.0  0.67911  0.67523  0.37587  1.0000
  H   H1236     1.0  0.63118  0.53295  0.47082  1.0000
  C   C1027     1.0  0.99537  0.85571  0.38832  1.0000
  H   H1237     1.0  0.68565  0.71290  0.42327  1.0000
  C   C1028     1.0  0.97478  0.84597  0.32885  1.0000
  C   C1029     1.0  0.58305  0.56725  0.47381  1.0000
  C   C1030     1.0  0.59971  0.62820  0.49000  1.0000
  C   C1031     1.0  0.53885  0.51902  0.37393  1.0000
  C   C1032     1.0  0.52489  0.61731  0.44172  1.0000
  H   H1238     1.0  0.74315  0.62535  0.27250  1.0000
  H   H1239     1.0  0.97595  0.80972  0.32677  1.0000
  H   H1240     1.0  0.97028  0.88303  0.48187  1.0000
  H   H1241     1.0  0.54411  0.61740  0.43786  1.0000
  H   H1242     1.0  0.92562  0.77555  0.45373  1.0000
  C   C1033     1.0  0.67496  0.71269  0.45737  1.0000
  H   H1243     1.0  0.72020  0.80518  0.28049  1.0000
  C   C1034     1.0  0.72418  0.62975  0.26832  1.0000
  H   H1244     1.0  0.91545  0.81105  0.48935  1.0000
  C   C1035     1.0  0.73577  0.66346  0.24745  1.0000
  C   C1036     1.0  0.73458  0.81815  0.28477  1.0000
  H   H1245     1.0  0.83659  0.81843  0.45066  1.0000
  H   H1246     1.0  0.58306  0.63738  0.49020  1.0000
  H   H1247     1.0  0.52365  0.61014  0.31122  1.0000
  H   H1248     1.0  0.92252  0.98256  0.34200  1.0000
  C   C1037     1.0  0.85504  0.81493  0.48221  1.0000
  H   H1249     1.0  0.57824  0.50038  0.48538  1.0000
  H   H1250     1.0  0.67342  0.87717  0.27211  1.0000
  C   C1038     1.0  0.99373  0.90143  0.37541  1.0000
  C   C1039     1.0  0.68404  0.86677  0.26128  1.0000
  H   H1251     1.0  0.99443  0.99437  0.36614  1.0000
  C   C1040     1.0  0.50402  0.61106  0.31081  1.0000
  C   C1041     1.0  0.87735  0.81285  0.49286  1.0000
  H   H1252     1.0  0.50155  0.51069  0.36630  1.0000
  H   H1253     1.0  0.71254  0.61399  0.26968  1.0000
  C   C1042     1.0  0.75351  0.81795  0.24862  1.0000
  H   H1254     1.0  0.53010  0.63493  0.47263  1.0000
  H   H1255     1.0  0.99299  0.91908  0.37016  1.0000
  H   H1256     1.0  0.68874  0.65598  0.25302  1.0000
  H   H1257     1.0  0.76435  0.86203  0.25753  1.0000
  H   H1258     1.0  0.76924  0.80936  0.25628  1.0000
  H   H1259     1.0  0.89892  0.99415  0.31300  1.0000
  H   H1260     1.0  0.75543  0.66181  0.25125  1.0000
  H   H1261     1.0  0.67716  0.52687  0.49705  1.0000
  H   H1262     1.0  0.49889  0.57567  0.30578  1.0000
  C   C1043     1.0  0.59132  0.53393  0.49691  1.0000
  Fe  Fe141     1.0  0.63162  0.61486  0.61942  1.0000
  S   S281      1.0  0.62110  0.63633  0.58951  1.0000
  S   S282      1.0  0.65490  0.62605  0.64981  1.0000
  Fe  Fe142     1.0  0.60268  0.57254  0.60199  1.0000
  S   S283      1.0  0.58974  0.59165  0.57156  1.0000
  S   S284      1.0  0.58701  0.53625  0.60150  1.0000
  Fe  Fe143     1.0  0.62782  0.60556  0.56879  1.0000
  S   S285      1.0  0.64734  0.60296  0.53547  1.0000
  Fe  Fe144     1.0  0.58359  0.62026  0.59477  1.0000
  S   S286      1.0  0.55028  0.64156  0.59105  1.0000
  S   S287      1.0  0.64144  0.58496  0.59811  1.0000
  S   S288      1.0  0.59349  0.60040  0.62570  1.0000
  Fe  Fe145     1.0  0.90892  0.88776  0.61165  1.0000
  S   S289      1.0  0.87346  0.89901  0.62573  1.0000
  S   S290      1.0  0.94332  0.89327  0.63203  1.0000
  Fe  Fe146     1.0  0.88622  0.87341  0.56758  1.0000
  S   S291      1.0  0.84896  0.88298  0.57816  1.0000
  S   S292      1.0  0.89957  0.86209  0.53368  1.0000
  Fe  Fe147     1.0  0.86759  0.91452  0.59168  1.0000
  S   S293      1.0  0.85085  0.94842  0.58424  1.0000
  Fe  Fe148     1.0  0.85734  0.86645  0.61180  1.0000
  S   S294      1.0  0.82574  0.84822  0.63100  1.0000
  S   S295      1.0  0.90421  0.90610  0.57877  1.0000
  S   S296      1.0  0.89343  0.85410  0.59990  1.0000
  Fe  Fe149     1.0  0.72451  0.73000  0.72198  1.0000
  S   S297      1.0  0.76394  0.72285  0.72826  1.0000
  S   S298      1.0  0.70095  0.71799  0.69193  1.0000
  Fe  Fe150     1.0  0.77009  0.76107  0.72925  1.0000
  S   S299      1.0  0.80430  0.77575  0.71112  1.0000
  S   S300      1.0  0.73118  0.76818  0.72145  1.0000
  H   H1263     1.0  0.91706  0.99389  0.61886  1.0000
  H   H1264     1.0  0.89779  0.96954  0.52526  1.0000
  H   H1265     1.0  0.84836  0.86853  0.52370  1.0000
  C   C1044     1.0  0.63260  0.61066  0.51031  1.0000
  C   C1045     1.0  0.97090  0.88433  0.62053  1.0000
  C   C1046     1.0  0.97100  0.86758  0.60421  1.0000
  H   H1266     1.0  0.97022  0.87323  0.55325  1.0000
  H   H1267     1.0  0.95402  0.86018  0.59818  1.0000
  C   C1047     1.0  0.57018  0.64365  0.66202  1.0000
  C   C1048     1.0  0.82031  0.82774  0.65314  1.0000
  C   C1049     1.0  0.83808  0.81310  0.66085  1.0000
  C   C1050     1.0  0.83270  0.79713  0.67831  1.0000
  C   C1051     1.0  0.80949  0.79537  0.68822  1.0000
  C   C1052     1.0  0.79159  0.80972  0.68023  1.0000
  C   C1053     1.0  0.79701  0.82577  0.66286  1.0000
  H   H1268     1.0  0.85587  0.81393  0.65329  1.0000
  H   H1269     1.0  0.84671  0.78614  0.68431  1.0000
  H   H1270     1.0  0.77371  0.80878  0.68770  1.0000
  H   H1271     1.0  0.78304  0.83684  0.65695  1.0000
  C   C1054     1.0  0.86644  0.97392  0.59175  1.0000
  N   N72       1.0  0.57999  0.66632  0.65441  1.0000
  C   C1055     1.0  0.52132  0.63084  0.59975  1.0000
  C   C1056     1.0  0.87013  0.82376  0.72947  1.0000
  H   H1272     1.0  0.90696  0.86002  0.64753  1.0000
  H   H1273     1.0  0.53469  0.60467  0.62167  1.0000
  H   H1274     1.0  0.84418  0.96330  0.54020  1.0000
  C   C1057     1.0  0.60136  0.51119  0.61004  1.0000
  C   C1058     1.0  0.62341  0.51162  0.62170  1.0000
  H   H1275     1.0  0.87559  0.81151  0.74213  1.0000
  H   H1276     1.0  0.63214  0.52776  0.62589  1.0000
  H   H1277     1.0  0.55854  0.64506  0.67713  1.0000
  H   H1278     1.0  0.85505  0.98061  0.51741  1.0000
  C   C1059     1.0  0.88964  0.95293  0.53105  1.0000
  H   H1279     1.0  0.56533  0.69587  0.63806  1.0000
  H   H1280     1.0  0.60270  0.62652  0.52619  1.0000
  H   H1281     1.0  0.99319  0.90639  0.64118  1.0000
  C   C1060     1.0  0.66836  0.65183  0.66058  1.0000
  C   C1061     1.0  0.68231  0.65081  0.68040  1.0000
  C   C1062     1.0  0.69259  0.67070  0.69015  1.0000
  C   C1063     1.0  0.68895  0.69206  0.68027  1.0000
  C   C1064     1.0  0.67511  0.69309  0.66037  1.0000
  C   C1065     1.0  0.66496  0.67318  0.65055  1.0000
  H   H1282     1.0  0.68512  0.63446  0.68838  1.0000
  H   H1283     1.0  0.70318  0.66948  0.70539  1.0000
  H   H1284     1.0  0.67208  0.70944  0.65253  1.0000
  H   H1285     1.0  0.65440  0.67438  0.63531  1.0000
  N   N73       1.0  0.75343  0.75136  0.64972  1.0000
  C   C1066     1.0  0.74942  0.72844  0.64011  1.0000
  C   C1067     1.0  0.76154  0.74866  0.67329  1.0000
  C   C1068     1.0  0.72960  0.76237  0.65012  1.0000
  C   C1069     1.0  0.77230  0.76445  0.63676  1.0000
  C   C1070     1.0  0.76809  0.78588  0.62631  1.0000
  C   C1071     1.0  0.79603  0.75607  0.63479  1.0000
  C   C1072     1.0  0.78660  0.79803  0.61476  1.0000
  C   C1073     1.0  0.81440  0.76842  0.62328  1.0000
  C   C1074     1.0  0.80969  0.78937  0.61331  1.0000
  H   H1286     1.0  0.76574  0.71800  0.64150  1.0000
  H   H1287     1.0  0.73458  0.71854  0.64907  1.0000
  H   H1288     1.0  0.74431  0.72965  0.62207  1.0000
  H   H1289     1.0  0.77876  0.73955  0.67495  1.0000
  H   H1290     1.0  0.74784  0.73879  0.68350  1.0000
  H   H1291     1.0  0.76460  0.76548  0.68119  1.0000
  H   H1292     1.0  0.72204  0.76449  0.63293  1.0000
  H   H1293     1.0  0.71584  0.75203  0.65993  1.0000
  H   H1294     1.0  0.73099  0.77919  0.65837  1.0000
  H   H1295     1.0  0.75087  0.79393  0.62723  1.0000
  H   H1296     1.0  0.80070  0.74012  0.64261  1.0000
  H   H1297     1.0  0.78338  0.81474  0.60762  1.0000
  H   H1298     1.0  0.83254  0.76199  0.62253  1.0000
  H   H1299     1.0  0.82413  0.79932  0.60503  1.0000
  H   H1300     1.0  0.92873  0.86367  0.70552  1.0000
  C   C1075     1.0  0.83832  0.84328  0.71024  1.0000
  H   H1301     1.0  0.83172  0.95843  0.51310  1.0000
  H   H1302     1.0  0.55900  0.63523  0.64870  1.0000
  C   C1076     1.0  0.59353  0.67762  0.67283  1.0000
  C   C1077     1.0  0.58883  0.70001  0.67984  1.0000
  C   C1078     1.0  0.61309  0.66667  0.68349  1.0000
  C   C1079     1.0  0.60316  0.71072  0.69625  1.0000
  C   C1080     1.0  0.62721  0.67750  0.69989  1.0000
  C   C1081     1.0  0.62242  0.69954  0.70612  1.0000
  H   H1303     1.0  0.93684  0.86665  0.67649  1.0000
  H   H1304     1.0  0.94785  0.87772  0.51771  1.0000
  H   H1305     1.0  0.58472  0.63168  0.66621  1.0000
  N   N74       1.0  0.89836  0.86147  0.68268  1.0000
  C   C1082     1.0  0.59680  0.66328  0.63543  1.0000
  C   C1083     1.0  0.84558  0.82789  0.72669  1.0000
  H   H1306     1.0  0.58719  0.65582  0.62075  1.0000
  H   H1307     1.0  0.61820  0.64986  0.67869  1.0000
  H   H1308     1.0  0.84869  0.86503  0.68288  1.0000
  H   H1309     1.0  0.57445  0.70976  0.67268  1.0000
  C   C1084     1.0  0.88068  0.85047  0.69852  1.0000
  H   H1310     1.0  0.59957  0.72792  0.70115  1.0000
  H   H1311     1.0  0.64242  0.66894  0.70736  1.0000
  H   H1312     1.0  0.63389  0.70805  0.71842  1.0000
  C   C1085     1.0  0.99312  0.89359  0.62840  1.0000
  C   C1086     1.0  0.89548  0.88646  0.68201  1.0000
  C   C1087     1.0  0.66204  0.54207  0.52610  1.0000
  H   H1313     1.0  0.64587  0.55255  0.55676  1.0000
  H   H1314     1.0  0.57990  0.50631  0.55659  1.0000
  C   C1088     1.0  0.65172  0.53822  0.54717  1.0000
  C   C1089     1.0  0.90024  0.99422  0.60951  1.0000
  H   H1315     1.0  0.99305  0.84647  0.58394  1.0000
  H   H1316     1.0  0.88511  0.95444  0.54916  1.0000
  H   H1317     1.0  0.60479  0.56299  0.51643  1.0000
  C   C1090     1.0  0.64872  0.51608  0.55588  1.0000
  C   C1091     1.0  0.51877  0.61286  0.61532  1.0000
  C   C1092     1.0  0.88366  0.86719  0.50848  1.0000
  C   C1093     1.0  0.55920  0.67931  0.64579  1.0000
  C   C1094     1.0  0.92413  0.85749  0.68844  1.0000
  H   H1318     1.0  0.87293  0.91100  0.52636  1.0000
  H   H1319     1.0  0.90617  0.83063  0.71858  1.0000
  C   C1095     1.0  0.61081  0.62209  0.51040  1.0000
  C   C1096     1.0  0.59696  0.54585  0.51689  1.0000
  H   H1320     1.0  0.54916  0.66997  0.63229  1.0000
  C   C1097     1.0  0.66925  0.52378  0.51352  1.0000
  H   H1321     1.0  0.87753  0.89130  0.67538  1.0000
  H   H1322     1.0  0.90916  0.89526  0.67077  1.0000
  H   H1323     1.0  0.87838  0.81350  0.51103  1.0000
  C   C1098     1.0  0.85854  0.92370  0.52554  1.0000
  C   C1099     1.0  0.65674  0.49708  0.54392  1.0000
  H   H1324     1.0  0.89761  0.89375  0.69902  1.0000
  C   C1100     1.0  0.88847  0.97365  0.60337  1.0000
  H   H1325     1.0  0.92835  0.83920  0.68737  1.0000
  H   H1326     1.0  0.81913  0.84592  0.70767  1.0000
  H   H1327     1.0  0.89623  0.95761  0.60797  1.0000
  C   C1101     1.0  0.88754  0.83487  0.71570  1.0000
  C   C1102     1.0  0.85549  0.85426  0.69620  1.0000
  C   C1103     1.0  0.89384  0.85243  0.65997  1.0000
  C   C1104     1.0  0.99315  0.85985  0.59614  1.0000
  N   N75       1.0  0.86793  0.94637  0.51756  1.0000
  C   C1105     1.0  0.85849  0.86943  0.50815  1.0000
  C   C1106     1.0  0.59264  0.53593  0.53805  1.0000
  H   H1328     1.0  0.89566  0.83367  0.65980  1.0000
  C   C1107     1.0  0.96753  0.87813  0.51758  1.0000
  H   H1329     1.0  0.60546  0.67978  0.62981  1.0000
  H   H1330     1.0  0.54580  0.68226  0.65928  1.0000
  H   H1331     1.0  0.61165  0.65172  0.63987  1.0000
  C   C1108     1.0  0.99223  0.98381  0.61573  1.0000
  H   H1332     1.0  0.87529  0.85598  0.65376  1.0000
  H   H1333     1.0  0.84384  0.91695  0.51439  1.0000
  H   H1334     1.0  0.85100  0.92425  0.54284  1.0000
  H   H1335     1.0  0.83206  0.81866  0.73686  1.0000
  H   H1336     1.0  0.59664  0.54549  0.55310  1.0000
  C   C1109     1.0  0.84891  0.96296  0.52205  1.0000
  C   C1110     1.0  0.58331  0.51373  0.54005  1.0000
  H   H1337     1.0  0.99389  0.94831  0.62477  1.0000
  C   C1111     1.0  0.98017  0.87561  0.53763  1.0000
  H   H1338     1.0  0.90395  0.94013  0.53032  1.0000
  H   H1339     1.0  0.64001  0.51406  0.57209  1.0000
  C   C1112     1.0  0.57844  0.50120  0.52085  1.0000
  H   H1340     1.0  0.66439  0.55932  0.51955  1.0000
  C   C1113     1.0  0.66662  0.50156  0.52217  1.0000
  H   H1341     1.0  0.97255  0.98329  0.61467  1.0000
  C   C1114     1.0  0.50043  0.64130  0.59169  1.0000
  H   H1342     1.0  0.50225  0.65527  0.57969  1.0000
  C   C1115     1.0  0.58240  0.51103  0.49953  1.0000
  C   C1116     1.0  0.85658  0.99488  0.58584  1.0000
  H   H1343     1.0  0.90047  0.91835  0.49837  1.0000
  H   H1344     1.0  0.83949  0.99520  0.57692  1.0000
  C   C1117     1.0  0.98021  0.88110  0.49746  1.0000
  Fe  Fe151     1.0  0.58506  0.87056  0.88265  1.0000
  S   S301      1.0  0.61564  0.85724  0.90364  1.0000
  S   S302      1.0  0.54866  0.85134  0.88295  1.0000
  Fe  Fe152     1.0  0.61477  0.91284  0.86767  1.0000
  S   S303      1.0  0.64731  0.90306  0.88780  1.0000
  S   S304      1.0  0.61110  0.94450  0.84584  1.0000
  Fe  Fe153     1.0  0.63974  0.86770  0.87411  1.0000
  S   S305      1.0  0.67209  0.84708  0.86224  1.0000
  Fe  Fe154     1.0  0.62064  0.89325  0.91533  1.0000
  S   S306      1.0  0.61794  0.90791  0.95034  1.0000
  S   S307      1.0  0.60850  0.87829  0.85241  1.0000
  S   S308      1.0  0.58875  0.90573  0.89580  1.0000
  Fe  Fe155     1.0  0.85576  0.57461  0.87884  1.0000
  S   S309      1.0  0.83384  0.60503  0.88664  1.0000
  S   S310      1.0  0.83834  0.53976  0.87277  1.0000
  Fe  Fe156     1.0  0.90424  0.59991  0.88738  1.0000
  S   S311      1.0  0.88627  0.63228  0.89666  1.0000
  S   S312      1.0  0.94287  0.58745  0.88766  1.0000
  Fe  Fe157     1.0  0.85953  0.60949  0.91585  1.0000
  S   S313      1.0  0.84302  0.61246  0.95055  1.0000
  Fe  Fe158     1.0  0.86168  0.62564  0.86654  1.0000
  S   S314      1.0  0.85683  0.65388  0.83961  1.0000
  S   S315      1.0  0.87937  0.57804  0.90898  1.0000
  S   S316      1.0  0.88164  0.59451  0.85634  1.0000
  H   H1345     1.0  0.65560  0.79159  0.87401  1.0000
  H   H1346     1.0  0.64881  0.78138  0.83447  1.0000
  S   S317      1.0  0.69631  0.79085  0.77376  1.0000
  N   N76       1.0  0.66240  0.90534  0.80528  1.0000
  S   S318      1.0  0.76367  0.69913  0.79386  1.0000
  H   H1347     1.0  0.54631  0.98535  0.85170  1.0000
  C   C1118     1.0  0.97124  0.60231  0.88943  1.0000
  H   H1348     1.0  0.71827  0.75789  0.80357  1.0000
  C   C1119     1.0  0.56755  0.85791  0.94639  1.0000
  H   H1349     1.0  0.71707  0.74988  0.87764  1.0000
  C   C1120     1.0  0.97339  0.62598  0.89099  1.0000
  H   H1350     1.0  0.84935  0.54787  0.98584  1.0000
  H   H1351     1.0  0.95729  0.63581  0.89213  1.0000
  C   C1121     1.0  0.83058  0.66605  0.82702  1.0000
  C   C1122     1.0  0.80685  0.65974  0.83357  1.0000
  C   C1123     1.0  0.78677  0.67001  0.82320  1.0000
  C   C1124     1.0  0.78996  0.68666  0.80605  1.0000
  C   C1125     1.0  0.81369  0.69299  0.79949  1.0000
  C   C1126     1.0  0.83378  0.68279  0.80993  1.0000
  H   H1352     1.0  0.80393  0.64692  0.84661  1.0000
  H   H1353     1.0  0.76859  0.66485  0.82845  1.0000
  H   H1354     1.0  0.81658  0.70574  0.78639  1.0000
  H   H1355     1.0  0.85195  0.68790  0.80465  1.0000
  C   C1127     1.0  0.86088  0.61221  0.97513  1.0000
  C   C1128     1.0  0.88593  0.61677  0.97436  1.0000
  C   C1129     1.0  0.63629  0.90468  0.79892  1.0000
  H   H1356     1.0  0.89480  0.61986  0.95835  1.0000
  C   C1130     1.0  0.85673  0.51585  0.87491  1.0000
  C   C1131     1.0  0.88160  0.51834  0.87923  1.0000
  H   H1357     1.0  0.67224  0.93235  0.78192  1.0000
  H   H1358     1.0  0.88992  0.53514  0.88107  1.0000
  H   H1359     1.0  0.90504  0.64728  0.85299  1.0000
  C   C1132     1.0  0.62578  0.89554  0.97656  1.0000
  C   C1133     1.0  0.84167  0.54599  0.96867  1.0000
  C   C1134     1.0  0.63970  0.87620  0.97829  1.0000
  H   H1360     1.0  0.86522  0.50891  0.98329  1.0000
  H   H1361     1.0  0.64578  0.86813  0.96324  1.0000
  C   C1135     1.0  0.67858  0.83205  0.83717  1.0000
  C   C1136     1.0  0.70153  0.82255  0.83476  1.0000
  C   C1137     1.0  0.70736  0.81000  0.81559  1.0000
  C   C1138     1.0  0.69021  0.80655  0.79852  1.0000
  C   C1139     1.0  0.66730  0.81616  0.80089  1.0000
  C   C1140     1.0  0.66154  0.82890  0.81996  1.0000
  H   H1362     1.0  0.71490  0.82485  0.84790  1.0000
  H   H1363     1.0  0.72515  0.80310  0.81401  1.0000
  H   H1364     1.0  0.65386  0.81374  0.78783  1.0000
  H   H1365     1.0  0.64380  0.83597  0.82147  1.0000
  C   C1141     1.0  0.70508  0.85573  0.77218  1.0000
  C   C1142     1.0  0.61943  0.97164  0.85629  1.0000
  C   C1143     1.0  0.63750  0.97436  0.87261  1.0000
  C   C1144     1.0  0.96905  0.62165  0.83362  1.0000
  H   H1366     1.0  0.64610  0.95962  0.87963  1.0000
  H   H1367     1.0  0.84041  0.66600  0.96125  1.0000
  C   C1145     1.0  0.97616  0.66071  0.82114  1.0000
  C   C1146     1.0  0.52171  0.86662  0.88037  1.0000
  C   C1147     1.0  0.52254  0.89024  0.87744  1.0000
  H   H1368     1.0  0.74377  0.74029  0.80738  1.0000
  H   H1369     1.0  0.93232  0.68243  0.82828  1.0000
  H   H1370     1.0  0.74013  0.76433  0.82499  1.0000
  H   H1371     1.0  0.53981  0.89942  0.87619  1.0000
  C   C1148     1.0  0.60038  0.98862  0.91665  1.0000
  H   H1372     1.0  0.69053  0.70714  0.83165  1.0000
  H   H1373     1.0  0.59381  0.98456  0.89998  1.0000
  C   C1149     1.0  0.92922  0.55301  0.94055  1.0000
  C   C1150     1.0  0.60851  0.99099  0.84729  1.0000
  C   C1151     1.0  0.86162  0.66719  0.99153  1.0000
  H   H1374     1.0  0.72439  0.71361  0.86082  1.0000
  C   C1152     1.0  0.70277  0.71741  0.82027  1.0000
  C   C1153     1.0  0.67927  0.75951  0.83312  1.0000
  C   C1154     1.0  0.52419  0.85396  0.94506  1.0000
  H   H1375     1.0  0.91502  0.50115  0.88438  1.0000
  H   H1376     1.0  0.66167  0.94172  0.80870  1.0000
  H   H1377     1.0  0.94715  0.55948  0.93565  1.0000
  H   H1378     1.0  0.93464  0.65726  0.86174  1.0000
  H   H1379     1.0  0.63370  0.90912  0.78088  1.0000
  H   H1380     1.0  0.99083  0.57144  0.88751  1.0000
  C   C1155     1.0  0.97659  0.52881  0.86097  1.0000
  H   H1381     1.0  0.69144  0.93100  0.80625  1.0000
  H   H1382     1.0  0.84986  0.51382  0.92282  1.0000
  N   N77       1.0  0.85549  0.52995  0.95508  1.0000
  H   H1383     1.0  0.52250  0.83832  0.95578  1.0000
  Fe  Fe159     1.0  0.75573  0.72493  0.76530  1.0000
  H   H1384     1.0  0.64823  0.87492  0.77106  1.0000
  N   N78       1.0  0.54478  0.86904  0.95253  1.0000
  C   C1156     1.0  0.99235  0.58974  0.88846  1.0000
  Fe  Fe160     1.0  0.72464  0.76719  0.75892  1.0000
  H   H1385     1.0  0.60669  0.95372  0.92557  1.0000
  H   H1386     1.0  0.87870  0.66594  0.98271  1.0000
  H   H1387     1.0  0.74568  0.71286  0.83818  1.0000
  C   C1157     1.0  0.54285  0.87349  0.97684  1.0000
  C   C1158     1.0  0.60770  0.97124  0.93099  1.0000
  H   H1388     1.0  0.52227  0.94932  0.84833  1.0000
  H   H1389     1.0  0.56963  0.84173  0.95601  1.0000
  H   H1390     1.0  0.84138  0.56312  0.96036  1.0000
  C   C1159     1.0  0.67680  0.88846  0.79349  1.0000
  H   H1391     1.0  0.62238  0.96267  0.96321  1.0000
  H   H1392     1.0  0.84329  0.54332  0.92326  1.0000
  H   H1393     1.0  0.82286  0.52250  0.93581  1.0000
  H   H1394     1.0  0.88193  0.56789  0.97219  1.0000
  H   H1395     1.0  0.58386  0.86922  0.94917  1.0000
  C   C1160     1.0  0.68097  0.85824  0.76595  1.0000
  H   H1396     1.0  0.80126  0.66827  0.98103  1.0000
  C   C1161     1.0  0.89933  0.61830  0.99441  1.0000
  C   C1162     1.0  0.66362  0.90115  0.82985  1.0000
  H   H1397     1.0  0.62756  0.88766  0.80262  1.0000
  H   H1398     1.0  0.62585  0.91715  0.80852  1.0000
  H   H1399     1.0  0.65770  0.88334  0.83413  1.0000
  H   H1400     1.0  0.65186  0.91276  0.83914  1.0000
  H   H1401     1.0  0.68214  0.90384  0.83686  1.0000
  C   C1163     1.0  0.89173  0.55745  0.96091  1.0000
  H   H1402     1.0  0.90494  0.66919  0.81850  1.0000
  C   C1164     1.0  0.66729  0.77963  0.86612  1.0000
  C   C1165     1.0  0.70229  0.75593  0.86756  1.0000
  H   H1403     1.0  0.97054  0.67740  0.81610  1.0000
  C   C1166     1.0  0.99409  0.61879  0.83443  1.0000
  H   H1404     1.0  0.92289  0.58059  0.96265  1.0000
  H   H1405     1.0  0.95745  0.60744  0.83919  1.0000
  H   H1406     1.0  0.67637  0.75681  0.81540  1.0000
  C   C1167     1.0  0.51313  0.96514  0.85053  1.0000
  H   H1407     1.0  0.92172  0.61041  0.82262  1.0000
  C   C1168     1.0  0.68660  0.77065  0.87798  1.0000
  C   C1169     1.0  0.67242  0.92859  0.80029  1.0000
  H   H1408     1.0  0.69169  0.72419  0.80628  1.0000
  C   C1170     1.0  0.88102  0.53768  0.95098  1.0000
  H   H1409     1.0  0.71043  0.89594  0.81179  1.0000
  H   H1410     1.0  0.74649  0.73681  0.85579  1.0000
  H   H1411     1.0  0.52648  0.84852  0.92740  1.0000
  H   H1412     1.0  0.71536  0.70557  0.81223  1.0000
  C   C1171     1.0  0.73017  0.75015  0.81645  1.0000
  H   H1413     1.0  0.92795  0.62739  0.85920  1.0000
  H   H1414     1.0  0.50653  0.86246  0.94519  1.0000
  C   C1172     1.0  0.66690  0.87430  0.77639  1.0000
  S   S319      1.0  0.76432  0.76275  0.76690  1.0000
  C   C1173     1.0  0.91962  0.53309  0.93127  1.0000
  H   H1415     1.0  0.93097  0.67025  0.80049  1.0000
  C   C1174     1.0  0.69905  0.74988  0.84471  1.0000
  C   C1175     1.0  0.84953  0.60827  0.99602  1.0000
  N   N79       1.0  0.71618  0.73559  0.83270  1.0000
  H   H1416     1.0  0.56790  0.85369  0.92826  1.0000
  C   C1176     1.0  0.66349  0.77388  0.84381  1.0000
  C   C1177     1.0  0.92512  0.66790  0.81827  1.0000
  C   C1178     1.0  0.70161  0.88577  0.79904  1.0000
  C   C1179     1.0  0.73383  0.72430  0.84769  1.0000
  N   N80       1.0  0.93272  0.64573  0.82773  1.0000
  C   C1180     1.0  0.91959  0.62759  0.81505  1.0000
  C   C1181     1.0  0.92477  0.64433  0.85143  1.0000
  C   C1182     1.0  0.95926  0.64270  0.82693  1.0000
  S   S320      1.0  0.71557  0.72953  0.75888  1.0000
  H   H1417     1.0  0.68965  0.77552  0.89524  1.0000
  H   H1418     1.0  0.92602  0.62724  0.79737  1.0000
  H   H1419     1.0  0.89960  0.63010  0.81474  1.0000
  C   C1183     1.0  0.91546  0.56495  0.95563  1.0000
  H   H1420     1.0  0.55959  0.90252  0.94461  1.0000
  H   H1421     1.0  0.54516  0.88819  0.92144  1.0000
  C   C1184     1.0  0.89601  0.52532  0.93659  1.0000
  H   H1422     1.0  0.71557  0.84265  0.76460  1.0000
  C   C1185     1.0  0.84242  0.52724  0.93341  1.0000
  C   C1186     1.0  0.71540  0.86949  0.78866  1.0000
  H   H1423     1.0  0.82235  0.54017  0.97085  1.0000
  H   H1424     1.0  0.88935  0.50989  0.92874  1.0000
  H   H1425     1.0  0.59465  0.98904  0.83454  1.0000
  H   H1426     1.0  0.83623  0.50146  0.97098  1.0000
  H   H1427     1.0  0.52702  0.89984  0.94288  1.0000
  C   C1187     1.0  0.54407  0.89087  0.93986  1.0000
  H   H1428     1.0  0.91857  0.62260  0.99374  1.0000
  H   H1429     1.0  0.50172  0.92032  0.87372  1.0000
  H   H1430     1.0  0.73406  0.86720  0.79371  1.0000
  C   C1188     1.0  0.81800  0.66836  0.99061  1.0000
  H   H1431     1.0  0.93027  0.52398  0.91933  1.0000
  C   C1189     1.0  0.85512  0.50770  0.96713  1.0000
  C   C1190     1.0  0.52074  0.88081  0.98602  1.0000
  C   C1191     1.0  0.56272  0.87141  0.99193  1.0000
  H   H1432     1.0  0.50510  0.88359  0.97551  1.0000
  C   C1192     1.0  0.84004  0.66728  0.97939  1.0000
  C   C1193     1.0  0.52663  0.98548  0.85250  1.0000
  H   H1433     1.0  0.83014  0.60477  0.99670  1.0000
  C   C1194     1.0  0.61664  0.97640  0.95223  1.0000
  C   C1195     1.0  0.89584  0.49906  0.88098  1.0000
  H   H1434     1.0  0.94090  0.51583  0.85250  1.0000
  C   C1196     1.0  0.49903  0.85496  0.88175  1.0000
  C   C1197     1.0  0.99656  0.63695  0.89078  1.0000
  H   H1435     1.0  0.58051  0.86673  0.98649  1.0000
  H   H1436     1.0  0.67296  0.84705  0.75349  1.0000
  C   C1198     1.0  0.95875  0.51165  0.85871  1.0000
  C   C1199     1.0  0.50090  0.90206  0.87586  1.0000
  H   H1437     1.0  0.60729  0.92081  0.99509  1.0000
  H   H1438     1.0  0.91956  0.53366  0.99666  1.0000
  C   C1200     1.0  0.61813  0.90589  0.99627  1.0000
  H   H1439     1.0  0.97255  0.54625  0.85665  1.0000
  H   H1440     1.0  0.49822  0.83668  0.88400  1.0000
