data_image0
_chemical_formula_structural       HSCSFeSFe2SFeS2FeS2FeSFeS3H2FeC3FeSFeS3C11H4C6H4C3H2C6H4C2H6C2H3NHCSFeHCH2NC8H13CSCH3C3HCH5CHCHCNC9H15C3HCH6NH2CSCHCH5SHNC7H2CH4CHCHCH3FeHCS2H2C3HC4HC2HSFeSFeSFeS2FeS2FeS2FeSFeS3CH2CH2FeSFeS3H2SHSC6H4C6H4C3H2C6H4CHCH5CH2CH3CSHNC4FeCHCH9CH2NC4H2CHCH8CHFeNC9H11C3NC9H14CH2NC5H6CH5C5HCHC5HCHC2H2CHFeNH3SC2SHSFeSFeSHFeS2FeS2FeSFeS3FeS2FeS2C4H3C10H4C6H4C2H3FeHCHCH3C7H4C3HCHNC4H10NC6SCH2CHCH3NCHCH4NC5H2C2H11NH6CHCHCH7CFeH5C2HC2HC2HC2HC3HC2HNCHC2H8CH2CHCHC2H2CHCHSHCHCHCH2CH2FeSHSCHSFeSHSFeSFeS2FeS2FeS2FeSFeS3FeS2FeS2C2HC2HC3HSC6H4C6H4C2H2CH5CHCHC6H6C3HNC9H9C3HC3HCH6CNCH3C2FeH8FeNFeH2NC2HSCHCH2C3HFeCHCH2CH3CHSHCH2CHCH3CH7C2H2CH2CHNHC3HNS2H2C8HC2HCHC2H2SH2CHCHCNH2CH2C2H3CFeSCFeSHCHCH2SFeSHFeS3HCHNC3HC2H2C2HC3S2C3NH8C3FeH3SCHFeC2H2CSH4CHCHSC2SC3SC2HNCHCH3C5HC2HC2H2C2H3CH5CHC2H2CSH2C4HFeH2FeCSH3CHCH2SFeSHCH3FeSCFeSHSCHSH2FeSHFeSH3CH3CHS2CHCS3HC3SH6C4SCSH4CH2CH2CSH4C3H2CFeH2C2HCH4CNC9H3CNH2CHSHC2SHCH4FeNCHCFeH4CHC4H2CH4C3HSHC2FeSHFeS2CH2NCFeSHFeSFeHCH8CS2CFeH2CHC4HFeHC2SH2C2HC4HSCSH6C2HNHCHC5NHCH5CH3CH2SC2HSC4HSHCSC2HCH5CH2C2HSCHCHC2HSCNH3C2HSCH2CHCHCFeSHFeSC3HCNFeSHFeSCH3CH3SCHC2FeC2H2SC2NH2C4H2SCH3CHSHSCSC2H4CHCHC2HCH5CSC3HSHCHCFeNC2HCSCHC3HCH2CHCH4CHCHSFeC2H2CSH2C3HFeCH4CH2CSHCSHSH2Fe2HSFeS2FeCFeNS2H2C3HC2FeSFeS3FeS2FeS2FeSFeS3C2H3C6H4C6H4CHNCH2CSC2HC2H2C6H4C3H4SHSC4H2C2H2CH3SH2CH2CNC7HNH9CHCH2CH3NC9H14C3HFeCNHCHC2HCSCH2CHC2H4C2H6C3H5CNH2CHSFeHC2H6C4HSH2CHSCFeS2FeS2FeHFeCS2H4SCH2FeSFeS3FeS2FeS2FeSFeS3HCH3C6H4C6H4C3HFeH2C2HCH4C6H4CH2C3H3C2HCNC6H11CNHSC3NC9H14NC2HCHCHCH4CH3SHCH3C2HCHCHC3HCFeH2C3HCSCH3C2SHCH3C2H2CHC2H2C2H2C2HNC2HNHCHCH3CH3NC2HCH2NCH3C2HCHCHCH6CH2CHC2HSCHFeS2FeHSFeCFeCS3H4CHFeSFeS3FeS2FeS2FeSFeS3HCH3C6H4C6H4CH2NCNH3CH5C6H5C2HC4HC4HSHNC9H14NC7H10C2H3CHCH2C5H2CHC3H4CH6CH2FeH2CNHC2H2CHCHCHCH3CHCSH6CHC3HCHCHNC4SHSHSHCH3C2SHFeH3C3HSCFeS2FeCSFeCFeHS2C2HCH3FeSFeS3FeS2FeS2FeSFeS3HC2H2C6H4C6H4C3HSCHCHSH5C6H4CSH2C3H3NC9H14NC4H2SH4CHC3HC2NHCH6CHCHFeCH2C2H4CH2C6H3CHCHCSH3CHC2HNC2H5CHC5HCNC2H5C2H3CHFeH2CHNCH4CH5C3SHSH
_chemical_formula_sum              "H1152 S256 C960 Fe128 N64"
_cell_length_a       55.3202
_cell_length_b       55.4345
_cell_length_c       48.7376
_cell_angle_alpha    90.401
_cell_angle_beta     90.4939
_cell_angle_gamma    88.8124

_space_group_name_H-M_alt    "P 1"
_space_group_IT_number       1

loop_
  _space_group_symop_operation_xyz
  'x, y, z'

loop_
  _atom_site_type_symbol
  _atom_site_label
  _atom_site_symmetry_multiplicity
  _atom_site_fract_x
  _atom_site_fract_y
  _atom_site_fract_z
  _atom_site_occupancy
  H   H1        1.0  0.26226  0.13545  0.19494  1.0000
  S   S1        1.0  0.28090  0.09540  0.28872  1.0000
  C   C1        1.0  0.27237  0.14407  0.17817  1.0000
  S   S2        1.0  0.28863  0.09476  0.22103  1.0000
  Fe  Fe1       1.0  0.26822  0.11767  0.25217  1.0000
  S   S3        1.0  0.23059  0.13102  0.23841  1.0000
  Fe  Fe2       1.0  0.30334  0.07419  0.25768  1.0000
  Fe  Fe3       1.0  0.21346  0.39951  0.01816  1.0000
  S   S4        1.0  0.29767  0.14441  0.25660  1.0000
  Fe  Fe4       1.0  0.13375  0.30386  0.28221  1.0000
  S   S5        1.0  0.11757  0.26764  0.28938  1.0000
  S   S6        1.0  0.13977  0.33468  0.31282  1.0000
  Fe  Fe5       1.0  0.14437  0.29247  0.22136  1.0000
  S   S7        1.0  0.12944  0.25502  0.22435  1.0000
  S   S8        1.0  0.16792  0.30911  0.18820  1.0000
  Fe  Fe6       1.0  0.09868  0.27270  0.24852  1.0000
  S   S9        1.0  0.06052  0.25849  0.23889  1.0000
  Fe  Fe7       1.0  0.14895  0.25241  0.26499  1.0000
  S   S10       1.0  0.17238  0.22289  0.28480  1.0000
  S   S11       1.0  0.11267  0.31038  0.24280  1.0000
  S   S12       1.0  0.16599  0.28836  0.26052  1.0000
  H   H2        1.0  0.30808  0.11700  0.41743  1.0000
  H   H3        1.0  0.26782  0.13401  0.15914  1.0000
  Fe  Fe8       1.0  0.31221  0.12113  0.29083  1.0000
  C   C2        1.0  0.30634  0.19992  0.10900  1.0000
  C   C3        1.0  0.26150  0.24080  0.02976  1.0000
  C   C4        1.0  0.17188  0.47168  0.43416  1.0000
  Fe  Fe9       1.0  0.18356  0.35624  0.03611  1.0000
  S   S13       1.0  0.15366  0.34211  0.06355  1.0000
  Fe  Fe10      1.0  0.19116  0.34325  0.47154  1.0000
  S   S14       1.0  0.17866  0.31919  0.43586  1.0000
  S   S15       1.0  0.21709  0.37289  0.05304  1.0000
  S   S16       1.0  0.21767  0.37347  0.46983  1.0000
  C   C5        1.0  0.23287  0.27228  0.04283  1.0000
  C   C6        1.0  0.25063  0.24621  0.07753  1.0000
  C   C7        1.0  0.27218  0.18108  0.20367  1.0000
  C   C8        1.0  0.26374  0.23392  0.05711  1.0000
  C   C9        1.0  0.07475  0.24814  0.34161  1.0000
  C   C10       1.0  0.15098  0.33020  0.34687  1.0000
  C   C11       1.0  0.15522  0.30709  0.35747  1.0000
  C   C12       1.0  0.16367  0.30420  0.38468  1.0000
  C   C13       1.0  0.16819  0.32431  0.40164  1.0000
  C   C14       1.0  0.16425  0.34745  0.39096  1.0000
  C   C15       1.0  0.15561  0.35034  0.36377  1.0000
  H   H4        1.0  0.15177  0.29141  0.34479  1.0000
  H   H5        1.0  0.16659  0.28621  0.39268  1.0000
  H   H6        1.0  0.16760  0.36308  0.40373  1.0000
  H   H7        1.0  0.15236  0.36830  0.35584  1.0000
  C   C16       1.0  0.16284  0.31872  0.15387  1.0000
  C   C17       1.0  0.18099  0.33177  0.14088  1.0000
  C   C18       1.0  0.17821  0.33946  0.11348  1.0000
  C   C19       1.0  0.15733  0.33392  0.09857  1.0000
  C   C20       1.0  0.13899  0.32117  0.11167  1.0000
  C   C21       1.0  0.14170  0.31358  0.13917  1.0000
  H   H8        1.0  0.19726  0.33613  0.15216  1.0000
  H   H9        1.0  0.19225  0.34964  0.10388  1.0000
  H   H10       1.0  0.12270  0.31689  0.10036  1.0000
  H   H11       1.0  0.12756  0.30358  0.14886  1.0000
  C   C22       1.0  0.03046  0.26642  0.24962  1.0000
  C   C23       1.0  0.01099  0.25248  0.24017  1.0000
  C   C24       1.0  0.02535  0.28627  0.26667  1.0000
  H   H12       1.0  0.01460  0.23708  0.22696  1.0000
  H   H13       1.0  0.03999  0.29722  0.27418  1.0000
  C   C25       1.0  0.21580  0.15778  0.25043  1.0000
  C   C26       1.0  0.19575  0.16720  0.23572  1.0000
  C   C27       1.0  0.18297  0.18791  0.24515  1.0000
  C   C28       1.0  0.18979  0.19904  0.26981  1.0000
  C   C29       1.0  0.20987  0.18965  0.28441  1.0000
  C   C30       1.0  0.22305  0.16939  0.27458  1.0000
  H   H14       1.0  0.18985  0.15822  0.21714  1.0000
  H   H15       1.0  0.16740  0.19474  0.23387  1.0000
  H   H16       1.0  0.21516  0.19796  0.30364  1.0000
  H   H17       1.0  0.23835  0.16229  0.28619  1.0000
  C   C31       1.0  0.30095  0.00451  0.25920  1.0000
  C   C32       1.0  0.27646  0.00144  0.26499  1.0000
  H   H18       1.0  0.26178  0.17249  0.22038  1.0000
  H   H19       1.0  0.26477  0.01713  0.26779  1.0000
  H   H20       1.0  0.21694  0.29616  0.40249  1.0000
  H   H21       1.0  0.27229  0.23178  0.01414  1.0000
  H   H22       1.0  0.13398  0.47895  0.37967  1.0000
  H   H23       1.0  0.22190  0.28758  0.03644  1.0000
  C   C33       1.0  0.24021  0.17344  0.17152  1.0000
  C   C34       1.0  0.14697  0.48358  0.39554  1.0000
  H   H24       1.0  0.30422  0.26239  0.49586  1.0000
  H   H25       1.0  0.19085  0.29165  0.06633  1.0000
  H   H26       1.0  0.31703  0.20646  0.09215  1.0000
  N   N1        1.0  0.22132  0.28012  0.09187  1.0000
  H   H27       1.0  0.27611  0.21929  0.06249  1.0000
  C   C35       1.0  0.30119  0.28763  0.04046  1.0000
  S   S17       1.0  0.31419  0.03360  0.25610  1.0000
  Fe  Fe11      1.0  0.31881  0.12078  0.22755  1.0000
  H   H28       1.0  0.04583  0.25277  0.31221  1.0000
  C   C36       1.0  0.31668  0.24983  0.42319  1.0000
  H   H29       1.0  0.23027  0.26713  0.39659  1.0000
  H   H30       1.0  0.18412  0.28918  0.10165  1.0000
  N   N2        1.0  0.10089  0.19167  0.28717  1.0000
  C   C37       1.0  0.10829  0.20319  0.26131  1.0000
  C   C38       1.0  0.12201  0.17751  0.29789  1.0000
  C   C39       1.0  0.08141  0.17437  0.28090  1.0000
  C   C40       1.0  0.09198  0.21059  0.30644  1.0000
  C   C41       1.0  0.07048  0.22405  0.30035  1.0000
  C   C42       1.0  0.10464  0.21698  0.33089  1.0000
  C   C43       1.0  0.06203  0.24247  0.31773  1.0000
  C   C44       1.0  0.09600  0.23544  0.34817  1.0000
  H   H31       1.0  0.29168  0.17848  0.20916  1.0000
  H   H32       1.0  0.09319  0.21360  0.25140  1.0000
  H   H33       1.0  0.12312  0.21603  0.26528  1.0000
  H   H34       1.0  0.11510  0.18971  0.24605  1.0000
  H   H35       1.0  0.13808  0.18901  0.30105  1.0000
  H   H36       1.0  0.12803  0.16314  0.28323  1.0000
  H   H37       1.0  0.11778  0.16863  0.31763  1.0000
  H   H38       1.0  0.07390  0.16689  0.30011  1.0000
  H   H39       1.0  0.06619  0.18279  0.26911  1.0000
  H   H40       1.0  0.08807  0.15896  0.26807  1.0000
  H   H41       1.0  0.06036  0.22101  0.28162  1.0000
  H   H42       1.0  0.12160  0.20844  0.33682  1.0000
  H   H43       1.0  0.31420  0.02515  0.19197  1.0000
  C   C45       1.0  0.29689  0.19981  0.15745  1.0000
  S   S18       1.0  0.26800  0.32531  0.04216  1.0000
  C   C46       1.0  0.21378  0.46923  0.01654  1.0000
  H   H44       1.0  0.22548  0.31512  0.07322  1.0000
  H   H45       1.0  0.22970  0.44725  0.49657  1.0000
  H   H46       1.0  0.14898  0.44751  0.41178  1.0000
  C   C47       1.0  0.28015  0.18091  0.15356  1.0000
  C   C48       1.0  0.00119  0.29215  0.27388  1.0000
  C   C49       1.0  0.23032  0.30514  0.09230  1.0000
  H   H47       1.0  0.27262  0.01361  0.20272  1.0000
  C   C50       1.0  0.29514  0.23772  0.41910  1.0000
  H   H48       1.0  0.03807  0.29081  0.14362  1.0000
  H   H49       1.0  0.03135  0.28840  0.19363  1.0000
  H   H50       1.0  0.27321  0.29558  0.50174  1.0000
  H   H51       1.0  0.06839  0.26275  0.35477  1.0000
  H   H52       1.0  0.10617  0.24035  0.36642  1.0000
  C   C51       1.0  0.27702  0.17217  0.12631  1.0000
  H   H53       1.0  0.24344  0.27735  0.47021  1.0000
  C   C52       1.0  0.02045  0.29546  0.15193  1.0000
  H   H54       1.0  0.24308  0.27103  0.12742  1.0000
  C   C53       1.0  0.30863  0.00674  0.18835  1.0000
  N   N3        1.0  0.16477  0.37446  0.24118  1.0000
  C   C54       1.0  0.17217  0.34889  0.24503  1.0000
  C   C55       1.0  0.18434  0.38957  0.25265  1.0000
  C   C56       1.0  0.14270  0.37951  0.25761  1.0000
  C   C57       1.0  0.15975  0.37870  0.21165  1.0000
  C   C58       1.0  0.13990  0.36749  0.19844  1.0000
  C   C59       1.0  0.17477  0.39296  0.19493  1.0000
  C   C60       1.0  0.13515  0.37064  0.17046  1.0000
  C   C61       1.0  0.16995  0.39581  0.16687  1.0000
  C   C62       1.0  0.15018  0.38470  0.15468  1.0000
  H   H55       1.0  0.15778  0.33651  0.23827  1.0000
  H   H56       1.0  0.18844  0.34400  0.23271  1.0000
  H   H57       1.0  0.17609  0.34467  0.26698  1.0000
  H   H58       1.0  0.20208  0.38509  0.24303  1.0000
  H   H59       1.0  0.18700  0.38645  0.27507  1.0000
  H   H60       1.0  0.18009  0.40912  0.24993  1.0000
  H   H61       1.0  0.12826  0.36624  0.25362  1.0000
  H   H62       1.0  0.14640  0.37818  0.28008  1.0000
  H   H63       1.0  0.13512  0.39786  0.25338  1.0000
  H   H64       1.0  0.12840  0.35542  0.20942  1.0000
  H   H65       1.0  0.19060  0.40176  0.20287  1.0000
  H   H66       1.0  0.12029  0.36132  0.16070  1.0000
  H   H67       1.0  0.18186  0.40632  0.15430  1.0000
  H   H68       1.0  0.14689  0.38637  0.13278  1.0000
  H   H69       1.0  0.18821  0.26230  0.08138  1.0000
  C   C63       1.0  0.24600  0.25988  0.02262  1.0000
  C   C64       1.0  0.29010  0.18143  0.10448  1.0000
  C   C65       1.0  0.22398  0.27036  0.12009  1.0000
  H   H70       1.0  0.29583  0.99985  0.32893  1.0000
  C   C66       1.0  0.00147  0.30238  0.13451  1.0000
  H   H71       1.0  0.23509  0.19287  0.16953  1.0000
  H   H72       1.0  0.22959  0.16603  0.18879  1.0000
  H   H73       1.0  0.31915  0.11298  0.15377  1.0000
  H   H74       1.0  0.25965  0.32411  0.41893  1.0000
  H   H75       1.0  0.23403  0.16385  0.15273  1.0000
  H   H76       1.0  0.29191  0.14091  0.18251  1.0000
  N   N4        1.0  0.26657  0.17025  0.17642  1.0000
  H   H77       1.0  0.99756  0.30766  0.28692  1.0000
  H   H78       1.0  0.30633  0.11496  0.36640  1.0000
  C   C67       1.0  0.30964  0.28101  0.49604  1.0000
  S   S19       1.0  0.20351  0.33005  0.00841  1.0000
  C   C68       1.0  0.23476  0.26590  0.07090  1.0000
  H   H79       1.0  0.28839  0.17359  0.08410  1.0000
  C   C69       1.0  0.19509  0.28078  0.08496  1.0000
  H   H80       1.0  0.22280  0.31594  0.10960  1.0000
  H   H81       1.0  0.25042  0.30532  0.09420  1.0000
  H   H82       1.0  0.21754  0.25152  0.12117  1.0000
  H   H83       1.0  0.21312  0.28116  0.13520  1.0000
  H   H84       1.0  0.25359  0.24020  0.09832  1.0000
  S   S20       1.0  0.17824  0.38433  0.00273  1.0000
  H   H85       1.0  0.25678  0.24007  0.41710  1.0000
  N   N5        1.0  0.24798  0.28814  0.42830  1.0000
  C   C70       1.0  0.23359  0.27694  0.45021  1.0000
  C   C71       1.0  0.24975  0.31426  0.43500  1.0000
  C   C72       1.0  0.23459  0.28609  0.40189  1.0000
  C   C73       1.0  0.27175  0.27547  0.42611  1.0000
  C   C74       1.0  0.27298  0.25030  0.42039  1.0000
  C   C75       1.0  0.29412  0.28734  0.42975  1.0000
  C   C76       1.0  0.01668  0.29420  0.18008  1.0000
  H   H86       1.0  0.26740  0.20065  0.20443  1.0000
  H   H87       1.0  0.17823  0.45790  0.44843  1.0000
  C   C77       1.0  0.99397  0.30001  0.19091  1.0000
  H   H88       1.0  0.21590  0.28653  0.45312  1.0000
  H   H89       1.0  0.22923  0.25789  0.44555  1.0000
  H   H90       1.0  0.25886  0.31724  0.45517  1.0000
  H   H91       1.0  0.23157  0.32319  0.43651  1.0000
  C   C78       1.0  0.15536  0.46583  0.41359  1.0000
  H   H92       1.0  0.24521  0.29349  0.38469  1.0000
  C   C79       1.0  0.30963  0.20916  0.13538  1.0000
  H   H93       1.0  0.29516  0.30635  0.43454  1.0000
  C   C80       1.0  0.28664  0.30368  0.02490  1.0000
  H   H94       1.0  0.00443  0.30304  0.11257  1.0000
  H   H95       1.0  0.30094  0.20729  0.17744  1.0000
  H   H96       1.0  0.26494  0.15758  0.12178  1.0000
  Fe  Fe12      1.0  0.23701  0.34800  0.02377  1.0000
  H   H97       1.0  0.29566  0.21841  0.41510  1.0000
  C   C81       1.0  0.31617  0.27459  0.42821  1.0000
  S   S21       1.0  0.22375  0.43929  0.02541  1.0000
  S   S22       1.0  0.27861  0.34910  0.50146  1.0000
  H   H98       1.0  0.99193  0.29826  0.21278  1.0000
  H   H99       1.0  0.24323  0.48569  0.03847  1.0000
  C   C82       1.0  0.22688  0.48628  0.49964  1.0000
  C   C83       1.0  0.21790  0.46259  0.50089  1.0000
  C   C84       1.0  0.31717  0.12843  0.37656  1.0000
  H   H100      1.0  0.30051  0.28847  0.06262  1.0000
  C   C85       1.0  0.31677  0.27063  0.02758  1.0000
  C   C86       1.0  0.31824  0.12961  0.40549  1.0000
  C   C87       1.0  0.28512  0.00018  0.19438  1.0000
  C   C88       1.0  0.29198  0.29981  0.49882  1.0000
  H   H101      1.0  0.32013  0.11649  0.10299  1.0000
  C   C89       1.0  0.29889  0.32408  0.49804  1.0000
  C   C90       1.0  0.31213  0.98873  0.32718  1.0000
  H   H102      1.0  0.24440  0.21140  0.72976  1.0000
  S   S23       1.0  0.27844  0.09770  0.78795  1.0000
  Fe  Fe13      1.0  0.31168  0.11882  0.77836  1.0000
  S   S24       1.0  0.27521  0.08530  0.72195  1.0000
  Fe  Fe14      1.0  0.26270  0.11568  0.74994  1.0000
  S   S25       1.0  0.22470  0.13072  0.74077  1.0000
  Fe  Fe15      1.0  0.29373  0.06905  0.75895  1.0000
  S   S26       1.0  0.30387  0.02944  0.76935  1.0000
  S   S27       1.0  0.29492  0.13865  0.74228  1.0000
  Fe  Fe16      1.0  0.13076  0.30602  0.79383  1.0000
  S   S28       1.0  0.12136  0.26682  0.79297  1.0000
  S   S29       1.0  0.12569  0.32571  0.83512  1.0000
  Fe  Fe17      1.0  0.13872  0.30598  0.73084  1.0000
  S   S30       1.0  0.12984  0.26660  0.72635  1.0000
  S   S31       1.0  0.15070  0.33212  0.69742  1.0000
  Fe  Fe18      1.0  0.09873  0.27511  0.75542  1.0000
  S   S32       1.0  0.06183  0.25623  0.75313  1.0000
  Fe  Fe19      1.0  0.15287  0.26148  0.76444  1.0000
  S   S33       1.0  0.18271  0.23418  0.77624  1.0000
  S   S34       1.0  0.10630  0.31480  0.75756  1.0000
  S   S35       1.0  0.16349  0.30044  0.76746  1.0000
  C   C91       1.0  0.32086  0.20978  0.85624  1.0000
  H   H103      1.0  0.28685  0.24334  0.90606  1.0000
  H   H104      1.0  0.01187  0.32776  0.85682  1.0000
  C   C92       1.0  0.30362  0.28578  0.98342  1.0000
  H   H105      1.0  0.03961  0.26253  0.81686  1.0000
  H   H106      1.0  0.30205  0.24213  0.93882  1.0000
  Fe  Fe20      1.0  0.19228  0.34243  0.53562  1.0000
  S   S36       1.0  0.17656  0.31961  0.57012  1.0000
  Fe  Fe21      1.0  0.20139  0.35926  0.97650  1.0000
  S   S37       1.0  0.20184  0.35194  0.93004  1.0000
  S   S38       1.0  0.21911  0.37238  0.53801  1.0000
  S   S39       1.0  0.23648  0.37583  0.99052  1.0000
  H   H107      1.0  0.28339  0.21804  0.92855  1.0000
  H   H108      1.0  0.10646  0.35784  0.66395  1.0000
  S   S40       1.0  0.21280  0.32195  0.50288  1.0000
  H   H109      1.0  0.99835  0.24835  0.81274  1.0000
  S   S41       1.0  0.18087  0.42948  0.50823  1.0000
  C   C93       1.0  0.14717  0.33160  0.86174  1.0000
  C   C94       1.0  0.17210  0.32916  0.85766  1.0000
  C   C95       1.0  0.18844  0.33521  0.87892  1.0000
  C   C96       1.0  0.18015  0.34332  0.90471  1.0000
  C   C97       1.0  0.15521  0.34539  0.90895  1.0000
  C   C98       1.0  0.13885  0.33975  0.88751  1.0000
  H   H110      1.0  0.17882  0.32303  0.83798  1.0000
  H   H111      1.0  0.20767  0.33358  0.87533  1.0000
  H   H112      1.0  0.14852  0.35173  0.92856  1.0000
  H   H113      1.0  0.11964  0.34182  0.89092  1.0000
  C   C99       1.0  0.16004  0.32702  0.66286  1.0000
  C   C100      1.0  0.17276  0.34513  0.64932  1.0000
  C   C101      1.0  0.17883  0.34282  0.62130  1.0000
  C   C102      1.0  0.17167  0.32259  0.60619  1.0000
  C   C103      1.0  0.15944  0.30422  0.61988  1.0000
  C   C104      1.0  0.15377  0.30632  0.64804  1.0000
  H   H114      1.0  0.17776  0.36120  0.66056  1.0000
  H   H115      1.0  0.18881  0.35678  0.61142  1.0000
  H   H116      1.0  0.15391  0.28841  0.60850  1.0000
  H   H117      1.0  0.14392  0.29226  0.65804  1.0000
  C   C105      1.0  0.03112  0.26734  0.75408  1.0000
  C   C106      1.0  0.02518  0.29191  0.75684  1.0000
  C   C107      1.0  0.01208  0.25081  0.75284  1.0000
  H   H118      1.0  0.03939  0.30499  0.75695  1.0000
  H   H119      1.0  0.01627  0.23177  0.75046  1.0000
  C   C108      1.0  0.21464  0.16051  0.74892  1.0000
  C   C109      1.0  0.22543  0.17385  0.76998  1.0000
  C   C110      1.0  0.21565  0.19658  0.77755  1.0000
  C   C111      1.0  0.19532  0.20650  0.76384  1.0000
  C   C112      1.0  0.18515  0.19362  0.74196  1.0000
  C   C113      1.0  0.19458  0.17058  0.73481  1.0000
  H   H120      1.0  0.24083  0.16632  0.78103  1.0000
  H   H121      1.0  0.22370  0.20642  0.79445  1.0000
  H   H122      1.0  0.16974  0.20111  0.73099  1.0000
  H   H123      1.0  0.18614  0.16041  0.71846  1.0000
  C   C114      1.0  0.29083  0.00023  0.76640  1.0000
  H   H124      1.0  0.10958  0.40448  0.55266  1.0000
  C   C115      1.0  0.11760  0.39183  0.64767  1.0000
  H   H125      1.0  0.25574  0.01229  0.75216  1.0000
  H   H126      1.0  0.11330  0.33559  0.62057  1.0000
  H   H127      1.0  0.18335  0.42674  0.89999  1.0000
  H   H128      1.0  0.27061  0.32963  0.55793  1.0000
  H   H129      1.0  0.11501  0.40131  0.66699  1.0000
  C   C116      1.0  0.28767  0.30242  0.99627  1.0000
  H   H130      1.0  0.26968  0.16329  0.86117  1.0000
  H   H131      1.0  0.19702  0.46417  0.89246  1.0000
  C   C117      1.0  0.20854  0.46968  0.90923  1.0000
  H   H132      1.0  0.28131  0.24484  0.58803  1.0000
  H   H133      1.0  0.31701  0.24191  0.61139  1.0000
  H   H134      1.0  0.21933  0.23902  0.70141  1.0000
  C   C118      1.0  0.11642  0.35483  0.62151  1.0000
  S   S42       1.0  0.16860  0.36142  0.50429  1.0000
  H   H135      1.0  0.15988  0.47663  0.51774  1.0000
  N   N6        1.0  0.05534  0.30501  0.83959  1.0000
  C   C119      1.0  0.07184  0.28641  0.85179  1.0000
  C   C120      1.0  0.06336  0.31013  0.81135  1.0000
  C   C121      1.0  0.05793  0.32746  0.85615  1.0000
  C   C122      1.0  0.03027  0.29619  0.83824  1.0000
  Fe  Fe22      1.0  0.19675  0.39069  0.50476  1.0000
  C   C123      1.0  0.23390  0.46248  0.94924  1.0000
  H   H136      1.0  0.24190  0.45101  0.96488  1.0000
  C   C124      1.0  0.11256  0.36736  0.64598  1.0000
  H   H137      1.0  0.07407  0.27020  0.83848  1.0000
  H   H138      1.0  0.09049  0.29328  0.85484  1.0000
  H   H139      1.0  0.06523  0.28057  0.87214  1.0000
  H   H140      1.0  0.06441  0.29355  0.79841  1.0000
  H   H141      1.0  0.08160  0.31808  0.81122  1.0000
  H   H142      1.0  0.05080  0.32318  0.80101  1.0000
  H   H143      1.0  0.04810  0.34303  0.84664  1.0000
  H   H144      1.0  0.05151  0.32499  0.87750  1.0000
  H   H145      1.0  0.07720  0.33298  0.85767  1.0000
  C   C125      1.0  0.29657  0.30110  0.56678  1.0000
  H   H146      1.0  0.30481  0.28555  0.96129  1.0000
  H   H147      1.0  0.31605  0.18690  0.93244  1.0000
  N   N7        1.0  0.21513  0.42661  0.92616  1.0000
  C   C126      1.0  0.20035  0.41983  0.94997  1.0000
  C   C127      1.0  0.20205  0.41899  0.90086  1.0000
  C   C128      1.0  0.23837  0.41269  0.92714  1.0000
  C   C129      1.0  0.21953  0.45285  0.92767  1.0000
  H   H148      1.0  0.31390  0.23007  0.56343  1.0000
  H   H149      1.0  0.23511  0.30551  0.56982  1.0000
  C   C130      1.0  0.32207  0.00026  0.66665  1.0000
  H   H150      1.0  0.20953  0.22820  0.65331  1.0000
  C   C131      1.0  0.00171  0.26542  0.82291  1.0000
  H   H151      1.0  0.18300  0.43033  0.95051  1.0000
  H   H152      1.0  0.19590  0.40036  0.94930  1.0000
  H   H153      1.0  0.20985  0.42317  0.96980  1.0000
  H   H154      1.0  0.19993  0.39899  0.89998  1.0000
  H   H155      1.0  0.21196  0.42410  0.88208  1.0000
  H   H156      1.0  0.24802  0.41465  0.94709  1.0000
  H   H157      1.0  0.23555  0.39292  0.92463  1.0000
  H   H158      1.0  0.25071  0.41844  0.91063  1.0000
  C   C132      1.0  0.01003  0.31019  0.84748  1.0000
  H   H159      1.0  0.28907  0.17062  0.81657  1.0000
  Fe  Fe23      1.0  0.30818  0.10768  0.71607  1.0000
  N   N8        1.0  0.25144  0.15420  0.65831  1.0000
  C   C133      1.0  0.26589  0.15835  0.63330  1.0000
  C   C134      1.0  0.26663  0.13935  0.67721  1.0000
  C   C135      1.0  0.23001  0.13980  0.65092  1.0000
  C   C136      1.0  0.24337  0.17761  0.67033  1.0000
  C   C137      1.0  0.24882  0.18460  0.69780  1.0000
  C   C138      1.0  0.22911  0.19408  0.65452  1.0000
  C   C139      1.0  0.24040  0.20663  0.70859  1.0000
  C   C140      1.0  0.22065  0.21601  0.66561  1.0000
  C   C141      1.0  0.22622  0.22221  0.69264  1.0000
  H   H160      1.0  0.28125  0.17048  0.63789  1.0000
  H   H161      1.0  0.27392  0.14121  0.62496  1.0000
  H   H162      1.0  0.25503  0.16658  0.61643  1.0000
  H   H163      1.0  0.28336  0.14882  0.68335  1.0000
  H   H164      1.0  0.27262  0.12197  0.66755  1.0000
  H   H165      1.0  0.25657  0.13443  0.69593  1.0000
  H   H166      1.0  0.21843  0.14870  0.63509  1.0000
  H   H167      1.0  0.23536  0.12171  0.64260  1.0000
  H   H168      1.0  0.21860  0.13684  0.66934  1.0000
  H   H169      1.0  0.25911  0.17317  0.71166  1.0000
  H   H170      1.0  0.22414  0.18996  0.63355  1.0000
  C   C142      1.0  0.00078  0.29964  0.75962  1.0000
  C   C143      1.0  0.26701  0.99682  0.75752  1.0000
  C   C144      1.0  0.25644  0.27377  0.57981  1.0000
  N   N9        1.0  0.10768  0.19149  0.77102  1.0000
  C   C145      1.0  0.11843  0.20971  0.75301  1.0000
  C   C146      1.0  0.08495  0.18341  0.75766  1.0000
  C   C147      1.0  0.10096  0.20327  0.79742  1.0000
  C   C148      1.0  0.12568  0.17174  0.77571  1.0000
  C   C149      1.0  0.14724  0.17615  0.79080  1.0000
  C   C150      1.0  0.12322  0.14823  0.76422  1.0000
  C   C151      1.0  0.16508  0.15820  0.79431  1.0000
  C   C152      1.0  0.14136  0.13048  0.76762  1.0000
  C   C153      1.0  0.16228  0.13549  0.78251  1.0000
  H   H171      1.0  0.12425  0.20158  0.73313  1.0000
  H   H172      1.0  0.10533  0.22468  0.74837  1.0000
  H   H173      1.0  0.13466  0.21795  0.76254  1.0000
  H   H174      1.0  0.08818  0.17649  0.73649  1.0000
  H   H175      1.0  0.07154  0.19863  0.75537  1.0000
  H   H176      1.0  0.07618  0.16921  0.76991  1.0000
  H   H177      1.0  0.11636  0.21267  0.80726  1.0000
  H   H178      1.0  0.08658  0.21745  0.79448  1.0000
  H   H179      1.0  0.09425  0.18983  0.81225  1.0000
  H   H180      1.0  0.15107  0.19385  0.79905  1.0000
  H   H181      1.0  0.10769  0.14319  0.75211  1.0000
  H   H182      1.0  0.18170  0.16226  0.80523  1.0000
  H   H183      1.0  0.13944  0.11281  0.75826  1.0000
  H   H184      1.0  0.17667  0.12197  0.78435  1.0000
  C   C154      1.0  0.25320  0.29760  0.57144  1.0000
  H   H185      1.0  0.31110  0.31261  0.56079  1.0000
  H   H186      1.0  0.30826  0.11880  0.85265  1.0000
  N   N10       1.0  0.14275  0.40311  0.57607  1.0000
  C   C155      1.0  0.16748  0.39283  0.57291  1.0000
  C   C156      1.0  0.12876  0.39842  0.55048  1.0000
  C   C157      1.0  0.14478  0.42971  0.57898  1.0000
  C   C158      1.0  0.13126  0.39150  0.59979  1.0000
  C   C159      1.0  0.12675  0.40388  0.62497  1.0000
  H   H187      1.0  0.31309  0.06936  0.84886  1.0000
  H   H188      1.0  0.16739  0.37309  0.56861  1.0000
  H   H189      1.0  0.17711  0.40139  0.55573  1.0000
  H   H190      1.0  0.17850  0.39560  0.59184  1.0000
  H   H191      1.0  0.12897  0.37903  0.54456  1.0000
  H   H192      1.0  0.13647  0.40796  0.53257  1.0000
  C   C160      1.0  0.19332  0.47390  0.00014  1.0000
  H   H193      1.0  0.15714  0.43468  0.59617  1.0000
  H   H194      1.0  0.15268  0.43788  0.56028  1.0000
  H   H195      1.0  0.13069  0.42269  0.62792  1.0000
  H   H196      1.0  0.32209  0.19955  0.81342  1.0000
  H   H197      1.0  0.24076  0.26326  0.58472  1.0000
  C   C161      1.0  0.27971  0.26346  0.58171  1.0000
  C   C162      1.0  0.12585  0.36657  0.59882  1.0000
  C   C163      1.0  0.19367  0.45886  0.50741  1.0000
  C   C164      1.0  0.29451  0.18076  0.83463  1.0000
  C   C165      1.0  0.30999  0.20619  0.88221  1.0000
  H   H198      1.0  0.13000  0.35557  0.58098  1.0000
  C   C166      1.0  0.02533  0.27362  0.82567  1.0000
  H   H199      1.0  0.12678  0.43855  0.58217  1.0000
  C   C167      1.0  0.29655  0.23111  0.92067  1.0000
  C   C168      1.0  0.31314  0.19717  0.83290  1.0000
  C   C169      1.0  0.27321  0.31120  0.56494  1.0000
  C   C170      1.0  0.30055  0.27682  0.57533  1.0000
  C   C171      1.0  0.28368  0.17661  0.85979  1.0000
  H   H200      1.0  0.27668  0.31471  0.98407  1.0000
  C   C172      1.0  0.31051  0.99420  0.69082  1.0000
  H   H201      1.0  0.30753  0.00781  0.70669  1.0000
  C   C173      1.0  0.31832  0.26988  0.99895  1.0000
  C   C174      1.0  0.29137  0.18896  0.88330  1.0000
  H   H202      1.0  0.31416  0.11992  0.90318  1.0000
  H   H203      1.0  0.18251  0.45908  0.99298  1.0000
  C   C175      1.0  0.17868  0.47918  0.51281  1.0000
  H   H204      1.0  0.31269  0.06018  0.81367  1.0000
  Fe  Fe24      1.0  0.23780  0.35292  0.50304  1.0000
  N   N11       1.0  0.31771  0.21905  0.90745  1.0000
  H   H205      1.0  0.28292  0.18456  0.90248  1.0000
  H   H206      1.0  0.99661  0.31865  0.76239  1.0000
  H   H207      1.0  0.24485  0.26578  0.00147  1.0000
  S   S43       1.0  0.32275  0.10703  0.67229  1.0000
  C   C176      1.0  0.23720  0.48731  0.95205  1.0000
  C   C177      1.0  0.01471  0.71666  0.37411  1.0000
  S   S44       1.0  0.27838  0.85980  0.29163  1.0000
  H   H208      1.0  0.17597  0.53583  0.12131  1.0000
  S   S45       1.0  0.26939  0.86482  0.22544  1.0000
  Fe  Fe25      1.0  0.28283  0.88899  0.25980  1.0000
  S   S46       1.0  0.26863  0.92801  0.26630  1.0000
  Fe  Fe26      1.0  0.26903  0.83475  0.25652  1.0000
  S   S47       1.0  0.24679  0.80123  0.26498  1.0000
  H   H209      1.0  0.19272  0.49888  0.45314  1.0000
  Fe  Fe27      1.0  0.13864  0.66791  0.22673  1.0000
  S   S48       1.0  0.11147  0.69671  0.21480  1.0000
  S   S49       1.0  0.16088  0.64458  0.19676  1.0000
  Fe  Fe28      1.0  0.13608  0.68159  0.28879  1.0000
  S   S50       1.0  0.10928  0.71189  0.28013  1.0000
  S   S51       1.0  0.15225  0.67953  0.33236  1.0000
  Fe  Fe29      1.0  0.09029  0.68554  0.25211  1.0000
  S   S52       1.0  0.05044  0.67423  0.25666  1.0000
  Fe  Fe30      1.0  0.13272  0.72032  0.24400  1.0000
  S   S53       1.0  0.14461  0.75765  0.23077  1.0000
  S   S54       1.0  0.11652  0.65477  0.26233  1.0000
  S   S55       1.0  0.16053  0.69197  0.25430  1.0000
  Fe  Fe31      1.0  0.17488  0.61246  0.47845  1.0000
  S   S56       1.0  0.21447  0.60227  0.47751  1.0000
  S   S57       1.0  0.15259  0.61177  0.43841  1.0000
  Fe  Fe32      1.0  0.18471  0.63145  0.03164  1.0000
  S   S58       1.0  0.21643  0.60564  0.03477  1.0000
  S   S59       1.0  0.15896  0.64469  0.06549  1.0000
  C   C178      1.0  0.15858  0.55889  0.15049  1.0000
  C   C179      1.0  0.14417  0.57943  0.15494  1.0000
  C   C180      1.0  0.23255  0.72124  0.15077  1.0000
  C   C181      1.0  0.26702  0.97798  0.26710  1.0000
  H   H210      1.0  0.17903  0.53757  0.46676  1.0000
  H   H211      1.0  0.28659  0.90501  0.14662  1.0000
  H   H212      1.0  0.19757  0.55475  0.05006  1.0000
  C   C182      1.0  0.28183  0.95720  0.26358  1.0000
  C   C183      1.0  0.17201  0.51382  0.41870  1.0000
  C   C184      1.0  0.20744  0.53897  0.42248  1.0000
  C   C185      1.0  0.15643  0.56518  0.10062  1.0000
  C   C186      1.0  0.16079  0.64597  0.16029  1.0000
  C   C187      1.0  0.14205  0.65742  0.14562  1.0000
  C   C188      1.0  0.14207  0.65711  0.11666  1.0000
  C   C189      1.0  0.16087  0.64556  0.10196  1.0000
  C   C190      1.0  0.17985  0.63446  0.11663  1.0000
  C   C191      1.0  0.17969  0.63455  0.14562  1.0000
  H   H213      1.0  0.12728  0.66610  0.15655  1.0000
  H   H214      1.0  0.12723  0.66564  0.10554  1.0000
  H   H215      1.0  0.19435  0.62537  0.10566  1.0000
  H   H216      1.0  0.19419  0.62547  0.15676  1.0000
  C   C192      1.0  0.15277  0.65970  0.36103  1.0000
  C   C193      1.0  0.16603  0.66631  0.38461  1.0000
  C   C194      1.0  0.16652  0.65173  0.40827  1.0000
  C   C195      1.0  0.15347  0.63041  0.40878  1.0000
  C   C196      1.0  0.14022  0.62373  0.38518  1.0000
  C   C197      1.0  0.14001  0.63815  0.36137  1.0000
  H   H217      1.0  0.17600  0.68290  0.38461  1.0000
  H   H218      1.0  0.17675  0.65719  0.42620  1.0000
  H   H219      1.0  0.13004  0.60729  0.38532  1.0000
  H   H220      1.0  0.12988  0.63267  0.34339  1.0000
  C   C198      1.0  0.02041  0.68642  0.25200  1.0000
  C   C199      1.0  0.01573  0.70974  0.24220  1.0000
  H   H221      1.0  0.30106  0.92342  0.21847  1.0000
  H   H222      1.0  0.03067  0.72111  0.23704  1.0000
  H   H223      1.0  0.31687  0.79432  0.32262  1.0000
  Fe  Fe33      1.0  0.31686  0.84968  0.28261  1.0000
  H   H224      1.0  0.29457  0.95691  0.33941  1.0000
  C   C200      1.0  0.31576  0.76122  0.41590  1.0000
  H   H225      1.0  0.13469  0.59757  0.08982  1.0000
  C   C201      1.0  0.27804  0.97624  0.19116  1.0000
  H   H226      1.0  0.25785  0.90836  0.18229  1.0000
  H   H227      1.0  0.24995  0.76471  0.34771  1.0000
  H   H228      1.0  0.28541  0.80884  0.38898  1.0000
  C   C202      1.0  0.26196  0.72047  0.07802  1.0000
  C   C203      1.0  0.21804  0.79001  0.25519  1.0000
  C   C204      1.0  0.20191  0.80269  0.23803  1.0000
  C   C205      1.0  0.17933  0.79275  0.23104  1.0000
  C   C206      1.0  0.17267  0.77009  0.24107  1.0000
  C   C207      1.0  0.18887  0.75744  0.25812  1.0000
  C   C208      1.0  0.21138  0.76732  0.26505  1.0000
  H   H229      1.0  0.20676  0.82014  0.23024  1.0000
  H   H230      1.0  0.16696  0.80268  0.21778  1.0000
  H   H231      1.0  0.18407  0.74002  0.26603  1.0000
  H   H232      1.0  0.22369  0.75723  0.27818  1.0000
  C   C209      1.0  0.27163  0.80736  0.33923  1.0000
  C   C210      1.0  0.29358  0.79100  0.38909  1.0000
  C   C211      1.0  0.99163  0.71843  0.23896  1.0000
  H   H233      1.0  0.31116  0.85695  0.40706  1.0000
  C   C212      1.0  0.18011  0.49526  0.43670  1.0000
  H   H234      1.0  0.19820  0.57544  0.07867  1.0000
  N   N12       1.0  0.18830  0.72221  0.16527  1.0000
  C   C213      1.0  0.17158  0.74332  0.16179  1.0000
  C   C214      1.0  0.21358  0.73036  0.16772  1.0000
  C   C215      1.0  0.21997  0.74764  0.18801  1.0000
  C   C216      1.0  0.24358  0.75588  0.19068  1.0000
  H   H235      1.0  0.25445  0.77074  0.31197  1.0000
  H   H236      1.0  0.16298  0.70239  0.18938  1.0000
  H   H237      1.0  0.17642  0.75409  0.14354  1.0000
  H   H238      1.0  0.15244  0.73772  0.15939  1.0000
  H   H239      1.0  0.17158  0.75564  0.17988  1.0000
  H   H240      1.0  0.20674  0.75488  0.20214  1.0000
  H   H241      1.0  0.24785  0.76923  0.20634  1.0000
  H   H242      1.0  0.21478  0.53035  0.40354  1.0000
  H   H243      1.0  0.21436  0.55769  0.42384  1.0000
  H   H244      1.0  0.21553  0.52938  0.44044  1.0000
  N   N13       1.0  0.28299  0.78283  0.33887  1.0000
  C   C217      1.0  0.30430  0.73020  0.08184  1.0000
  C   C218      1.0  0.31576  0.98371  0.25569  1.0000
  C   C219      1.0  0.26223  0.92777  0.18502  1.0000
  C   C220      1.0  0.29421  0.77582  0.36543  1.0000
  C   C221      1.0  0.13536  0.59263  0.13270  1.0000
  C   C222      1.0  0.30604  0.75297  0.36830  1.0000
  S   S60       1.0  0.30780  0.82360  0.24861  1.0000
  C   C223      1.0  0.30470  0.69906  0.48791  1.0000
  H   H245      1.0  0.29177  0.68397  0.44976  1.0000
  H   H246      1.0  0.28148  0.93550  0.13478  1.0000
  C   C224      1.0  0.22737  0.48899  0.02580  1.0000
  H   H247      1.0  0.17795  0.56714  0.45258  1.0000
  C   C225      1.0  0.31151  0.70633  0.07439  1.0000
  H   H248      1.0  0.31575  0.60161  0.46686  1.0000
  H   H249      1.0  0.28524  0.82141  0.34358  1.0000
  H   H250      1.0  0.29396  0.78886  0.29707  1.0000
  N   N14       1.0  0.18059  0.53878  0.42245  1.0000
  C   C226      1.0  0.99909  0.71062  0.35268  1.0000
  H   H251      1.0  0.27121  0.74694  0.32807  1.0000
  C   C227      1.0  0.15484  0.57445  0.05094  1.0000
  H   H252      1.0  0.16146  0.59312  0.05398  1.0000
  H   H253      1.0  0.16082  0.56854  0.03015  1.0000
  H   H254      1.0  0.13474  0.57508  0.05019  1.0000
  H   H255      1.0  0.16101  0.52782  0.04474  1.0000
  N   N15       1.0  0.07398  0.68675  0.35164  1.0000
  C   C228      1.0  0.08897  0.70860  0.35056  1.0000
  C   C229      1.0  0.08043  0.67311  0.37685  1.0000
  C   C230      1.0  0.08057  0.67117  0.32780  1.0000
  C   C231      1.0  0.04807  0.69412  0.35200  1.0000
  C   C232      1.0  0.03155  0.68810  0.33060  1.0000
  H   H256      1.0  0.99541  0.69203  0.31410  1.0000
  H   H257      1.0  0.16546  0.54872  0.16789  1.0000
  C   C233      1.0  0.17188  0.55578  0.40087  1.0000
  C   C234      1.0  0.28966  0.68433  0.47181  1.0000
  H   H258      1.0  0.10858  0.70392  0.34858  1.0000
  H   H259      1.0  0.08374  0.72003  0.33268  1.0000
  H   H260      1.0  0.08724  0.71999  0.36929  1.0000
  H   H261      1.0  0.07820  0.68409  0.39581  1.0000
  H   H262      1.0  0.09975  0.66696  0.37675  1.0000
  H   H263      1.0  0.06913  0.65683  0.37879  1.0000
  H   H264      1.0  0.07038  0.65408  0.32758  1.0000
  H   H265      1.0  0.07704  0.68056  0.30804  1.0000
  H   H266      1.0  0.10017  0.66612  0.32791  1.0000
  H   H267      1.0  0.03676  0.67729  0.31304  1.0000
  H   H268      1.0  0.31349  0.56515  0.49067  1.0000
  N   N16       1.0  0.28786  0.93246  0.17826  1.0000
  H   H269      1.0  0.25828  0.93221  0.20690  1.0000
  H   H270      1.0  0.26054  0.65877  0.47137  1.0000
  H   H271      1.0  0.26409  0.61032  0.49752  1.0000
  H   H272      1.0  0.17764  0.54973  0.38007  1.0000
  H   H273      1.0  0.14008  0.58543  0.17567  1.0000
  H   H274      1.0  0.27503  0.75571  0.08850  1.0000
  C   C235      1.0  0.16453  0.55172  0.12375  1.0000
  H   H275      1.0  0.24307  0.72599  0.07877  1.0000
  C   C236      1.0  0.32015  0.61400  0.48326  1.0000
  H   H276      1.0  0.25686  0.80883  0.35453  1.0000
  C   C237      1.0  0.30156  0.78245  0.31706  1.0000
  H   H277      1.0  0.27829  0.58871  0.47506  1.0000
  H   H278      1.0  0.05038  0.71420  0.39061  1.0000
  H   H279      1.0  0.31829  0.94473  0.25576  1.0000
  H   H280      1.0  0.16476  0.70082  0.13977  1.0000
  H   H281      1.0  0.31175  0.89179  0.32130  1.0000
  H   H282      1.0  0.30724  0.74045  0.35126  1.0000
  H   H283      1.0  0.31995  0.80680  0.17316  1.0000
  C   C238      1.0  0.26165  0.74695  0.17343  1.0000
  Fe  Fe34      1.0  0.30881  0.85489  0.21965  1.0000
  H   H284      1.0  0.31753  0.74379  0.08626  1.0000
  H   H285      1.0  0.24803  0.97596  0.27148  1.0000
  H   H286      1.0  0.00384  0.65396  0.26615  1.0000
  H   H287      1.0  0.29341  0.91841  0.32482  1.0000
  H   H288      1.0  0.27993  0.75344  0.17555  1.0000
  C   C239      1.0  0.00054  0.67203  0.25856  1.0000
  C   C240      1.0  0.25619  0.72954  0.15367  1.0000
  H   H289      1.0  0.27042  0.72236  0.14061  1.0000
  C   C241      1.0  0.31159  0.96407  0.33288  1.0000
  C   C242      1.0  0.30639  0.96029  0.25807  1.0000
  H   H290      1.0  0.19431  0.68820  0.14413  1.0000
  C   C243      1.0  0.29272  0.68959  0.06983  1.0000
  C   C244      1.0  0.18171  0.70936  0.19061  1.0000
  H   H291      1.0  0.13568  0.53261  0.06726  1.0000
  C   C245      1.0  0.27197  0.66997  0.48400  1.0000
  C   C246      1.0  0.03885  0.70864  0.37382  1.0000
  H   H292      1.0  0.24955  0.93825  0.17161  1.0000
  C   C247      1.0  0.00751  0.69640  0.33099  1.0000
  C   C248      1.0  0.18414  0.70563  0.14168  1.0000
  C   C249      1.0  0.15573  0.53342  0.06596  1.0000
  H   H293      1.0  0.19957  0.54343  0.08403  1.0000
  C   C250      1.0  0.14144  0.58584  0.10590  1.0000
  C   C251      1.0  0.15503  0.50730  0.39799  1.0000
  H   H294      1.0  0.18239  0.72129  0.20904  1.0000
  N   N17       1.0  0.16422  0.55800  0.07266  1.0000
  C   C252      1.0  0.19101  0.55789  0.07137  1.0000
  H   H295      1.0  0.19403  0.69357  0.19445  1.0000
  C   C253      1.0  0.26836  0.69670  0.07149  1.0000
  C   C254      1.0  0.17199  0.54832  0.44915  1.0000
  H   H296      1.0  0.16358  0.51950  0.07989  1.0000
  H   H297      1.0  0.12439  0.60878  0.13629  1.0000
  H   H298      1.0  0.25444  0.68370  0.06688  1.0000
  H   H299      1.0  0.15184  0.55822  0.40121  1.0000
  H   H300      1.0  0.31403  0.91584  0.29697  1.0000
  H   H301      1.0  0.18910  0.71399  0.12188  1.0000
  H   H302      1.0  0.17907  0.57426  0.40412  1.0000
  H   H303      1.0  0.15189  0.54856  0.45022  1.0000
  C   C255      1.0  0.31822  0.96549  0.17517  1.0000
  H   H304      1.0  0.22963  0.70759  0.13525  1.0000
  H   H305      1.0  0.31139  0.85941  0.35609  1.0000
  C   C256      1.0  0.29196  0.92415  0.14962  1.0000
  H   H306      1.0  0.25982  0.97236  0.19726  1.0000
  C   C257      1.0  0.27992  0.73717  0.08338  1.0000
  H   H307      1.0  0.29825  0.89827  0.19566  1.0000
  C   C258      1.0  0.26388  0.76552  0.33140  1.0000
  C   C259      1.0  0.22098  0.51295  0.01840  1.0000
  H   H308      1.0  0.26326  0.81201  0.31904  1.0000
  H   H309      1.0  0.31132  0.92457  0.14380  1.0000
  C   C260      1.0  0.30413  0.78362  0.41390  1.0000
  H   H310      1.0  0.00812  0.72788  0.39088  1.0000
  C   C261      1.0  0.31179  0.91175  0.31910  1.0000
  H   H311      1.0  0.24559  0.48883  0.49431  1.0000
  S   S61       1.0  0.27232  0.64352  0.01772  1.0000
  H   H312      1.0  0.29624  0.67100  0.06405  1.0000
  C   C262      1.0  0.31665  0.74586  0.39321  1.0000
  H   H313      1.0  0.14760  0.52019  0.38355  1.0000
  C   C263      1.0  0.30321  0.91753  0.19681  1.0000
  H   H314      1.0  0.30378  0.79559  0.43161  1.0000
  C   C264      1.0  0.29444  0.95811  0.18134  1.0000
  H   H315      1.0  0.30788  0.92741  0.37087  1.0000
  H   H316      1.0  0.30925  0.76411  0.31320  1.0000
  C   C265      1.0  0.27315  0.59221  0.49670  1.0000
  H   H317      1.0  0.23196  0.52776  0.02532  1.0000
  H   H318      1.0  0.27400  0.69609  0.01238  1.0000
  Fe  Fe35      1.0  0.23469  0.63101  0.00552  1.0000
  S   S62       1.0  0.20378  0.65772  0.00483  1.0000
  H   H319      1.0  0.32272  0.91805  0.19169  1.0000
  S   S63       1.0  0.32204  0.88016  0.25292  1.0000
  C   C266      1.0  0.28979  0.68810  0.00274  1.0000
  H   H320      1.0  0.25946  0.57846  0.50175  1.0000
  S   S64       1.0  0.22388  0.53614  0.50147  1.0000
  Fe  Fe36      1.0  0.30264  0.84205  0.78529  1.0000
  S   S65       1.0  0.26329  0.85362  0.78742  1.0000
  H   H321      1.0  0.24183  0.76423  0.78017  1.0000
  S   S66       1.0  0.26623  0.86334  0.72073  1.0000
  Fe  Fe37      1.0  0.27416  0.88445  0.75954  1.0000
  S   S67       1.0  0.25910  0.92352  0.75896  1.0000
  Fe  Fe38      1.0  0.25865  0.83196  0.74837  1.0000
  S   S68       1.0  0.23372  0.80148  0.73541  1.0000
  S   S69       1.0  0.29737  0.81888  0.74767  1.0000
  Fe  Fe39      1.0  0.12361  0.68765  0.71919  1.0000
  S   S70       1.0  0.09603  0.71637  0.73063  1.0000
  S   S71       1.0  0.13754  0.68708  0.67512  1.0000
  Fe  Fe40      1.0  0.13058  0.67205  0.77976  1.0000
  S   S72       1.0  0.10303  0.69915  0.79500  1.0000
  S   S73       1.0  0.15627  0.64796  0.80495  1.0000
  Fe  Fe41      1.0  0.08004  0.68839  0.75826  1.0000
  S   S74       1.0  0.04100  0.67442  0.75584  1.0000
  Fe  Fe42      1.0  0.12118  0.72467  0.76596  1.0000
  S   S75       1.0  0.13427  0.76132  0.78031  1.0000
  S   S76       1.0  0.10681  0.65916  0.74490  1.0000
  S   S77       1.0  0.14953  0.69804  0.75271  1.0000
  Fe  Fe43      1.0  0.19033  0.63640  0.96833  1.0000
  S   S78       1.0  0.22267  0.61088  0.96736  1.0000
  S   S79       1.0  0.17207  0.65913  0.93453  1.0000
  Fe  Fe44      1.0  0.17326  0.60858  0.54190  1.0000
  S   S80       1.0  0.21243  0.59726  0.54406  1.0000
  S   S81       1.0  0.15053  0.60728  0.58090  1.0000
  C   C267      1.0  0.18701  0.49784  0.99262  1.0000
  C   C268      1.0  0.28710  0.68320  0.92677  1.0000
  H   H322      1.0  0.06417  0.67798  0.70427  1.0000
  C   C269      1.0  0.29572  0.95620  0.77141  1.0000
  C   C270      1.0  0.25238  0.77759  0.57097  1.0000
  H   H323      1.0  0.25841  0.79119  0.81575  1.0000
  C   C271      1.0  0.06882  0.66934  0.68435  1.0000
  C   C272      1.0  0.27184  0.95280  0.76267  1.0000
  C   C273      1.0  0.21719  0.70741  0.73796  1.0000
  H   H324      1.0  0.23508  0.70298  0.95638  1.0000
  S   S82       1.0  0.16880  0.61215  0.99512  1.0000
  C   C274      1.0  0.14208  0.66403  0.65008  1.0000
  C   C275      1.0  0.13309  0.64080  0.65309  1.0000
  C   C276      1.0  0.13605  0.62360  0.63182  1.0000
  C   C277      1.0  0.14829  0.62928  0.60754  1.0000
  C   C278      1.0  0.15773  0.65234  0.60486  1.0000
  C   C279      1.0  0.15449  0.66963  0.62595  1.0000
  H   H325      1.0  0.12342  0.63619  0.67145  1.0000
  H   H326      1.0  0.12865  0.60581  0.63404  1.0000
  H   H327      1.0  0.16710  0.65699  0.58630  1.0000
  H   H328      1.0  0.16146  0.68756  0.62338  1.0000
  C   C280      1.0  0.15948  0.65007  0.84128  1.0000
  C   C281      1.0  0.14505  0.66588  0.85690  1.0000
  C   C282      1.0  0.14876  0.66782  0.88549  1.0000
  C   C283      1.0  0.16678  0.65391  0.89893  1.0000
  C   C284      1.0  0.18091  0.63773  0.88341  1.0000
  C   C285      1.0  0.17730  0.63590  0.85473  1.0000
  H   H329      1.0  0.13104  0.67666  0.84700  1.0000
  H   H330      1.0  0.13765  0.68030  0.89731  1.0000
  H   H331      1.0  0.19488  0.62696  0.89342  1.0000
  H   H332      1.0  0.18848  0.62350  0.84292  1.0000
  C   C286      1.0  0.01038  0.68548  0.75708  1.0000
  C   C287      1.0  0.00435  0.70974  0.76215  1.0000
  H   H333      1.0  0.29681  0.84631  0.85829  1.0000
  H   H334      1.0  0.01856  0.72254  0.76573  1.0000
  C   C288      1.0  0.30916  0.70290  0.99523  1.0000
  H   H335      1.0  0.21726  0.62765  0.69360  1.0000
  H   H336      1.0  0.20840  0.73816  0.78997  1.0000
  H   H337      1.0  0.17016  0.72770  0.79972  1.0000
  H   H338      1.0  0.20197  0.71557  0.69830  1.0000
  H   H339      1.0  0.19124  0.70427  0.81103  1.0000
  C   C289      1.0  0.30631  0.95236  0.67461  1.0000
  H   H340      1.0  0.16110  0.70569  0.82359  1.0000
  C   C290      1.0  0.26946  0.66993  0.51252  1.0000
  H   H341      1.0  0.18684  0.67525  0.69027  1.0000
  C   C291      1.0  0.20577  0.79139  0.74827  1.0000
  C   C292      1.0  0.19533  0.77116  0.73573  1.0000
  C   C293      1.0  0.17358  0.76178  0.74543  1.0000
  C   C294      1.0  0.16179  0.77271  0.76768  1.0000
  C   C295      1.0  0.17217  0.79300  0.78026  1.0000
  C   C296      1.0  0.19412  0.80228  0.77069  1.0000
  H   H342      1.0  0.20404  0.76283  0.71819  1.0000
  H   H343      1.0  0.16567  0.74645  0.73523  1.0000
  H   H344      1.0  0.16317  0.80166  0.79743  1.0000
  H   H345      1.0  0.20197  0.81784  0.78056  1.0000
  H   H346      1.0  0.28241  0.75390  0.88324  1.0000
  H   H347      1.0  0.20797  0.76521  0.87394  1.0000
  C   C297      1.0  0.20515  0.70173  0.71364  1.0000
  C   C298      1.0  0.26309  0.72611  0.94155  1.0000
  C   C299      1.0  0.26452  0.68243  0.93911  1.0000
  H   H348      1.0  0.29667  0.66648  0.92184  1.0000
  N   N18       1.0  0.18457  0.73290  0.84056  1.0000
  C   C300      1.0  0.19130  0.71711  0.86400  1.0000
  C   C301      1.0  0.16357  0.74844  0.84846  1.0000
  C   C302      1.0  0.17660  0.71700  0.81766  1.0000
  C   C303      1.0  0.20519  0.74829  0.83348  1.0000
  C   C304      1.0  0.21523  0.76406  0.85346  1.0000
  C   C305      1.0  0.21544  0.74866  0.80683  1.0000
  C   C306      1.0  0.23432  0.77920  0.84714  1.0000
  C   C307      1.0  0.23469  0.76369  0.80084  1.0000
  C   C308      1.0  0.24401  0.77902  0.82086  1.0000
  H   H349      1.0  0.17634  0.70498  0.86942  1.0000
  H   H350      1.0  0.20732  0.70542  0.85910  1.0000
  H   H351      1.0  0.19545  0.72741  0.88301  1.0000
  H   H352      1.0  0.16695  0.75895  0.86753  1.0000
  H   H353      1.0  0.14709  0.73770  0.85204  1.0000
  H   H354      1.0  0.15896  0.76163  0.83196  1.0000
  H   H355      1.0  0.06467  0.65325  0.63302  1.0000
  H   H356      1.0  0.26608  0.93893  0.70244  1.0000
  H   H357      1.0  0.30694  0.94074  0.77689  1.0000
  C   C309      1.0  0.07015  0.67236  0.63544  1.0000
  C   C310      1.0  0.21509  0.70361  0.54922  1.0000
  C   C311      1.0  0.23890  0.74057  0.54916  1.0000
  H   H358      1.0  0.26640  0.77425  0.92534  1.0000
  C   C312      1.0  0.20148  0.73739  0.52190  1.0000
  C   C313      1.0  0.31184  0.83500  0.89748  1.0000
  C   C314      1.0  0.21159  0.66665  0.75406  1.0000
  H   H359      1.0  0.19219  0.59913  0.73957  1.0000
  C   C315      1.0  0.30039  0.75414  0.89363  1.0000
  H   H360      1.0  0.17584  0.51817  0.51601  1.0000
  H   H361      1.0  0.29619  0.89203  0.66111  1.0000
  H   H362      1.0  0.06099  0.65100  0.68446  1.0000
  H   H363      1.0  0.22326  0.76855  0.52273  1.0000
  H   H364      1.0  0.22941  0.69451  0.77723  1.0000
  H   H365      1.0  0.29384  0.96691  0.71380  1.0000
  C   C316      1.0  0.03294  0.68451  0.66082  1.0000
  N   N19       1.0  0.05973  0.68357  0.66061  1.0000
  C   C317      1.0  0.02045  0.69440  0.68378  1.0000
  H   H366      1.0  0.15745  0.64309  0.74591  1.0000
  H   H367      1.0  0.19220  0.60741  0.69313  1.0000
  H   H368      1.0  0.26819  0.78830  0.57800  1.0000
  C   C318      1.0  0.28619  0.72753  0.92904  1.0000
  C   C319      1.0  0.28433  0.59181  0.54419  1.0000
  Fe  Fe45      1.0  0.20183  0.58745  0.99667  1.0000
  H   H369      1.0  0.29864  0.84522  0.90930  1.0000
  H   H370      1.0  0.26420  0.90983  0.68743  1.0000
  H   H371      1.0  0.24130  0.79158  0.86247  1.0000
  H   H372      1.0  0.18827  0.63668  0.67953  1.0000
  H   H373      1.0  0.19153  0.62171  0.76546  1.0000
  H   H374      1.0  0.21393  0.65426  0.77093  1.0000
  H   H375      1.0  0.18312  0.70355  0.52389  1.0000
  H   H376      1.0  0.31428  0.63344  0.98554  1.0000
  Fe  Fe46      1.0  0.30511  0.85146  0.72265  1.0000
  N   N20       1.0  0.19022  0.63562  0.72407  1.0000
  Fe  Fe47      1.0  0.20526  0.57321  0.50771  1.0000
  H   H377      1.0  0.24101  0.77409  0.58921  1.0000
  H   H378      1.0  0.02630  0.66797  0.62038  1.0000
  N   N21       1.0  0.26024  0.75467  0.55751  1.0000
  C   C320      1.0  0.28463  0.68449  0.52860  1.0000
  C   C321      1.0  0.19737  0.62652  0.69647  1.0000
  H   H379      1.0  0.27956  0.74387  0.52111  1.0000
  S   S83       1.0  0.16563  0.58233  0.50741  1.0000
  C   C322      1.0  0.22034  0.68993  0.75815  1.0000
  H   H380      1.0  0.28459  0.72513  0.56768  1.0000
  C   C323      1.0  0.19986  0.66004  0.72908  1.0000
  H   H381      1.0  0.29893  0.58982  0.55989  1.0000
  H   H382      1.0  0.06480  0.68261  0.61672  1.0000
  C   C324      1.0  0.31763  0.62843  0.53020  1.0000
  C   C325      1.0  0.01853  0.67586  0.63866  1.0000
  C   C326      1.0  0.19662  0.67845  0.70918  1.0000
  H   H383      1.0  0.06345  0.71764  0.68209  1.0000
  Fe  Fe48      1.0  0.21821  0.62726  0.51402  1.0000
  C   C327      1.0  0.23510  0.71660  0.55820  1.0000
  H   H384      1.0  0.15576  0.64983  0.71007  1.0000
  C   C328      1.0  0.19871  0.61753  0.74458  1.0000
  H   H385      1.0  0.15528  0.61912  0.72113  1.0000
  H   H386      1.0  0.21880  0.61646  0.74565  1.0000
  C   C329      1.0  0.16352  0.63694  0.72527  1.0000
  H   H387      1.0  0.22375  0.72551  0.74127  1.0000
  H   H388      1.0  0.27151  0.57689  0.54768  1.0000
  H   H389      1.0  0.27396  0.60891  0.54822  1.0000
  C   C330      1.0  0.30273  0.97067  0.69475  1.0000
  H   H390      1.0  0.26720  0.73714  0.59629  1.0000
  S   S84       1.0  0.31365  0.87403  0.76010  1.0000
  H   H391      1.0  0.28325  0.68399  0.55069  1.0000
  C   C331      1.0  0.27448  0.76047  0.53287  1.0000
  H   H392      1.0  0.29739  0.81685  0.66719  1.0000
  H   H393      1.0  0.30793  0.72215  0.99881  1.0000
  C   C332      1.0  0.22592  0.50332  0.93394  1.0000
  H   H394      1.0  0.99583  0.65046  0.74830  1.0000
  C   C333      1.0  0.30958  0.80622  0.62664  1.0000
  H   H395      1.0  0.29376  0.91630  0.63725  1.0000
  H   H396      1.0  0.09032  0.67213  0.63607  1.0000
  H   H397      1.0  0.24752  0.70719  0.57177  1.0000
  C   C334      1.0  0.29776  0.70536  0.92161  1.0000
  H   H398      1.0  0.08925  0.70848  0.66269  1.0000
  H   H399      1.0  0.23909  0.97099  0.74908  1.0000
  H   H400      1.0  0.24179  0.78956  0.55696  1.0000
  H   H401      1.0  0.26455  0.77271  0.51855  1.0000
  H   H402      1.0  0.29231  0.75301  0.58319  1.0000
  H   H403      1.0  0.25653  0.66520  0.94365  1.0000
  H   H404      1.0  0.25296  0.74187  0.94824  1.0000
  C   C335      1.0  0.30507  0.97973  0.77332  1.0000
  C   C336      1.0  0.25252  0.70381  0.94639  1.0000
  H   H405      1.0  0.08887  0.66724  0.68422  1.0000
  H   H406      1.0  0.06244  0.71978  0.64547  1.0000
  C   C337      1.0  0.31234  0.65285  0.98748  1.0000
  H   H407      1.0  0.24777  0.49423  0.96911  1.0000
  H   H408      1.0  0.22774  0.52262  0.93696  1.0000
  C   C338      1.0  0.06908  0.70841  0.66280  1.0000
  H   H409      1.0  0.20277  0.50716  0.89867  1.0000
  N   N22       1.0  0.29784  0.92759  0.67955  1.0000
  H   H410      1.0  0.30889  0.77169  0.88884  1.0000
  C   C339      1.0  0.19836  0.71392  0.53106  1.0000
  C   C340      1.0  0.30287  0.91044  0.65660  1.0000
  C   C341      1.0  0.27666  0.74178  0.57704  1.0000
  H   H411      1.0  0.21283  0.68515  0.55589  1.0000
  N   N23       1.0  0.29806  0.75075  0.92364  1.0000
  S   S85       1.0  0.19230  0.54727  0.99034  1.0000
  S   S86       1.0  0.24854  0.65143  0.52948  1.0000
  H   H412      1.0  0.31388  0.70991  0.52904  1.0000
  H   H413      1.0  0.03010  0.70114  0.70157  1.0000
  C   C342      1.0  0.31074  0.83564  0.86852  1.0000
  C   C343      1.0  0.22142  0.75057  0.53075  1.0000
  C   C344      1.0  0.29152  0.66289  0.99946  1.0000
  C   C345      1.0  0.21188  0.50660  0.50504  1.0000
  C   C346      1.0  0.25759  0.97330  0.75584  1.0000
  C   C347      1.0  0.28463  0.77207  0.93486  1.0000
  C   C348      1.0  0.31050  0.81975  0.65126  1.0000
  C   C349      1.0  0.21173  0.49454  0.91250  1.0000
  H   H414      1.0  0.32181  0.74572  0.95821  1.0000
  C   C350      1.0  0.99146  0.66923  0.75247  1.0000
  C   C351      1.0  0.27132  0.92820  0.68398  1.0000
  H   H415      1.0  0.29411  0.78917  0.93072  1.0000
  C   C352      1.0  0.99521  0.69564  0.68449  1.0000
  H   H416      1.0  0.26151  0.93620  0.66610  1.0000
  C   C353      1.0  0.30201  0.69914  0.51641  1.0000
  C   C354      1.0  0.18770  0.50285  0.51179  1.0000
  H   H417      1.0  0.30500  0.89865  0.70789  1.0000
  H   H418      1.0  0.29564  0.79301  0.62391  1.0000
  S   S87       1.0  0.17898  0.63964  0.51318  1.0000
  H   H419      1.0  0.29147  0.76971  0.53852  1.0000
  H   H420      1.0  0.28296  0.77101  0.95759  1.0000
  C   C355      1.0  0.31059  0.61124  0.51000  1.0000
  H   H421      1.0  0.31101  0.62819  0.55095  1.0000
  C   C356      1.0  0.99323  0.67715  0.63965  1.0000
  H   H422      1.0  0.18851  0.74529  0.50758  1.0000
  C   C357      1.0  0.31828  0.95909  0.65019  1.0000
  N   N24       1.0  0.29411  0.59121  0.51587  1.0000
  H   H423      1.0  0.17140  0.50109  0.97953  1.0000
  H   H424      1.0  0.30481  0.92772  0.72335  1.0000
  C   C358      1.0  0.30996  0.91770  0.70441  1.0000
  H   H425      1.0  0.32265  0.90807  0.65306  1.0000
  H   H426      1.0  0.29526  0.55228  0.51660  1.0000
  C   C359      1.0  0.30711  0.56778  0.51207  1.0000
  C   C360      1.0  0.32260  0.75062  0.93621  1.0000
  H   H427      1.0  0.31195  0.73982  0.88405  1.0000
  H   H428      1.0  0.32195  0.94644  0.63373  1.0000
  H   H429      1.0  0.31544  0.70494  0.91233  1.0000
  C   C361      1.0  0.20086  0.51755  0.00147  1.0000
  Fe  Fe49      1.0  0.36083  0.17164  0.03364  1.0000
  S   S88       1.0  0.38056  0.20681  0.03475  1.0000
  C   C362      1.0  0.33336  0.99907  0.31825  1.0000
  Fe  Fe50      1.0  0.35465  0.17305  0.48292  1.0000
  S   S89       1.0  0.38217  0.19928  0.46863  1.0000
  H   H430      1.0  0.32883  0.34787  0.49387  1.0000
  C   C363      1.0  0.49968  0.25698  0.03429  1.0000
  H   H431      1.0  0.38058  0.10787  0.33183  1.0000
  C   C364      1.0  0.41147  0.16776  0.08265  1.0000
  H   H432      1.0  0.45116  0.13656  0.45212  1.0000
  H   H433      1.0  0.37692  0.11279  0.41875  1.0000
  S   S90       1.0  0.38820  0.15280  0.00667  1.0000
  Fe  Fe51      1.0  0.63928  0.16272  0.02421  1.0000
  S   S91       1.0  0.61364  0.19372  0.03327  1.0000
  H   H434      1.0  0.37045  0.99292  0.30746  1.0000
  Fe  Fe52      1.0  0.63280  0.16215  0.47593  1.0000
  S   S92       1.0  0.62030  0.19841  0.46071  1.0000
  S   S93       1.0  0.34225  0.14945  0.06653  1.0000
  S   S94       1.0  0.65060  0.12963  0.31671  1.0000
  H   H435      1.0  0.36347  0.17960  0.11034  1.0000
  C   C365      1.0  0.47846  0.20803  0.49339  1.0000
  H   H436      1.0  0.57069  0.22404  0.01751  1.0000
  N   N25       1.0  0.42425  0.14453  0.08803  1.0000
  C   C366      1.0  0.32867  0.12761  0.14443  1.0000
  C   C367      1.0  0.57564  0.24296  0.02254  1.0000
  C   C368      1.0  0.65600  0.13562  0.14855  1.0000
  H   H437      1.0  0.41879  0.13026  0.33187  1.0000
  C   C369      1.0  0.34225  0.14806  0.10299  1.0000
  C   C370      1.0  0.41024  0.12621  0.35119  1.0000
  H   H438      1.0  0.39199  0.16489  0.07814  1.0000
  H   H439      1.0  0.53633  0.19033  0.03261  1.0000
  C   C371      1.0  0.35341  0.16288  0.14838  1.0000
  C   C372      1.0  0.35411  0.16486  0.11957  1.0000
  H   H440      1.0  0.36079  0.09861  0.37550  1.0000
  C   C373      1.0  0.40874  0.13028  0.40142  1.0000
  C   C374      1.0  0.64137  0.15256  0.10491  1.0000
  C   C375      1.0  0.34552  0.16302  0.40341  1.0000
  S   S95       1.0  0.33431  0.14660  0.45553  1.0000
  S   S96       1.0  0.33527  0.09895  0.26194  1.0000
  C   C376      1.0  0.63318  0.14371  0.36706  1.0000
  C   C377      1.0  0.47405  0.18358  0.49778  1.0000
  C   C378      1.0  0.52172  0.18904  0.01783  1.0000
  N   N26       1.0  0.41892  0.14038  0.42717  1.0000
  H   H441      1.0  0.40201  0.11634  0.45567  1.0000
  H   H442      1.0  0.41172  0.14390  0.47057  1.0000
  H   H443      1.0  0.37671  0.08904  0.13486  1.0000
  H   H444      1.0  0.39378  0.10457  0.09318  1.0000
  H   H445      1.0  0.49368  0.19134  0.04842  1.0000
  H   H446      1.0  0.41259  0.18043  0.10035  1.0000
  H   H447      1.0  0.40365  0.17555  0.41872  1.0000
  H   H448      1.0  0.44229  0.10956  0.43423  1.0000
  C   C379      1.0  0.65209  0.05837  0.35217  1.0000
  C   C380      1.0  0.56896  0.28508  0.01238  1.0000
  C   C381      1.0  0.63307  0.14525  0.39595  1.0000
  Fe  Fe53      1.0  0.59150  0.19636  0.49357  1.0000
  H   H449      1.0  0.61797  0.15104  0.35548  1.0000
  H   H450      1.0  0.61787  0.15367  0.40639  1.0000
  H   H451      1.0  0.34352  0.99460  0.17445  1.0000
  S   S97       1.0  0.35793  0.26486  0.48840  1.0000
  C   C382      1.0  0.42023  0.13435  0.37596  1.0000
  H   H452      1.0  0.40235  0.12683  0.05727  1.0000
  Fe  Fe54      1.0  0.40751  0.18833  0.00600  1.0000
  C   C383      1.0  0.33249  0.14681  0.41908  1.0000
  C   C384      1.0  0.39343  0.11493  0.16139  1.0000
  H   H453      1.0  0.43677  0.14432  0.37496  1.0000
  H   H454      1.0  0.45626  0.13362  0.41611  1.0000
  C   C385      1.0  0.65254  0.13249  0.35303  1.0000
  S   S98       1.0  0.65447  0.25084  0.03049  1.0000
  H   H455      1.0  0.35649  0.17638  0.41351  1.0000
  H   H456      1.0  0.42840  0.16070  0.14142  1.0000
  H   H457      1.0  0.46048  0.13243  0.09802  1.0000
  H   H458      1.0  0.57125  0.24608  0.04448  1.0000
  C   C386      1.0  0.64865  0.00783  0.32844  1.0000
  H   H459      1.0  0.33303  0.28383  0.43181  1.0000
  C   C387      1.0  0.64175  0.15252  0.13386  1.0000
  H   H460      1.0  0.43474  0.17196  0.40902  1.0000
  S   S99       1.0  0.55240  0.21158  0.49025  1.0000
  C   C388      1.0  0.41805  0.14449  0.13918  1.0000
  C   C389      1.0  0.38725  0.11661  0.40062  1.0000
  S   S100      1.0  0.44752  0.18983  0.02067  1.0000
  C   C390      1.0  0.40380  0.13594  0.45160  1.0000
  C   C391      1.0  0.42128  0.16690  0.42460  1.0000
  C   C392      1.0  0.51798  0.17544  0.49652  1.0000
  S   S101      1.0  0.34160  0.14207  0.19736  1.0000
  C   C393      1.0  0.34075  0.14426  0.16099  1.0000
  C   C394      1.0  0.65211  0.13503  0.41125  1.0000
  H   H461      1.0  0.63018  0.01395  0.33132  1.0000
  N   N27       1.0  0.56280  0.26013  0.00405  1.0000
  C   C395      1.0  0.38886  0.11339  0.35109  1.0000
  H   H462      1.0  0.38541  0.14419  0.44916  1.0000
  C   C396      1.0  0.49401  0.16738  0.49913  1.0000
  H   H463      1.0  0.36279  0.17585  0.16103  1.0000
  H   H464      1.0  0.43027  0.11099  0.06622  1.0000
  H   H465      1.0  0.32807  0.25864  0.03980  1.0000
  C   C397      1.0  0.33062  0.14430  0.36089  1.0000
  C   C398      1.0  0.42168  0.12911  0.06315  1.0000
  C   C399      1.0  0.32942  0.12955  0.11561  1.0000
  C   C400      1.0  0.49740  0.18957  0.02675  1.0000
  C   C401      1.0  0.38880  0.10415  0.13605  1.0000
  H   H466      1.0  0.56472  0.28895  0.03423  1.0000
  C   C402      1.0  0.40794  0.13511  0.16295  1.0000
  C   C403      1.0  0.44321  0.12953  0.43256  1.0000
  H   H467      1.0  0.41064  0.14394  0.18263  1.0000
  C   C404      1.0  0.32327  0.32927  0.49454  1.0000
  C   C405      1.0  0.33416  0.28657  0.49258  1.0000
  H   H468      1.0  0.53295  0.16262  0.49736  1.0000
  H   H469      1.0  0.45404  0.16343  0.10720  1.0000
  C   C406      1.0  0.52245  0.19997  0.49265  1.0000
  C   C407      1.0  0.45046  0.14914  0.09172  1.0000
  H   H470      1.0  0.45875  0.15568  0.07239  1.0000
  H   H471      1.0  0.64050  0.07650  0.30190  1.0000
  H   H472      1.0  0.41910  0.17707  0.06467  1.0000
  C   C408      1.0  0.37767  0.10824  0.37576  1.0000
  H   H473      1.0  0.43035  0.13730  0.04493  1.0000
  H   H474      1.0  0.53442  0.26593  0.04974  1.0000
  H   H475      1.0  0.42746  0.17532  0.44422  1.0000
  H   H476      1.0  0.59567  0.24431  0.02088  1.0000
  H   H477      1.0  0.38493  0.10825  0.17975  1.0000
  C   C409      1.0  0.39882  0.11336  0.11214  1.0000
  H   H478      1.0  0.63026  0.16565  0.09397  1.0000
  C   C410      1.0  0.41409  0.13371  0.11303  1.0000
  C   C411      1.0  0.53638  0.25674  0.00615  1.0000
  H   H479      1.0  0.65036  0.05005  0.28308  1.0000
  H   H480      1.0  0.35519  0.17396  0.36257  1.0000
  C   C412      1.0  0.34466  0.16166  0.37451  1.0000
  S   S102      1.0  0.65509  0.13620  0.18506  1.0000
  H   H481      1.0  0.58868  0.28838  0.01016  1.0000
  H   H482      1.0  0.50555  0.23509  0.48775  1.0000
  C   C413      1.0  0.32514  0.98945  0.17870  1.0000
  C   C414      1.0  0.34064  0.31078  0.49169  1.0000
  C   C415      1.0  0.47791  0.18812  0.00796  1.0000
  C   C416      1.0  0.52449  0.26057  0.03159  1.0000
  H   H483      1.0  0.46343  0.22078  0.49217  1.0000
  Fe  Fe55      1.0  0.64046  0.21644  0.01072  1.0000
  H   H484      1.0  0.49105  0.25951  0.05402  1.0000
  H   H485      1.0  0.63079  0.16563  0.14497  1.0000
  Fe  Fe56      1.0  0.64507  0.21333  0.49337  1.0000
  C   C417      1.0  0.50246  0.21611  0.49091  1.0000
  S   S103      1.0  0.33188  0.14241  0.32448  1.0000
  H   H486      1.0  0.33347  0.01809  0.31309  1.0000
  H   H487      1.0  0.62618  0.04854  0.30730  1.0000
  H   H488      1.0  0.33384  0.24000  0.42274  1.0000
  C   C418      1.0  0.64400  0.05664  0.30348  1.0000
  H   H489      1.0  0.35937  0.31536  0.48878  1.0000
  C   C419      1.0  0.65503  0.13542  0.09022  1.0000
  H   H490      1.0  0.63493  0.04926  0.35684  1.0000
  H   H491      1.0  0.64797  0.07816  0.35283  1.0000
  S   S104      1.0  0.65186  0.13472  0.44776  1.0000
  Fe  Fe57      1.0  0.36380  0.22518  0.49821  1.0000
  S   S105      1.0  0.65483  0.13433  0.05368  1.0000
  H   H492      1.0  0.32279  0.22311  0.13891  1.0000
  C   C420      1.0  0.48596  0.24956  0.01180  1.0000
  H   H493      1.0  0.46685  0.24606  0.01409  1.0000
  H   H494      1.0  0.65580  0.18978  0.40563  1.0000
  H   H495      1.0  0.65539  0.27927  0.50076  1.0000
  Fe  Fe58      1.0  0.36029  0.18823  0.54376  1.0000
  S   S106      1.0  0.38885  0.21508  0.53320  1.0000
  C   C421      1.0  0.33523  0.12496  0.62205  1.0000
  Fe  Fe59      1.0  0.36628  0.16643  0.97049  1.0000
  S   S107      1.0  0.38744  0.20068  0.96760  1.0000
  H   H496      1.0  0.32308  0.25011  0.53688  1.0000
  S   S108      1.0  0.62162  0.15343  0.98346  1.0000
  C   C422      1.0  0.32641  0.12947  0.89014  1.0000
  H   H497      1.0  0.32468  0.08886  0.82309  1.0000
  S   S109      1.0  0.32766  0.08974  0.75124  1.0000
  H   H498      1.0  0.34508  0.13831  0.58208  1.0000
  H   H499      1.0  0.33338  0.02945  0.85635  1.0000
  Fe  Fe60      1.0  0.62706  0.17731  0.53711  1.0000
  S   S110      1.0  0.61550  0.21486  0.52468  1.0000
  H   H500      1.0  0.51127  0.18411  0.94936  1.0000
  Fe  Fe61      1.0  0.64748  0.17916  0.96428  1.0000
  S   S111      1.0  0.62260  0.21155  0.96958  1.0000
  H   H501      1.0  0.62434  0.13664  0.85555  1.0000
  H   H502      1.0  0.38693  0.09078  0.83031  1.0000
  H   H503      1.0  0.34796  0.24858  0.60814  1.0000
  C   C423      1.0  0.32355  0.06971  0.82951  1.0000
  H   H504      1.0  0.36343  0.02402  0.84342  1.0000
  H   H505      1.0  0.34504  0.19262  0.91823  1.0000
  H   H506      1.0  0.56354  0.26850  0.96086  1.0000
  C   C424      1.0  0.33942  0.14007  0.84424  1.0000
  H   H507      1.0  0.35060  0.05007  0.78935  1.0000
  S   S112      1.0  0.33771  0.18279  0.99765  1.0000
  S   S113      1.0  0.37792  0.15909  0.51791  1.0000
  C   C425      1.0  0.35313  0.06882  0.88275  1.0000
  H   H508      1.0  0.63075  0.15430  0.90200  1.0000
  C   C426      1.0  0.38041  0.08692  0.85058  1.0000
  S   S114      1.0  0.65545  0.12865  0.80933  1.0000
  S   S115      1.0  0.33905  0.25035  0.98153  1.0000
  S   S116      1.0  0.60239  0.15874  0.50672  1.0000
  H   H509      1.0  0.65164  0.08062  0.82720  1.0000
  C   C427      1.0  0.34541  0.14246  0.90215  1.0000
  C   C428      1.0  0.36115  0.15468  0.88502  1.0000
  C   C429      1.0  0.35818  0.15340  0.85626  1.0000
  S   S117      1.0  0.33722  0.13851  0.80776  1.0000
  H   H510      1.0  0.59215  0.25906  0.97497  1.0000
  H   H511      1.0  0.37609  0.16442  0.89387  1.0000
  H   H512      1.0  0.37074  0.16252  0.84321  1.0000
  H   H513      1.0  0.46861  0.18481  0.96519  1.0000
  H   H514      1.0  0.52333  0.23051  0.55806  1.0000
  H   H515      1.0  0.57962  0.16790  0.56082  1.0000
  C   C430      1.0  0.64554  0.15330  0.88762  1.0000
  C   C431      1.0  0.64197  0.14324  0.86124  1.0000
  C   C432      1.0  0.32668  0.24456  0.55836  1.0000
  C   C433      1.0  0.50753  0.18557  0.97106  1.0000
  S   S118      1.0  0.62722  0.17554  0.58409  1.0000
  C   C434      1.0  0.36090  0.07115  0.85520  1.0000
  S   S119      1.0  0.34985  0.14100  0.93834  1.0000
  H   H516      1.0  0.55122  0.15330  0.56098  1.0000
  H   H517      1.0  0.34084  0.24756  0.92186  1.0000
  H   H518      1.0  0.63258  0.05781  0.92503  1.0000
  H   H519      1.0  0.36291  0.27277  0.57229  1.0000
  C   C435      1.0  0.65325  0.14554  0.65474  1.0000
  H   H520      1.0  0.34335  0.28828  0.54901  1.0000
  H   H521      1.0  0.47997  0.23376  0.55175  1.0000
  C   C436      1.0  0.34484  0.28193  0.57061  1.0000
  H   H522      1.0  0.56964  0.23712  0.96891  1.0000
  H   H523      1.0  0.34507  0.29788  0.58458  1.0000
  C   C437      1.0  0.36452  0.08103  0.90431  1.0000
  S   S120      1.0  0.34703  0.19096  0.58818  1.0000
  H   H524      1.0  0.40611  0.11140  0.86831  1.0000
  H   H525      1.0  0.55666  0.17625  0.53621  1.0000
  H   H526      1.0  0.47177  0.16054  0.57646  1.0000
  H   H527      1.0  0.33731  0.02263  0.82115  1.0000
  C   C438      1.0  0.64173  0.15522  0.60728  1.0000
  C   C439      1.0  0.32859  0.20147  0.92693  1.0000
  C   C440      1.0  0.49699  0.24575  0.98654  1.0000
  H   H528      1.0  0.34503  0.23600  0.55885  1.0000
  H   H529      1.0  0.36078  0.07926  0.79833  1.0000
  C   C441      1.0  0.34064  0.16730  0.61128  1.0000
  Fe  Fe62      1.0  0.59735  0.18627  0.99135  1.0000
  H   H530      1.0  0.63331  0.17762  0.64243  1.0000
  H   H531      1.0  0.54842  0.16450  0.61024  1.0000
  C   C442      1.0  0.36031  0.06030  0.80572  1.0000
  C   C443      1.0  0.33493  0.17314  0.63867  1.0000
  H   H532      1.0  0.57562  0.18100  0.60950  1.0000
  C   C444      1.0  0.34074  0.14309  0.60306  1.0000
  H   H533      1.0  0.33770  0.05814  0.88778  1.0000
  H   H534      1.0  0.51534  0.15618  0.58419  1.0000
  H   H535      1.0  0.45387  0.19907  0.56043  1.0000
  H   H536      1.0  0.54796  0.19574  0.62041  1.0000
  C   C445      1.0  0.39168  0.09900  0.87233  1.0000
  N   N28       1.0  0.55041  0.18995  0.57684  1.0000
  C   C446      1.0  0.56413  0.21220  0.57163  1.0000
  C   C447      1.0  0.55574  0.18248  0.60549  1.0000
  C   C448      1.0  0.55982  0.17099  0.55796  1.0000
  C   C449      1.0  0.52395  0.19303  0.57270  1.0000
  C   C450      1.0  0.51297  0.21495  0.56336  1.0000
  C   C451      1.0  0.50832  0.17354  0.57760  1.0000
  C   C452      1.0  0.48793  0.21712  0.55960  1.0000
  C   C453      1.0  0.48334  0.17584  0.57341  1.0000
  C   C454      1.0  0.47316  0.19760  0.56448  1.0000
  H   H537      1.0  0.55821  0.22727  0.58535  1.0000
  H   H538      1.0  0.58390  0.20929  0.57527  1.0000
  H   H539      1.0  0.56214  0.21807  0.54987  1.0000
  C   C455      1.0  0.48322  0.18595  0.98000  1.0000
  N   N29       1.0  0.34800  0.05867  0.83261  1.0000
  H   H540      1.0  0.33497  0.19180  0.64530  1.0000
  H   H541      1.0  0.52927  0.24471  0.96375  1.0000
  C   C456      1.0  0.38381  0.09600  0.89911  1.0000
  H   H542      1.0  0.37910  0.05283  0.80683  1.0000
  S   S121      1.0  0.55732  0.18768  0.97687  1.0000
  H   H543      1.0  0.33413  0.21036  0.94641  1.0000
  C   C457      1.0  0.57232  0.25606  0.97593  1.0000
  C   C458      1.0  0.52702  0.18714  0.98982  1.0000
  S   S122      1.0  0.33472  0.19989  0.50985  1.0000
  H   H544      1.0  0.64886  0.09492  0.94602  1.0000
  C   C459      1.0  0.34552  0.03262  0.83877  1.0000
  H   H545      1.0  0.35782  0.07967  0.92509  1.0000
  H   H546      1.0  0.48635  0.23925  0.96932  1.0000
  H   H547      1.0  0.64708  0.04937  0.83402  1.0000
  H   H548      1.0  0.39199  0.10608  0.91581  1.0000
  Fe  Fe63      1.0  0.35928  0.21647  0.99649  1.0000
  N   N30       1.0  0.32497  0.26542  0.57743  1.0000
  C   C460      1.0  0.52183  0.24907  0.98363  1.0000
  H   H549      1.0  0.32889  0.25177  0.88795  1.0000
  C   C461      1.0  0.65290  0.13367  0.59857  1.0000
  Fe  Fe64      1.0  0.40490  0.18692  0.50482  1.0000
  H   H550      1.0  0.65283  0.12894  0.57699  1.0000
  H   H551      1.0  0.35313  0.22991  0.89459  1.0000
  H   H552      1.0  0.64737  0.04316  0.88066  1.0000
  H   H553      1.0  0.65145  0.02951  0.68402  1.0000
  C   C462      1.0  0.32957  0.15499  0.65771  1.0000
  H   H554      1.0  0.33543  0.10628  0.61547  1.0000
  C   C463      1.0  0.32939  0.25658  0.60576  1.0000
  C   C464      1.0  0.64195  0.16103  0.63545  1.0000
  C   C465      1.0  0.32962  0.13076  0.64946  1.0000
  C   C466      1.0  0.64658  0.06751  0.91457  1.0000
  H   H555      1.0  0.32720  0.27145  0.62106  1.0000
  H   H556      1.0  0.65313  0.15019  0.67634  1.0000
  C   C467      1.0  0.33590  0.23788  0.90252  1.0000
  H   H557      1.0  0.33562  0.22190  0.85343  1.0000
  H   H558      1.0  0.32802  0.01858  0.66367  1.0000
  H   H559      1.0  0.32579  0.15973  0.67882  1.0000
  H   H560      1.0  0.49092  0.14842  0.50238  1.0000
  C   C468      1.0  0.32324  0.12849  0.86141  1.0000
  C   C469      1.0  0.65518  0.05929  0.88917  1.0000
  C   C470      1.0  0.65572  0.08837  0.92648  1.0000
  H   H561      1.0  0.55889  0.29859  0.99964  1.0000
  S   S123      1.0  0.44425  0.17215  0.50198  1.0000
  H   H562      1.0  0.60025  0.85821  0.40267  1.0000
  C   C471      1.0  0.49242  0.79436  0.48057  1.0000
  C   C472      1.0  0.34231  0.80444  0.10766  1.0000
  Fe  Fe65      1.0  0.63103  0.80415  0.47587  1.0000
  S   S124      1.0  0.61000  0.77300  0.45994  1.0000
  H   H563      1.0  0.54974  0.81312  0.35765  1.0000
  Fe  Fe66      1.0  0.62545  0.80808  0.03547  1.0000
  S   S125      1.0  0.61904  0.76826  0.03232  1.0000
  S   S126      1.0  0.62008  0.82802  0.07653  1.0000
  C   C473      1.0  0.49366  0.81648  0.11523  1.0000
  H   H564      1.0  0.45740  0.81819  0.09863  1.0000
  H   H565      1.0  0.45333  0.79871  0.47880  1.0000
  N   N31       1.0  0.33750  0.69963  0.07224  1.0000
  C   C474      1.0  0.32417  0.84761  0.36655  1.0000
  Fe  Fe67      1.0  0.36298  0.78492  0.03751  1.0000
  S   S127      1.0  0.39149  0.75693  0.02595  1.0000
  H   H566      1.0  0.33472  0.98578  0.25127  1.0000
  Fe  Fe68      1.0  0.35487  0.80153  0.47549  1.0000
  S   S128      1.0  0.37551  0.76715  0.46550  1.0000
  Fe  Fe69      1.0  0.58249  0.78170  0.49278  1.0000
  H   H567      1.0  0.62985  0.79735  0.40618  1.0000
  C   C475      1.0  0.63902  0.81208  0.36665  1.0000
  H   H568      1.0  0.46894  0.79984  0.05409  1.0000
  H   H569      1.0  0.33965  0.92854  0.37844  1.0000
  H   H570      1.0  0.48849  0.82467  0.13464  1.0000
  H   H571      1.0  0.56303  0.78726  0.42845  1.0000
  H   H572      1.0  0.34015  0.71904  0.03434  1.0000
  H   H573      1.0  0.34773  0.71936  0.10876  1.0000
  H   H574      1.0  0.49542  0.80896  0.46650  1.0000
  H   H575      1.0  0.54485  0.75449  0.08829  1.0000
  C   C476      1.0  0.32587  0.91963  0.36526  1.0000
  S   S129      1.0  0.33712  0.77341  0.00423  1.0000
  S   S130      1.0  0.34439  0.83785  0.31531  1.0000
  C   C477      1.0  0.34185  0.67496  0.06091  1.0000
  Fe  Fe70      1.0  0.63073  0.75150  0.49199  1.0000
  H   H576      1.0  0.61375  0.84891  0.13025  1.0000
  H   H577      1.0  0.55618  0.78777  0.39288  1.0000
  C   C478      1.0  0.64904  0.83046  0.41077  1.0000
  H   H578      1.0  0.53585  0.84868  0.41510  1.0000
  C   C479      1.0  0.32722  0.81311  0.15405  1.0000
  C   C480      1.0  0.34052  0.83087  0.40957  1.0000
  C   C481      1.0  0.35702  0.81692  0.39434  1.0000
  C   C482      1.0  0.35763  0.81897  0.36549  1.0000
  H   H579      1.0  0.32572  0.72840  0.39507  1.0000
  Fe  Fe71      1.0  0.34685  0.74845  0.48987  1.0000
  H   H580      1.0  0.36981  0.80512  0.40484  1.0000
  C   C483      1.0  0.56743  0.79585  0.10240  1.0000
  C   C484      1.0  0.65034  0.91249  0.13128  1.0000
  S   S131      1.0  0.34918  0.78257  0.08176  1.0000
  H   H581      1.0  0.35382  0.83536  0.08520  1.0000
  H   H582      1.0  0.64172  0.88079  0.07204  1.0000
  C   C485      1.0  0.51243  0.78158  0.49180  1.0000
  C   C486      1.0  0.35383  0.96004  0.32052  1.0000
  H   H583      1.0  0.56501  0.82944  0.31486  1.0000
  C   C487      1.0  0.63948  0.82850  0.10596  1.0000
  C   C488      1.0  0.56790  0.79602  0.40880  1.0000
  C   C489      1.0  0.33265  0.79661  0.13266  1.0000
  C   C490      1.0  0.34133  0.83440  0.35142  1.0000
  H   H584      1.0  0.53206  0.82111  0.43375  1.0000
  S   S132      1.0  0.64775  0.83175  0.44725  1.0000
  C   C491      1.0  0.51783  0.80976  0.11051  1.0000
  S   S133      1.0  0.64860  0.71679  0.47574  1.0000
  H   H585      1.0  0.34447  0.86450  0.12286  1.0000
  H   H586      1.0  0.36148  0.67080  0.05824  1.0000
  H   H587      1.0  0.64038  0.85170  0.17147  1.0000
  H   H588      1.0  0.55743  0.82593  0.05999  1.0000
  H   H589      1.0  0.34173  0.63536  0.45624  1.0000
  H   H590      1.0  0.57085  0.75991  0.06726  1.0000
  C   C492      1.0  0.47609  0.81287  0.09502  1.0000
  C   C493      1.0  0.55898  0.80621  0.05569  1.0000
  H   H591      1.0  0.37051  0.95006  0.31725  1.0000
  N   N32       1.0  0.56492  0.82269  0.41039  1.0000
  H   H592      1.0  0.56230  0.78541  0.12079  1.0000
  C   C494      1.0  0.52502  0.79900  0.08519  1.0000
  H   H593      1.0  0.61384  0.87419  0.35960  1.0000
  C   C495      1.0  0.57346  0.83368  0.38470  1.0000
  C   C496      1.0  0.48258  0.80248  0.06999  1.0000
  C   C497      1.0  0.50661  0.79560  0.06516  1.0000
  C   C498      1.0  0.59147  0.85165  0.38427  1.0000
  C   C499      1.0  0.46843  0.78857  0.48748  1.0000
  N   N33       1.0  0.55039  0.79191  0.07912  1.0000
  H   H594      1.0  0.59729  0.85964  0.31552  1.0000
  C   C500      1.0  0.59017  0.85295  0.33463  1.0000
  H   H595      1.0  0.36840  0.69566  0.09919  1.0000
  H   H596      1.0  0.51067  0.78773  0.04541  1.0000
  H   H597      1.0  0.36874  0.71068  0.04919  1.0000
  H   H598      1.0  0.58626  0.79003  0.09710  1.0000
  H   H599      1.0  0.57586  0.85074  0.43868  1.0000
  C   C501      1.0  0.55191  0.76591  0.07162  1.0000
  H   H600      1.0  0.56858  0.81534  0.10789  1.0000
  H   H601      1.0  0.54151  0.76168  0.05263  1.0000
  H   H602      1.0  0.54877  0.80248  0.03647  1.0000
  C   C502      1.0  0.63160  0.84058  0.12990  1.0000
  H   H603      1.0  0.57169  0.82220  0.45413  1.0000
  H   H604      1.0  0.57827  0.80201  0.05119  1.0000
  S   S134      1.0  0.34041  0.83077  0.44613  1.0000
  C   C503      1.0  0.34884  0.70079  0.09987  1.0000
  C   C504      1.0  0.64674  0.84232  0.15332  1.0000
  H   H605      1.0  0.53052  0.81327  0.12692  1.0000
  S   S135      1.0  0.65078  0.82984  0.31593  1.0000
  C   C505      1.0  0.65069  0.83051  0.35247  1.0000
  C   C506      1.0  0.65076  0.88763  0.09026  1.0000
  C   C507      1.0  0.57216  0.83578  0.33433  1.0000
  C   C508      1.0  0.57820  0.83099  0.43523  1.0000
  H   H606      1.0  0.37104  0.80869  0.35405  1.0000
  S   S136      1.0  0.37900  0.81360  0.01098  1.0000
  H   H607      1.0  0.33330  0.67297  0.04026  1.0000
  C   C509      1.0  0.59951  0.86112  0.35953  1.0000
  S   S137      1.0  0.54231  0.79029  0.48259  1.0000
  C   C510      1.0  0.53895  0.82879  0.41428  1.0000
  C   C511      1.0  0.33150  0.83771  0.15072  1.0000
  H   H608      1.0  0.63838  0.97047  0.32905  1.0000
  C   C512      1.0  0.56372  0.82640  0.35895  1.0000
  H   H609      1.0  0.59784  0.82648  0.43388  1.0000
  H   H610      1.0  0.33178  0.95266  0.16808  1.0000
  H   H611      1.0  0.36938  0.91552  0.34262  1.0000
  H   H612      1.0  0.63044  0.79780  0.35516  1.0000
  H   H613      1.0  0.58695  0.79070  0.40417  1.0000
  C   C513      1.0  0.63847  0.81187  0.39560  1.0000
  H   H614      1.0  0.52744  0.82151  0.39749  1.0000
  H   H615      1.0  0.35242  0.88949  0.33423  1.0000
  C   C514      1.0  0.34638  0.82905  0.10425  1.0000
  C   C515      1.0  0.34104  0.84554  0.12569  1.0000
  H   H616      1.0  0.65165  0.91026  0.18818  1.0000
  S   S138      1.0  0.32532  0.78240  0.49728  1.0000
  C   C516      1.0  0.33240  0.94891  0.32963  1.0000
  H   H617      1.0  0.62101  0.91081  0.10187  1.0000
  C   C517      1.0  0.32405  0.84615  0.39546  1.0000
  H   H618      1.0  0.35886  0.91030  0.30769  1.0000
  C   C518      1.0  0.34994  0.71676  0.05411  1.0000
  C   C519      1.0  0.35404  0.90912  0.32978  1.0000
  H   H619      1.0  0.32948  0.77763  0.13556  1.0000
  S   S139      1.0  0.32771  0.71563  0.47183  1.0000
  C   C520      1.0  0.63909  0.90443  0.10719  1.0000
  N   N34       1.0  0.33126  0.92281  0.33576  1.0000
  H   H620      1.0  0.33479  0.66081  0.07458  1.0000
  H   H621      1.0  0.35156  0.73497  0.06341  1.0000
  H   H622      1.0  0.33982  0.68851  0.11437  1.0000
  C   C521      1.0  0.35414  0.98477  0.31492  1.0000
  C   C522      1.0  0.65315  0.98291  0.32739  1.0000
  H   H623      1.0  0.32577  0.90021  0.37100  1.0000
  S   S140      1.0  0.32546  0.85938  0.17710  1.0000
  C   C523      1.0  0.33522  0.63312  0.47697  1.0000
  H   H624      1.0  0.64026  0.92500  0.14411  1.0000
  H   H625      1.0  0.32424  0.75582  0.43508  1.0000
  C   C524      1.0  0.34159  0.64974  0.49717  1.0000
  H   H626      1.0  0.35273  0.66495  0.49206  1.0000
  C   C525      1.0  0.55662  0.82191  0.55776  1.0000
  H   H627      1.0  0.47143  0.82974  0.53230  1.0000
  C   C526      1.0  0.33007  0.82161  0.91128  1.0000
  Fe  Fe72      1.0  0.63156  0.81218  0.97197  1.0000
  S   S141      1.0  0.62455  0.77277  0.96532  1.0000
  H   H628      1.0  0.52300  0.75224  0.51831  1.0000
  Fe  Fe73      1.0  0.62231  0.79002  0.53652  1.0000
  S   S142      1.0  0.60124  0.75718  0.52333  1.0000
  C   C527      1.0  0.51762  0.80372  0.57023  1.0000
  C   C528      1.0  0.61835  0.90998  0.87057  1.0000
  C   C529      1.0  0.62207  0.89905  0.84438  1.0000
  H   H629      1.0  0.54459  0.79284  0.61682  1.0000
  C   C530      1.0  0.65171  0.58051  0.52286  1.0000
  N   N35       1.0  0.54423  0.80337  0.57406  1.0000
  Fe  Fe74      1.0  0.34718  0.78682  0.53619  1.0000
  S   S143      1.0  0.36729  0.75151  0.52963  1.0000
  H   H630      1.0  0.62030  0.94674  0.82989  1.0000
  Fe  Fe75      1.0  0.35555  0.79944  0.97636  1.0000
  S   S144      1.0  0.38359  0.77269  0.96163  1.0000
  C   C531      1.0  0.50545  0.81901  0.55101  1.0000
  H   H631      1.0  0.36901  0.80123  0.78790  1.0000
  H   H632      1.0  0.44729  0.80176  0.55939  1.0000
  H   H633      1.0  0.33117  0.75911  0.68295  1.0000
  C   C532      1.0  0.63353  0.62033  0.51676  1.0000
  H   H634      1.0  0.33977  0.77384  0.72885  1.0000
  H   H635      1.0  0.46729  0.77465  0.59289  1.0000
  H   H636      1.0  0.48099  0.74257  0.53120  1.0000
  S   S145      1.0  0.33047  0.82138  0.94785  1.0000
  C   C533      1.0  0.47799  0.78743  0.58176  1.0000
  H   H637      1.0  0.35938  0.85342  0.63714  1.0000
  C   C534      1.0  0.60026  0.87376  0.88790  1.0000
  C   C535      1.0  0.50308  0.78788  0.58547  1.0000
  Fe  Fe76      1.0  0.40653  0.78489  0.99771  1.0000
  C   C536      1.0  0.63144  0.59607  0.52351  1.0000
  C   C537      1.0  0.50804  0.76269  0.50989  1.0000
  H   H638      1.0  0.51492  0.83103  0.53772  1.0000
  H   H639      1.0  0.57654  0.82142  0.56151  1.0000
  S   S146      1.0  0.35681  0.70917  0.97760  1.0000
  C   C538      1.0  0.50747  0.75464  0.99756  1.0000
  C   C539      1.0  0.32793  0.82287  0.85296  1.0000
  N   N36       1.0  0.63512  0.91113  0.82207  1.0000
  H   H640      1.0  0.41162  0.81859  0.73630  1.0000
  H   H641      1.0  0.62246  0.88914  0.78799  1.0000
  C   C540      1.0  0.48032  0.81853  0.54767  1.0000
  C   C541      1.0  0.38149  0.80589  0.69357  1.0000
  C   C542      1.0  0.34453  0.82664  0.60969  1.0000
  C   C543      1.0  0.35082  0.78044  0.71250  1.0000
  H   H642      1.0  0.38557  0.80381  0.64961  1.0000
  H   H643      1.0  0.61398  0.58932  0.52937  1.0000
  S   S147      1.0  0.37549  0.80878  0.51520  1.0000
  C   C544      1.0  0.37634  0.79688  0.66735  1.0000
  H   H644      1.0  0.32999  0.91808  0.70258  1.0000
  H   H645      1.0  0.57049  0.80872  0.60652  1.0000
  H   H646      1.0  0.36118  0.79819  0.90594  1.0000
  C   C545      1.0  0.33040  0.69251  0.98431  1.0000
  H   H647      1.0  0.34766  0.65930  0.97118  1.0000
  S   S148      1.0  0.44597  0.79792  0.99472  1.0000
  H   H648      1.0  0.40614  0.81216  0.77121  1.0000
  S   S149      1.0  0.55705  0.76033  0.99549  1.0000
  C   C546      1.0  0.34538  0.84028  0.63428  1.0000
  S   S150      1.0  0.32792  0.82331  0.81639  1.0000
  C   C547      1.0  0.34700  0.80850  0.89570  1.0000
  C   C548      1.0  0.62231  0.90817  0.79535  1.0000
  H   H649      1.0  0.63487  0.80016  0.84861  1.0000
  H   H650      1.0  0.62404  0.92803  0.87531  1.0000
  H   H651      1.0  0.34697  0.83442  0.74117  1.0000
  H   H652      1.0  0.61797  0.86472  0.82250  1.0000
  C   C549      1.0  0.48407  0.75705  0.51698  1.0000
  H   H653      1.0  0.62819  0.80343  0.89894  1.0000
  C   C550      1.0  0.63968  0.81194  0.60714  1.0000
  H   H654      1.0  0.35405  0.77348  0.64311  1.0000
  C   C551      1.0  0.32849  0.83681  0.65529  1.0000
  C   C552      1.0  0.63367  0.81174  0.63520  1.0000
  H   H655      1.0  0.39459  0.82002  0.69512  1.0000
  C   C553      1.0  0.40156  0.80638  0.74986  1.0000
  H   H656      1.0  0.60548  0.90575  0.91196  1.0000
  H   H657      1.0  0.57412  0.77822  0.56921  1.0000
  H   H658      1.0  0.55088  0.77606  0.54342  1.0000
  H   H659      1.0  0.33501  0.98759  0.62762  1.0000
  H   H660      1.0  0.55009  0.84044  0.56312  1.0000
  C   C554      1.0  0.65586  0.62914  0.50918  1.0000
  S   S151      1.0  0.62028  0.79736  0.58302  1.0000
  C   C555      1.0  0.49541  0.80310  0.98967  1.0000
  C   C556      1.0  0.48289  0.76234  0.99763  1.0000
  C   C557      1.0  0.60764  0.89739  0.89192  1.0000
  H   H661      1.0  0.55407  0.81883  0.53530  1.0000
  S   S152      1.0  0.65290  0.78259  0.50690  1.0000
  H   H662      1.0  0.34347  0.79636  0.76682  1.0000
  C   C558      1.0  0.46406  0.76994  0.50593  1.0000
  H   H663      1.0  0.54219  0.82484  0.61094  1.0000
  C   C559      1.0  0.55051  0.80763  0.60335  1.0000
  Fe  Fe77      1.0  0.39468  0.77305  0.50619  1.0000
  N   N37       1.0  0.37505  0.80741  0.74467  1.0000
  C   C560      1.0  0.32661  0.80947  0.60574  1.0000
  C   C561      1.0  0.46664  0.80277  0.56296  1.0000
  H   H664      1.0  0.33774  0.66054  0.53922  1.0000
  C   C562      1.0  0.60347  0.86262  0.86249  1.0000
  S   S153      1.0  0.64532  0.83865  0.93989  1.0000
  C   C563      1.0  0.34592  0.80917  0.86676  1.0000
  H   H665      1.0  0.54629  0.76438  0.57714  1.0000
  C   C564      1.0  0.32596  0.98275  0.64639  1.0000
  C   C565      1.0  0.61449  0.87487  0.84114  1.0000
  C   C566      1.0  0.36930  0.79753  0.71709  1.0000
  H   H666      1.0  0.35936  0.79925  0.85500  1.0000
  C   C567      1.0  0.55423  0.77947  0.56565  1.0000
  H   H667      1.0  0.36928  0.84090  0.76691  1.0000
  H   H668      1.0  0.49089  0.82198  0.98661  1.0000
  C   C568      1.0  0.36350  0.79417  0.76734  1.0000
  H   H669      1.0  0.59832  0.84398  0.85967  1.0000
  C   C569      1.0  0.35848  0.77982  0.66363  1.0000
  H   H670      1.0  0.51108  0.77527  0.59988  1.0000
  H   H671      1.0  0.51196  0.73577  0.00073  1.0000
  H   H672      1.0  0.36837  0.77461  0.76677  1.0000
  H   H673      1.0  0.40892  0.78771  0.74684  1.0000
  C   C570      1.0  0.36658  0.83291  0.74607  1.0000
  H   H674      1.0  0.35772  0.82940  0.59381  1.0000
  C   C571      1.0  0.63967  0.81613  0.88883  1.0000
  H   H675      1.0  0.61770  0.80245  0.64162  1.0000
  S   S154      1.0  0.33087  0.85381  0.68631  1.0000
  Fe  Fe78      1.0  0.36611  0.74734  0.99121  1.0000
  C   C572      1.0  0.64354  0.81430  0.86026  1.0000
  C   C573      1.0  0.65007  0.83481  0.90401  1.0000
  H   H676      1.0  0.64686  0.94614  0.80887  1.0000
  H   H677      1.0  0.59264  0.86380  0.90474  1.0000
  C   C574      1.0  0.52625  0.77107  0.99365  1.0000
  S   S155      1.0  0.43430  0.76268  0.51706  1.0000
  H   H678      1.0  0.60315  0.91452  0.79675  1.0000
  H   H679      1.0  0.37584  0.84445  0.73101  1.0000
  C   C575      1.0  0.34563  0.77177  0.68611  1.0000
  C   C576      1.0  0.63809  0.93744  0.82672  1.0000
  C   C577      1.0  0.47662  0.78670  0.99375  1.0000
  H   H680      1.0  0.33122  0.76857  0.93490  1.0000
  Fe  Fe79      1.0  0.59441  0.77811  0.99646  1.0000
  C   C578      1.0  0.64811  0.82346  0.65508  1.0000
  H   H681      1.0  0.32351  0.98203  0.78022  1.0000
  H   H682      1.0  0.33534  0.73755  0.92632  1.0000
  H   H683      1.0  0.64882  0.56199  0.52838  1.0000
  H   H684      1.0  0.64318  0.82315  0.67650  1.0000
  C   C579      1.0  0.33305  0.64724  0.52376  1.0000
  H   H685      1.0  0.63115  0.91840  0.77867  1.0000
  H   H686      1.0  0.61787  0.63240  0.51740  1.0000
  C   C580      1.0  0.51998  0.79540  0.98950  1.0000
  S   S156      1.0  0.60256  0.81456  0.50686  1.0000
  H   H687      1.0  0.53402  0.80833  0.98626  1.0000
  C   C581      1.0  0.33142  0.66755  0.97963  1.0000
  S   S157      1.0  0.32457  0.79138  0.57546  1.0000
  H   H688      1.0  0.65019  0.94112  0.84454  1.0000
  S   S158      1.0  0.59994  0.81804  0.00059  1.0000
  H   H689      1.0  0.32325  0.56647  0.52583  1.0000
  H   H690      1.0  0.46881  0.74943  0.00080  1.0000
  Fe  Fe80      1.0  0.64947  0.76664  0.00167  1.0000
  Fe  Fe81      1.0  0.70875  0.08301  0.25247  1.0000
  H   H691      1.0  0.70464  0.14821  0.16534  1.0000
  S   S159      1.0  0.72419  0.04416  0.25649  1.0000
  Fe  Fe82      1.0  0.72389  0.13649  0.25217  1.0000
  S   S160      1.0  0.68485  0.14826  0.25169  1.0000
  S   S161      1.0  0.74520  0.17125  0.24689  1.0000
  Fe  Fe83      1.0  0.67808  0.12020  0.28324  1.0000
  C   C582      1.0  0.72512  0.18591  0.37358  1.0000
  Fe  Fe84      1.0  0.67903  0.12014  0.21918  1.0000
  N   N38       1.0  0.84862  0.39996  0.42454  1.0000
  S   S162      1.0  0.71755  0.11001  0.28641  1.0000
  S   S163      1.0  0.71835  0.10897  0.21841  1.0000
  H   H692      1.0  0.69089  0.16638  0.42429  1.0000
  H   H693      1.0  0.67503  0.02509  0.24879  1.0000
  C   C583      1.0  0.68323  0.30618  0.49890  1.0000
  C   C584      1.0  0.68368  0.18647  0.35711  1.0000
  C   C585      1.0  0.85840  0.38830  0.39940  1.0000
  H   H694      1.0  0.73800  0.22671  0.00399  1.0000
  C   C586      1.0  0.82229  0.39589  0.42598  1.0000
  C   C587      1.0  0.98168  0.27837  0.26421  1.0000
  Fe  Fe85      1.0  0.79921  0.34684  0.03841  1.0000
  S   S164      1.0  0.80215  0.34568  0.08543  1.0000
  Fe  Fe86      1.0  0.80794  0.34268  0.46936  1.0000
  S   S165      1.0  0.83204  0.32458  0.43682  1.0000
  S   S166      1.0  0.76777  0.37077  0.02446  1.0000
  S   S167      1.0  0.77797  0.37056  0.46516  1.0000
  Fe  Fe87      1.0  0.91171  0.27883  0.26249  1.0000
  S   S168      1.0  0.88939  0.31135  0.24919  1.0000
  S   S169      1.0  0.95146  0.28777  0.27285  1.0000
  Fe  Fe88      1.0  0.86619  0.24668  0.25942  1.0000
  S   S170      1.0  0.84204  0.27705  0.24468  1.0000
  S   S171      1.0  0.85194  0.20941  0.26994  1.0000
  Fe  Fe89      1.0  0.87297  0.28689  0.21732  1.0000
  S   S172      1.0  0.87545  0.29570  0.17144  1.0000
  Fe  Fe90      1.0  0.86064  0.29860  0.27800  1.0000
  S   S173      1.0  0.83682  0.32270  0.30558  1.0000
  S   S174      1.0  0.89617  0.25461  0.22979  1.0000
  S   S175      1.0  0.88384  0.26797  0.29360  1.0000
  C   C588      1.0  0.67500  0.27072  0.01496  1.0000
  C   C589      1.0  0.67159  0.12394  0.39724  1.0000
  H   H695      1.0  0.85200  0.39981  0.46880  1.0000
  H   H696      1.0  0.97220  0.24737  0.23989  1.0000
  H   H697      1.0  0.69127  0.21057  0.18996  1.0000
  C   C590      1.0  0.82239  0.33074  0.10872  1.0000
  C   C591      1.0  0.84389  0.31939  0.10018  1.0000
  C   C592      1.0  0.85976  0.30866  0.11965  1.0000
  C   C593      1.0  0.85426  0.30886  0.14784  1.0000
  C   C594      1.0  0.83269  0.32008  0.15635  1.0000
  C   C595      1.0  0.81697  0.33107  0.13691  1.0000
  H   H698      1.0  0.84837  0.31899  0.07862  1.0000
  H   H699      1.0  0.87636  0.30003  0.11279  1.0000
  H   H700      1.0  0.82820  0.32046  0.17790  1.0000
  H   H701      1.0  0.80040  0.33978  0.14380  1.0000
  C   C596      1.0  0.83226  0.32383  0.40025  1.0000
  C   C597      1.0  0.84963  0.30909  0.38696  1.0000
  C   C598      1.0  0.85097  0.30813  0.35807  1.0000
  C   C599      1.0  0.83500  0.32207  0.34205  1.0000
  C   C600      1.0  0.81734  0.33652  0.35530  1.0000
  C   C601      1.0  0.81587  0.33732  0.38420  1.0000
  H   H702      1.0  0.86228  0.29843  0.39911  1.0000
  H   H703      1.0  0.86471  0.29699  0.34828  1.0000
  H   H704      1.0  0.80485  0.34732  0.34311  1.0000
  H   H705      1.0  0.80207  0.34838  0.39397  1.0000
  C   C602      1.0  0.93980  0.28970  0.19515  1.0000
  H   H706      1.0  0.68099  0.10554  0.14484  1.0000
  N   N39       1.0  0.71402  0.18581  0.16657  1.0000
  C   C603      1.0  0.67413  0.28265  0.49623  1.0000
  H   H707      1.0  0.74997  0.19691  0.15688  1.0000
  H   H708      1.0  0.87956  0.39332  0.45094  1.0000
  C   C604      1.0  0.69934  0.18418  0.42793  1.0000
  S   S176      1.0  0.66897  0.09252  0.25081  1.0000
  C   C605      1.0  0.98683  0.25833  0.24742  1.0000
  C   C606      1.0  0.82610  0.48465  0.05958  1.0000
  H   H709      1.0  0.81217  0.40350  0.40817  1.0000
  C   C607      1.0  0.85264  0.42634  0.42396  1.0000
  C   C608      1.0  0.87577  0.36901  0.40009  1.0000
  H   H710      1.0  0.83602  0.44963  0.04609  1.0000
  H   H711      1.0  0.85081  0.38966  0.32928  1.0000
  C   C609      1.0  0.77521  0.18099  0.25320  1.0000
  C   C610      1.0  0.79243  0.16699  0.26744  1.0000
  C   C611      1.0  0.81585  0.17590  0.27225  1.0000
  C   C612      1.0  0.82239  0.19878  0.26278  1.0000
  C   C613      1.0  0.80516  0.21275  0.24850  1.0000
  C   C614      1.0  0.78171  0.20395  0.24392  1.0000
  H   H712      1.0  0.78776  0.14930  0.27470  1.0000
  H   H713      1.0  0.82905  0.16490  0.28323  1.0000
  H   H714      1.0  0.80991  0.23031  0.24095  1.0000
  H   H715      1.0  0.76856  0.21500  0.23295  1.0000
  C   C615      1.0  0.93271  0.32392  0.16617  1.0000
  C   C616      1.0  0.70433  0.19304  0.13932  1.0000
  C   C617      1.0  0.67203  0.12302  0.36829  1.0000
  H   H716      1.0  0.68641  0.11597  0.40889  1.0000
  H   H717      1.0  0.68718  0.11455  0.35787  1.0000
  H   H718      1.0  0.72245  0.30688  0.03234  1.0000
  H   H719      1.0  0.96461  0.31289  0.13051  1.0000
  S   S177      1.0  0.78727  0.31989  0.49856  1.0000
  H   H720      1.0  0.81426  0.40442  0.44464  1.0000
  S   S178      1.0  0.80902  0.42874  0.49671  1.0000
  C   C618      1.0  0.71220  0.01434  0.25514  1.0000
  C   C619      1.0  0.71355  0.26845  0.48146  1.0000
  C   C620      1.0  0.68751  0.01004  0.25157  1.0000
  C   C621      1.0  0.85815  0.38438  0.34910  1.0000
  H   H721      1.0  0.69422  0.27771  0.05279  1.0000
  H   H722      1.0  0.70550  0.15742  0.11911  1.0000
  C   C622      1.0  0.70757  0.31086  0.49312  1.0000
  C   C623      1.0  0.97426  0.30740  0.17388  1.0000
  H   H723      1.0  0.67805  0.21372  0.06794  1.0000
  H   H724      1.0  0.69900  0.23107  0.15015  1.0000
  C   C624      1.0  0.81098  0.47858  0.49429  1.0000
  H   H725      1.0  0.96187  0.34583  0.20435  1.0000
  H   H726      1.0  0.87219  0.43019  0.42178  1.0000
  H   H727      1.0  0.72544  0.25392  0.47464  1.0000
  S   S179      1.0  0.67934  0.23369  0.48344  1.0000
  H   H728      1.0  0.85620  0.37098  0.45289  1.0000
  H   H729      1.0  0.72203  0.16640  0.30720  1.0000
  C   C625      1.0  0.70032  0.19115  0.37883  1.0000
  H   H730      1.0  0.71913  0.18099  0.42988  1.0000
  H   H731      1.0  0.76988  0.44998  0.02186  1.0000
  C   C626      1.0  0.68819  0.22479  0.10878  1.0000
  N   N40       1.0  0.80881  0.42132  0.08229  1.0000
  C   C627      1.0  0.78354  0.41406  0.07688  1.0000
  C   C628      1.0  0.82446  0.40812  0.06236  1.0000
  C   C629      1.0  0.81603  0.41317  0.11018  1.0000
  C   C630      1.0  0.81050  0.44790  0.08045  1.0000
  C   C631      1.0  0.79667  0.46310  0.09819  1.0000
  C   C632      1.0  0.82537  0.45949  0.06105  1.0000
  C   C633      1.0  0.88407  0.35803  0.37591  1.0000
  H   H732      1.0  0.84615  0.43538  0.44318  1.0000
  N   N41       1.0  0.66211  0.05082  0.32524  1.0000
  H   H733      1.0  0.77742  0.41975  0.05604  1.0000
  H   H734      1.0  0.78166  0.39411  0.07806  1.0000
  H   H735      1.0  0.77059  0.42192  0.09190  1.0000
  H   H736      1.0  0.81919  0.41246  0.04080  1.0000
  H   H737      1.0  0.82296  0.38823  0.06448  1.0000
  H   H738      1.0  0.84387  0.41222  0.06556  1.0000
  H   H739      1.0  0.80360  0.42021  0.12626  1.0000
  H   H740      1.0  0.81584  0.39308  0.11183  1.0000
  H   H741      1.0  0.83462  0.41905  0.11548  1.0000
  C   C634      1.0  0.69160  0.17777  0.33162  1.0000
  H   H742      1.0  0.70181  0.23738  0.39389  1.0000
  C   C635      1.0  0.85971  0.39056  0.45032  1.0000
  H   H743      1.0  0.93796  0.27656  0.17791  1.0000
  H   H744      1.0  0.70190  0.18481  0.20855  1.0000
  C   C636      1.0  0.68364  0.06563  0.32010  1.0000
  H   H745      1.0  0.72822  0.15512  0.18904  1.0000
  H   H746      1.0  0.74443  0.19384  0.19294  1.0000
  H   H747      1.0  0.73231  0.21928  0.17509  1.0000
  N   N42       1.0  0.80079  0.25349  0.32618  1.0000
  C   C637      1.0  0.78633  0.27200  0.31096  1.0000
  C   C638      1.0  0.82536  0.25301  0.31427  1.0000
  C   C639      1.0  0.78960  0.22973  0.32123  1.0000
  C   C640      1.0  0.80239  0.25821  0.35608  1.0000
  C   C641      1.0  0.79003  0.27786  0.36912  1.0000
  C   C642      1.0  0.81660  0.24274  0.37316  1.0000
  C   C643      1.0  0.79214  0.28179  0.39741  1.0000
  C   C644      1.0  0.81888  0.24710  0.40136  1.0000
  C   C645      1.0  0.80676  0.26666  0.41343  1.0000
  H   H748      1.0  0.79422  0.29026  0.31343  1.0000
  H   H749      1.0  0.78604  0.26820  0.28846  1.0000
  H   H750      1.0  0.76717  0.27265  0.31770  1.0000
  H   H751      1.0  0.83702  0.23796  0.32208  1.0000
  H   H752      1.0  0.83475  0.27019  0.31862  1.0000
  H   H753      1.0  0.82474  0.25044  0.29164  1.0000
  H   H754      1.0  0.77174  0.22874  0.33142  1.0000
  H   H755      1.0  0.78667  0.22621  0.29896  1.0000
  H   H756      1.0  0.80122  0.21450  0.32874  1.0000
  H   H757      1.0  0.77914  0.29087  0.35789  1.0000
  H   H758      1.0  0.82642  0.22740  0.36469  1.0000
  H   H759      1.0  0.78323  0.29732  0.40689  1.0000
  H   H760      1.0  0.83046  0.23551  0.41386  1.0000
  H   H761      1.0  0.80913  0.27053  0.43513  1.0000
  C   C646      1.0  0.68555  0.20807  0.08757  1.0000
  C   C647      1.0  0.73280  0.17709  0.34804  1.0000
  C   C648      1.0  0.70136  0.17645  0.11720  1.0000
  H   H762      1.0  0.70689  0.02576  0.31877  1.0000
  Fe  Fe91      1.0  0.75876  0.34901  0.49724  1.0000
  C   C649      1.0  0.87520  0.36561  0.35051  1.0000
  N   N43       1.0  0.69282  0.20135  0.40571  1.0000
  H   H763      1.0  0.93997  0.34066  0.15724  1.0000
  C   C650      1.0  0.73608  0.19961  0.17307  1.0000
  H   H764      1.0  0.67889  0.08523  0.31974  1.0000
  C   C651      1.0  0.72068  0.15976  0.16841  1.0000
  C   C652      1.0  0.97862  0.30815  0.14517  1.0000
  H   H765      1.0  0.81862  0.37626  0.42665  1.0000
  C   C653      1.0  0.69745  0.21747  0.13429  1.0000
  S   S180      1.0  0.82549  0.36393  0.00972  1.0000
  C   C654      1.0  0.69132  0.01469  0.32188  1.0000
  H   H766      1.0  0.78483  0.45563  0.11330  1.0000
  H   H767      1.0  0.69295  0.19083  0.44833  1.0000
  C   C655      1.0  0.84991  0.39569  0.37311  1.0000
  H   H768      1.0  0.91526  0.32892  0.17622  1.0000
  C   C656      1.0  0.70539  0.22438  0.41083  1.0000
  C   C657      1.0  0.67006  0.11876  0.13389  1.0000
  H   H769      1.0  0.92148  0.29275  0.20381  1.0000
  H   H770      1.0  0.73476  0.15448  0.15324  1.0000
  H   H771      1.0  0.83634  0.40985  0.37095  1.0000
  H   H772      1.0  0.68283  0.24347  0.10539  1.0000
  C   C658      1.0  0.70877  0.29852  0.01966  1.0000
  C   C659      1.0  0.72264  0.29187  0.48425  1.0000
  H   H773      1.0  0.89675  0.34287  0.37690  1.0000
  H   H774      1.0  0.93410  0.33458  0.21799  1.0000
  H   H775      1.0  0.88271  0.36151  0.41903  1.0000
  H   H776      1.0  0.82929  0.47536  0.48738  1.0000
  H   H777      1.0  0.75179  0.17312  0.34443  1.0000
  H   H778      1.0  0.92759  0.31124  0.14936  1.0000
  C   C660      1.0  0.68932  0.26368  0.48750  1.0000
  C   C661      1.0  0.95218  0.32919  0.20983  1.0000
  C   C662      1.0  0.69224  0.18402  0.09173  1.0000
  H   H779      1.0  0.73874  0.18855  0.38927  1.0000
  H   H780      1.0  0.66158  0.21473  0.42782  1.0000
  H   H781      1.0  0.84270  0.43536  0.40687  1.0000
  H   H782      1.0  0.96176  0.32072  0.22757  1.0000
  H   H783      1.0  0.88093  0.35633  0.33191  1.0000
  C   C663      1.0  0.69565  0.19103  0.18792  1.0000
  N   N44       1.0  0.95017  0.31260  0.18584  1.0000
  H   H784      1.0  0.95103  0.28092  0.21141  1.0000
  H   H785      1.0  0.69926  0.23326  0.43021  1.0000
  C   C664      1.0  0.69277  0.28191  0.03118  1.0000
  H   H786      1.0  0.68979  0.17099  0.07526  1.0000
  S   S181      1.0  0.66680  0.18591  0.00438  1.0000
  Fe  Fe92      1.0  0.79583  0.38956  0.50101  1.0000
  H   H787      1.0  0.74133  0.29521  0.47952  1.0000
  C   C665      1.0  0.66643  0.20656  0.40758  1.0000
  C   C666      1.0  0.78085  0.46351  0.01253  1.0000
  H   H788      1.0  0.67846  0.18168  0.18313  1.0000
  H   H789      1.0  0.69768  0.06322  0.33638  1.0000
  H   H790      1.0  0.69183  0.06114  0.29984  1.0000
  H   H791      1.0  0.66513  0.05427  0.36912  1.0000
  H   H792      1.0  0.72526  0.22182  0.41301  1.0000
  H   H793      1.0  0.68003  0.10522  0.09376  1.0000
  C   C667      1.0  0.66941  0.11858  0.10490  1.0000
  C   C668      1.0  0.79648  0.45871  0.50045  1.0000
  C   C669      1.0  0.71607  0.17319  0.32704  1.0000
  C   C670      1.0  0.66755  0.02453  0.32525  1.0000
  H   H794      1.0  0.66015  0.21963  0.39170  1.0000
  S   S182      1.0  0.79066  0.31666  0.00867  1.0000
  H   H795      1.0  0.74721  0.99731  0.26127  1.0000
  H   H796      1.0  0.67856  0.17421  0.31538  1.0000
  C   C671      1.0  0.72807  0.99431  0.25852  1.0000
  H   H797      1.0  0.66439  0.18907  0.35927  1.0000
  S   S183      1.0  0.71871  0.34034  0.49828  1.0000
  C   C672      1.0  0.69562  0.98974  0.32125  1.0000
  Fe  Fe93      1.0  0.71889  0.08234  0.75741  1.0000
  S   S184      1.0  0.67932  0.08776  0.74969  1.0000
  S   S185      1.0  0.73396  0.04449  0.76761  1.0000
  Fe  Fe94      1.0  0.72930  0.13658  0.74710  1.0000
  S   S186      1.0  0.68971  0.14465  0.73912  1.0000
  S   S187      1.0  0.74933  0.17164  0.73992  1.0000
  Fe  Fe95      1.0  0.68328  0.12131  0.77589  1.0000
  H   H798      1.0  0.71225  0.18957  0.96789  1.0000
  Fe  Fe96      1.0  0.68998  0.11070  0.71386  1.0000
  C   C673      1.0  0.84116  0.38577  0.93328  1.0000
  S   S188      1.0  0.72264  0.11504  0.78536  1.0000
  S   S189      1.0  0.72977  0.10345  0.72011  1.0000
  H   H799      1.0  0.74397  0.19117  0.97398  1.0000
  H   H800      1.0  0.68333  0.02947  0.76274  1.0000
  H   H801      1.0  0.83643  0.36639  0.93194  1.0000
  H   H802      1.0  0.81981  0.41585  0.85768  1.0000
  S   S190      1.0  0.65809  0.17702  0.50798  1.0000
  C   C674      1.0  0.74929  0.26283  0.95095  1.0000
  H   H803      1.0  0.80731  0.27185  0.93166  1.0000
  H   H804      1.0  0.75364  0.99599  0.77054  1.0000
  Fe  Fe97      1.0  0.80354  0.34142  0.53329  1.0000
  S   S191      1.0  0.81202  0.31601  0.56941  1.0000
  Fe  Fe98      1.0  0.81406  0.33602  0.97851  1.0000
  S   S192      1.0  0.84123  0.31659  0.95046  1.0000
  S   S193      1.0  0.77405  0.37012  0.53296  1.0000
  S   S194      1.0  0.78416  0.35940  0.96175  1.0000
  Fe  Fe99      1.0  0.91146  0.28258  0.76022  1.0000
  S   S195      1.0  0.88631  0.31521  0.75927  1.0000
  S   S196      1.0  0.95137  0.29417  0.76347  1.0000
  Fe  Fe100     1.0  0.86786  0.24929  0.75306  1.0000
  S   S197      1.0  0.84085  0.27994  0.75018  1.0000
  S   S198      1.0  0.85670  0.20997  0.75530  1.0000
  Fe  Fe101     1.0  0.86802  0.29755  0.72311  1.0000
  S   S199      1.0  0.86186  0.32436  0.68800  1.0000
  Fe  Fe102     1.0  0.86129  0.29505  0.78646  1.0000
  S   S200      1.0  0.83680  0.31176  0.81945  1.0000
  S   S201      1.0  0.89396  0.26557  0.72301  1.0000
  S   S202      1.0  0.88743  0.26371  0.79048  1.0000
  H   H805      1.0  0.69284  0.16215  0.62005  1.0000
  C   C675      1.0  0.98177  0.28309  0.75893  1.0000
  H   H806      1.0  0.70815  0.22687  0.92271  1.0000
  H   H807      1.0  0.67848  0.02502  0.85679  1.0000
  H   H808      1.0  0.97330  0.24558  0.75426  1.0000
  C   C676      1.0  0.82529  0.31912  0.60262  1.0000
  C   C677      1.0  0.83463  0.34088  0.61220  1.0000
  C   C678      1.0  0.84542  0.34217  0.63853  1.0000
  C   C679      1.0  0.84693  0.32181  0.65564  1.0000
  C   C680      1.0  0.83734  0.30010  0.64617  1.0000
  C   C681      1.0  0.82664  0.29879  0.61980  1.0000
  H   H809      1.0  0.83373  0.35667  0.59928  1.0000
  H   H810      1.0  0.85277  0.35906  0.64563  1.0000
  H   H811      1.0  0.83851  0.28426  0.65898  1.0000
  H   H812      1.0  0.81958  0.28182  0.61257  1.0000
  C   C682      1.0  0.83938  0.31475  0.91407  1.0000
  C   C683      1.0  0.81944  0.32399  0.89945  1.0000
  C   C684      1.0  0.81897  0.32277  0.87055  1.0000
  C   C685      1.0  0.83832  0.31220  0.85589  1.0000
  C   C686      1.0  0.85812  0.30261  0.87051  1.0000
  C   C687      1.0  0.85861  0.30389  0.89945  1.0000
  H   H813      1.0  0.80441  0.33215  0.91037  1.0000
  H   H814      1.0  0.80358  0.33025  0.85943  1.0000
  H   H815      1.0  0.87317  0.29449  0.85954  1.0000
  H   H816      1.0  0.87410  0.29666  0.91059  1.0000
  C   C688      1.0  0.68366  0.15028  0.84993  1.0000
  C   C689      1.0  0.70539  0.27593  0.56558  1.0000
  C   C690      1.0  0.67313  0.27660  0.98715  1.0000
  H   H817      1.0  0.71692  0.07898  0.84872  1.0000
  Fe  Fe103     1.0  0.79387  0.38665  0.99460  1.0000
  H   H818      1.0  0.83394  0.40037  0.81346  1.0000
  H   H819      1.0  0.83345  0.39267  0.95291  1.0000
  C   C691      1.0  0.66421  0.12389  0.64606  1.0000
  C   C692      1.0  0.70536  0.17394  0.61029  1.0000
  H   H820      1.0  0.67862  0.24950  0.55555  1.0000
  C   C693      1.0  0.85782  0.37355  0.83096  1.0000
  H   H821      1.0  0.86359  0.36642  0.81123  1.0000
  H   H822      1.0  0.73048  0.34390  0.56620  1.0000
  H   H823      1.0  0.87971  0.34831  0.85380  1.0000
  H   H824      1.0  0.77007  0.29465  0.94415  1.0000
  C   C694      1.0  0.77952  0.18140  0.74387  1.0000
  C   C695      1.0  0.78473  0.20533  0.73694  1.0000
  C   C696      1.0  0.80827  0.21426  0.74003  1.0000
  C   C697      1.0  0.82694  0.19931  0.75009  1.0000
  C   C698      1.0  0.82178  0.17531  0.75683  1.0000
  C   C699      1.0  0.79818  0.16638  0.75381  1.0000
  H   H825      1.0  0.77041  0.21713  0.72931  1.0000
  H   H826      1.0  0.81196  0.23270  0.73461  1.0000
  H   H827      1.0  0.83612  0.16357  0.76456  1.0000
  H   H828      1.0  0.79447  0.14793  0.75920  1.0000
  C   C700      1.0  0.89380  0.30207  0.61836  1.0000
  H   H829      1.0  0.70653  0.07099  0.81520  1.0000
  H   H830      1.0  0.96392  0.27368  0.82855  1.0000
  C   C701      1.0  0.69344  0.00210  0.68287  1.0000
  C   C702      1.0  0.69203  0.03823  0.85019  1.0000
  C   C703      1.0  0.86688  0.36332  0.85503  1.0000
  H   H831      1.0  0.74799  0.21672  0.57222  1.0000
  H   H832      1.0  0.68038  0.11744  0.92238  1.0000
  H   H833      1.0  0.73378  0.27376  0.95685  1.0000
  C   C704      1.0  0.84098  0.39252  0.83229  1.0000
  C   C705      1.0  0.71982  0.01573  0.76642  1.0000
  H   H834      1.0  0.69348  0.09692  0.83187  1.0000
  C   C706      1.0  0.69474  0.01345  0.76386  1.0000
  N   N45       1.0  0.94026  0.30963  0.67575  1.0000
  C   C707      1.0  0.92580  0.32380  0.69588  1.0000
  C   C708      1.0  0.95567  0.29210  0.69130  1.0000
  C   C709      1.0  0.95670  0.32614  0.66145  1.0000
  C   C710      1.0  0.92380  0.29810  0.65565  1.0000
  C   C711      1.0  0.92120  0.27265  0.65363  1.0000
  C   C712      1.0  0.90930  0.31248  0.63768  1.0000
  H   H835      1.0  0.97117  0.31310  0.85071  1.0000
  H   H836      1.0  0.91251  0.31221  0.70613  1.0000
  H   H837      1.0  0.93728  0.33182  0.71232  1.0000
  H   H838      1.0  0.91513  0.33873  0.68616  1.0000
  H   H839      1.0  0.94466  0.28032  0.70449  1.0000
  H   H840      1.0  0.96832  0.30135  0.70561  1.0000
  H   H841      1.0  0.96692  0.28060  0.67739  1.0000
  H   H842      1.0  0.94686  0.34165  0.65190  1.0000
  H   H843      1.0  0.97014  0.33411  0.67587  1.0000
  H   H844      1.0  0.96685  0.31641  0.64498  1.0000
  H   H845      1.0  0.93088  0.26023  0.66691  1.0000
  C   C713      1.0  0.79102  0.26220  0.93655  1.0000
  N   N46       1.0  0.73594  0.30694  0.57907  1.0000
  H   H846      1.0  0.68891  0.22297  0.95165  1.0000
  S   S203      1.0  0.80387  0.42570  0.98332  1.0000
  C   C714      1.0  0.68221  0.09307  0.88765  1.0000
  C   C715      1.0  0.69955  0.18187  0.58383  1.0000
  C   C716      1.0  0.84115  0.39058  0.88269  1.0000
  N   N47       1.0  0.81284  0.23634  0.83190  1.0000
  C   C717      1.0  0.82099  0.25101  0.85575  1.0000
  C   C718      1.0  0.83115  0.21671  0.82765  1.0000
  C   C719      1.0  0.81258  0.25217  0.80754  1.0000
  C   C720      1.0  0.78857  0.22602  0.83538  1.0000
  C   C721      1.0  0.77367  0.23132  0.85841  1.0000
  C   C722      1.0  0.77891  0.21049  0.81495  1.0000
  C   C723      1.0  0.75075  0.22130  0.86080  1.0000
  C   C724      1.0  0.75599  0.20062  0.81749  1.0000
  C   C725      1.0  0.74195  0.20596  0.84041  1.0000
  H   H847      1.0  0.80916  0.26730  0.85887  1.0000
  H   H848      1.0  0.82169  0.24027  0.87493  1.0000
  H   H849      1.0  0.83950  0.25799  0.85257  1.0000
  H   H850      1.0  0.83126  0.20370  0.84493  1.0000
  H   H851      1.0  0.84973  0.22389  0.82563  1.0000
  H   H852      1.0  0.82800  0.20634  0.80841  1.0000
  H   H853      1.0  0.79906  0.26723  0.80969  1.0000
  H   H854      1.0  0.83049  0.26046  0.80448  1.0000
  H   H855      1.0  0.80834  0.24223  0.78829  1.0000
  H   H856      1.0  0.77918  0.24334  0.87473  1.0000
  H   H857      1.0  0.78895  0.20600  0.79664  1.0000
  H   H858      1.0  0.73961  0.22566  0.87841  1.0000
  H   H859      1.0  0.74904  0.18892  0.80139  1.0000
  H   H860      1.0  0.72411  0.19836  0.84220  1.0000
  N   N48       1.0  0.69039  0.02853  0.67935  1.0000
  C   C726      1.0  0.79817  0.45661  0.99305  1.0000
  C   C727      1.0  0.73617  0.20465  0.58294  1.0000
  H   H861      1.0  0.70154  0.25166  0.94555  1.0000
  C   C728      1.0  0.77009  0.27504  0.94362  1.0000
  H   H862      1.0  0.80754  0.22711  0.93125  1.0000
  C   C729      1.0  0.71080  0.04254  0.69078  1.0000
  H   H863      1.0  0.76138  0.44843  0.51429  1.0000
  C   C730      1.0  0.80486  0.39768  0.90940  1.0000
  H   H864      1.0  0.68291  0.17618  0.57393  1.0000
  H   H865      1.0  0.71195  0.20021  0.67158  1.0000
  H   H866      1.0  0.88262  0.31344  0.60515  1.0000
  H   H867      1.0  0.67138  0.32079  0.50564  1.0000
  C   C731      1.0  0.66089  0.06259  0.82818  1.0000
  H   H868      1.0  0.70766  0.33280  0.58881  1.0000
  H   H869      1.0  0.69936  0.03144  0.83023  1.0000
  H   H870      1.0  0.75654  0.20003  0.66538  1.0000
  S   S204      1.0  0.67393  0.17433  0.92848  1.0000
  H   H871      1.0  0.74126  0.29683  0.53646  1.0000
  C   C732      1.0  0.71364  0.18018  0.67114  1.0000
  H   H872      1.0  0.86111  0.38715  0.93537  1.0000
  H   H873      1.0  0.86585  0.36207  0.89829  1.0000
  H   H874      1.0  0.70447  0.28311  0.54505  1.0000
  C   C733      1.0  0.68829  0.03430  0.64973  1.0000
  C   C734      1.0  0.70571  0.25598  0.61793  1.0000
  H   H875      1.0  0.75877  0.20342  0.61815  1.0000
  C   C735      1.0  0.81177  0.47483  0.98079  1.0000
  H   H876      1.0  0.76513  0.30023  0.60794  1.0000
  C   C736      1.0  0.67356  0.10103  0.91312  1.0000
  H   H877      1.0  0.90336  0.24304  0.63355  1.0000
  C   C737      1.0  0.66805  0.03710  0.69333  1.0000
  C   C738      1.0  0.71500  0.19708  0.57009  1.0000
  C   C739      1.0  0.98228  0.27967  0.83185  1.0000
  H   H878      1.0  0.73214  0.28152  0.62884  1.0000
  C   C740      1.0  0.74213  0.19683  0.60947  1.0000
  Fe  Fe104     1.0  0.76096  0.34134  0.99320  1.0000
  H   H879      1.0  0.69562  0.10416  0.87829  1.0000
  H   H880      1.0  0.66496  0.98887  0.76092  1.0000
  C   C741      1.0  0.72691  0.18094  0.62389  1.0000
  C   C742      1.0  0.89175  0.27712  0.61683  1.0000
  C   C743      1.0  0.72907  0.19812  0.96054  1.0000
  H   H881      1.0  0.72821  0.03754  0.68075  1.0000
  C   C744      1.0  0.67323  0.07186  0.87485  1.0000
  S   S205      1.0  0.67844  0.10355  0.66944  1.0000
  C   C745      1.0  0.75630  0.18007  0.66274  1.0000
  H   H882      1.0  0.71039  0.20318  0.54953  1.0000
  H   H883      1.0  0.70840  0.32388  0.55341  1.0000
  H   H884      1.0  0.76307  0.31652  0.55005  1.0000
  C   C746      1.0  0.90535  0.26245  0.63448  1.0000
  C   C747      1.0  0.72086  0.27523  0.61220  1.0000
  S   S206      1.0  0.72579  0.32588  0.97627  1.0000
  H   H885      1.0  0.77153  0.17413  0.64936  1.0000
  C   C748      1.0  0.70559  0.23200  0.94462  1.0000
  H   H886      1.0  0.70570  0.24819  0.63826  1.0000
  H   H887      1.0  0.76032  0.17244  0.68341  1.0000
  H   H888      1.0  0.67231  0.10131  0.61095  1.0000
  C   C749      1.0  0.72250  0.23202  0.99045  1.0000
  C   C750      1.0  0.71993  0.32773  0.57166  1.0000
  H   H889      1.0  0.69560  0.17295  0.66580  1.0000
  H   H890      1.0  0.70800  0.06227  0.68765  1.0000
  C   C751      1.0  0.83288  0.40110  0.85772  1.0000
  H   H891      1.0  0.69842  0.14927  0.83554  1.0000
  C   C752      1.0  0.69042  0.24685  0.59766  1.0000
  C   C753      1.0  0.98760  0.25860  0.75498  1.0000
  H   H892      1.0  0.68659  0.29864  0.95449  1.0000
  H   H893      1.0  0.67863  0.23200  0.60217  1.0000
  C   C754      1.0  0.68858  0.29378  0.97586  1.0000
  C   C755      1.0  0.70659  0.30474  0.99196  1.0000
  H   H894      1.0  0.74153  0.32088  0.62016  1.0000
  H   H895      1.0  0.90925  0.33194  0.63896  1.0000
  C   C756      1.0  0.68723  0.16034  0.87631  1.0000
  C   C757      1.0  0.66095  0.14170  0.84223  1.0000
  H   H896      1.0  0.70485  0.16688  0.88207  1.0000
  N   N49       1.0  0.72700  0.22488  0.96151  1.0000
  C   C758      1.0  0.83802  0.42511  0.91331  1.0000
  C   C759      1.0  0.74878  0.23723  0.95164  1.0000
  H   H897      1.0  0.76326  0.33035  0.59582  1.0000
  N   N50       1.0  0.68163  0.06302  0.84769  1.0000
  H   H898      1.0  0.79585  0.40948  0.89395  1.0000
  C   C760      1.0  0.72099  0.28594  0.58575  1.0000
  H   H899      1.0  0.83161  0.43221  0.93350  1.0000
  C   C761      1.0  0.69040  0.25669  0.57146  1.0000
  H   H900      1.0  0.79714  0.40334  0.92955  1.0000
  H   H901      1.0  0.82969  0.43705  0.89747  1.0000
  H   H902      1.0  0.71282  0.03991  0.71329  1.0000
  C   C762      1.0  0.85865  0.37148  0.88059  1.0000
  H   H903      1.0  0.85795  0.42735  0.91263  1.0000
  H   H904      1.0  0.82519  0.46992  0.96566  1.0000
  H   H905      1.0  0.79926  0.37881  0.90520  1.0000
  N   N51       1.0  0.83160  0.39947  0.90928  1.0000
  C   C763      1.0  0.79109  0.23703  0.93641  1.0000
  C   C764      1.0  0.70046  0.07821  0.83547  1.0000
  H   H906      1.0  0.71562  0.13719  0.64656  1.0000
  C   C765      1.0  0.75201  0.31481  0.60191  1.0000
  H   H907      1.0  0.74665  0.13795  0.63621  1.0000
  H   H908      1.0  0.73874  0.13767  0.67198  1.0000
  N   N52       1.0  0.73266  0.17186  0.65178  1.0000
  C   C766      1.0  0.75164  0.30101  0.55537  1.0000
  H   H909      1.0  0.68667  0.05416  0.64632  1.0000
  H   H910      1.0  0.71766  0.17415  0.69251  1.0000
  H   H911      1.0  0.70717  0.03773  0.86541  1.0000
  C   C767      1.0  0.73346  0.14507  0.65153  1.0000
  C   C768      1.0  0.73424  0.99455  0.76838  1.0000
  H   H912      1.0  0.87918  0.26924  0.60230  1.0000
  C   C769      1.0  0.77284  0.46336  0.50943  1.0000
  H   H913      1.0  0.70592  0.22367  0.99866  1.0000
  C   C770      1.0  0.77031  0.22460  0.94374  1.0000
  H   H914      1.0  0.70443  0.02747  0.63834  1.0000
  C   C771      1.0  0.66819  0.16197  0.89530  1.0000
  H   H915      1.0  0.76403  0.28543  0.55985  1.0000
  H   H916      1.0  0.67206  0.02634  0.63997  1.0000
  H   H917      1.0  0.73174  0.19134  0.93919  1.0000
  H   H918      1.0  0.77174  0.20516  0.94362  1.0000
  H   H919      1.0  0.66673  0.05779  0.80697  1.0000
  H   H920      1.0  0.65930  0.26846  0.97452  1.0000
  C   C772      1.0  0.66392  0.11803  0.61791  1.0000
  H   H921      1.0  0.66577  0.05711  0.69226  1.0000
  H   H922      1.0  0.66845  0.03207  0.71538  1.0000
  C   C773      1.0  0.76397  0.48740  0.51223  1.0000
  H   H923      1.0  0.72863  0.00172  0.70440  1.0000
  C   C774      1.0  0.68435  0.99034  0.76302  1.0000
  C   C775      1.0  0.98643  0.30195  0.84417  1.0000
  H   H924      1.0  0.71983  0.25180  0.99290  1.0000
  S   S207      1.0  0.82666  0.36200  0.50409  1.0000
  C   C776      1.0  0.71407  0.99130  0.69586  1.0000
  H   H925      1.0  0.65915  0.99313  0.66312  1.0000
  Fe  Fe105     1.0  0.72874  0.85245  0.27166  1.0000
  S   S208      1.0  0.70039  0.82584  0.26077  1.0000
  S   S209      1.0  0.76517  0.83806  0.28789  1.0000
  Fe  Fe106     1.0  0.69426  0.89631  0.26075  1.0000
  H   H926      1.0  0.84865  0.59483  0.33886  1.0000
  S   S210      1.0  0.68245  0.93648  0.25666  1.0000
  Fe  Fe107     1.0  0.67574  0.84942  0.28653  1.0000
  C   C777      1.0  0.92240  0.67944  0.11243  1.0000
  Fe  Fe108     1.0  0.69102  0.85009  0.22513  1.0000
  C   C778      1.0  0.69664  0.78382  0.32764  1.0000
  S   S211      1.0  0.70445  0.87536  0.29909  1.0000
  S   S212      1.0  0.72124  0.87570  0.23457  1.0000
  S   S213      1.0  0.83079  0.59725  0.01007  1.0000
  H   H927      1.0  0.67855  0.90824  0.20847  1.0000
  H   H928      1.0  0.89587  0.70349  0.16474  1.0000
  H   H929      1.0  0.70400  0.82692  0.35019  1.0000
  H   H930      1.0  0.72390  0.65357  0.06652  1.0000
  C   C779      1.0  0.67379  0.90398  0.13909  1.0000
  H   H931      1.0  0.68942  0.80334  0.38317  1.0000
  Fe  Fe109     1.0  0.81255  0.62341  0.03957  1.0000
  S   S214      1.0  0.82831  0.64647  0.07476  1.0000
  Fe  Fe110     1.0  0.79747  0.61734  0.46886  1.0000
  S   S215      1.0  0.79821  0.62543  0.42266  1.0000
  S   S216      1.0  0.77863  0.60203  0.04145  1.0000
  S   S217      1.0  0.76100  0.60244  0.47937  1.0000
  Fe  Fe111     1.0  0.90392  0.70226  0.25105  1.0000
  S   S218      1.0  0.89704  0.66371  0.26133  1.0000
  S   S219      1.0  0.94173  0.71608  0.24058  1.0000
  Fe  Fe112     1.0  0.84914  0.71597  0.25470  1.0000
  S   S220      1.0  0.83954  0.67783  0.26513  1.0000
  S   S221      1.0  0.81485  0.73889  0.24785  1.0000
  Fe  Fe113     1.0  0.87164  0.67865  0.29352  1.0000
  S   S222      1.0  0.87468  0.66655  0.33816  1.0000
  Fe  Fe114     1.0  0.86543  0.66669  0.23177  1.0000
  S   S223      1.0  0.85746  0.63580  0.20180  1.0000
  S   S224      1.0  0.88019  0.71742  0.28495  1.0000
  S   S225      1.0  0.87340  0.70459  0.21973  1.0000
  H   H932      1.0  0.85457  0.63504  0.29680  1.0000
  C   C780      1.0  0.97178  0.70411  0.24565  1.0000
  H   H933      1.0  0.88643  0.62023  0.11329  1.0000
  H   H934      1.0  0.92055  0.71303  0.18631  1.0000
  H   H935      1.0  0.96149  0.66946  0.26074  1.0000
  C   C781      1.0  0.81983  0.63705  0.39970  1.0000
  C   C782      1.0  0.84342  0.64234  0.40791  1.0000
  C   C783      1.0  0.85982  0.65158  0.38883  1.0000
  C   C784      1.0  0.85282  0.65589  0.36145  1.0000
  C   C785      1.0  0.82915  0.65086  0.35327  1.0000
  C   C786      1.0  0.81284  0.64135  0.37226  1.0000
  H   H936      1.0  0.84905  0.63919  0.42892  1.0000
  H   H937      1.0  0.87811  0.65534  0.39538  1.0000
  H   H938      1.0  0.82337  0.65418  0.33238  1.0000
  H   H939      1.0  0.79455  0.63752  0.36579  1.0000
  C   C787      1.0  0.84774  0.63930  0.16699  1.0000
  C   C788      1.0  0.84094  0.61884  0.15167  1.0000
  C   C789      1.0  0.83427  0.62069  0.12366  1.0000
  C   C790      1.0  0.83474  0.64302  0.11047  1.0000
  C   C791      1.0  0.84130  0.66350  0.12588  1.0000
  C   C792      1.0  0.84760  0.66172  0.15395  1.0000
  H   H940      1.0  0.84097  0.60139  0.16146  1.0000
  H   H941      1.0  0.82932  0.60475  0.11215  1.0000
  H   H942      1.0  0.84183  0.68086  0.11593  1.0000
  H   H943      1.0  0.85276  0.67764  0.16532  1.0000
  C   C793      1.0  0.79140  0.50632  0.00795  1.0000
  H   H944      1.0  0.94687  0.61251  0.29345  1.0000
  H   H945      1.0  0.71845  0.91056  0.18834  1.0000
  N   N53       1.0  0.86359  0.59733  0.29802  1.0000
  C   C794      1.0  0.85249  0.57422  0.28968  1.0000
  N   N54       1.0  0.92714  0.67979  0.16384  1.0000
  H   H946      1.0  0.70744  0.75693  0.10175  1.0000
  H   H947      1.0  0.75308  0.75907  0.36486  1.0000
  H   H948      1.0  0.71937  0.69252  0.05503  1.0000
  C   C795      1.0  0.89682  0.63661  0.11310  1.0000
  H   H949      1.0  0.76438  0.49307  0.03532  1.0000
  H   H950      1.0  0.92954  0.64784  0.18891  1.0000
  H   H951      1.0  0.92209  0.71674  0.15023  1.0000
  H   H952      1.0  0.65973  0.98319  0.24940  1.0000
  H   H953      1.0  0.90108  0.66443  0.19098  1.0000
  C   C796      1.0  0.77940  0.81098  0.27581  1.0000
  C   C797      1.0  0.80211  0.80376  0.28658  1.0000
  C   C798      1.0  0.81354  0.78198  0.27799  1.0000
  C   C799      1.0  0.80211  0.76699  0.25889  1.0000
  C   C800      1.0  0.77937  0.77417  0.24830  1.0000
  C   C801      1.0  0.76816  0.79607  0.25651  1.0000
  H   H954      1.0  0.81107  0.81529  0.30133  1.0000
  H   H955      1.0  0.83126  0.77697  0.28584  1.0000
  H   H956      1.0  0.77043  0.76280  0.23337  1.0000
  H   H957      1.0  0.75080  0.80139  0.24786  1.0000
  H   H958      1.0  0.83584  0.57069  0.30159  1.0000
  C   C802      1.0  0.70571  0.57172  0.48593  1.0000
  C   C803      1.0  0.72011  0.81848  0.34040  1.0000
  H   H959      1.0  0.78608  0.49954  0.10945  1.0000
  C   C804      1.0  0.77760  0.48810  0.01995  1.0000
  C   C805      1.0  0.71948  0.97042  0.25862  1.0000
  C   C806      1.0  0.69475  0.96614  0.25550  1.0000
  C   C807      1.0  0.70357  0.79050  0.38854  1.0000
  H   H960      1.0  0.73199  0.95538  0.26149  1.0000
  C   C808      1.0  0.73965  0.78288  0.32271  1.0000
  C   C809      1.0  0.88727  0.59947  0.25427  1.0000
  C   C810      1.0  0.90868  0.60278  0.23988  1.0000
  C   C811      1.0  0.93014  0.60725  0.25399  1.0000
  H   H961      1.0  0.87099  0.59680  0.24225  1.0000
  S   S226      1.0  0.65729  0.80613  0.00739  1.0000
  H   H962      1.0  0.67996  0.95460  0.32192  1.0000
  N   N55       1.0  0.81978  0.72892  0.34752  1.0000
  C   C812      1.0  0.82017  0.71761  0.31985  1.0000
  C   C813      1.0  0.81001  0.75395  0.34509  1.0000
  C   C814      1.0  0.84527  0.73030  0.35721  1.0000
  C   C815      1.0  0.80419  0.71499  0.36595  1.0000
  C   C816      1.0  0.81269  0.70487  0.39109  1.0000
  C   C817      1.0  0.77948  0.71151  0.35911  1.0000
  C   C818      1.0  0.79733  0.69205  0.40807  1.0000
  C   C819      1.0  0.76437  0.69844  0.37614  1.0000
  C   C820      1.0  0.77333  0.68865  0.40052  1.0000
  H   H963      1.0  0.80207  0.71716  0.30985  1.0000
  H   H964      1.0  0.83162  0.72780  0.30547  1.0000
  H   H965      1.0  0.82741  0.69875  0.32087  1.0000
  H   H966      1.0  0.79243  0.75472  0.33389  1.0000
  H   H967      1.0  0.82238  0.76559  0.33337  1.0000
  H   H968      1.0  0.80746  0.76243  0.36567  1.0000
  H   H969      1.0  0.85384  0.71200  0.35908  1.0000
  H   H970      1.0  0.85666  0.74035  0.34259  1.0000
  H   H971      1.0  0.84664  0.73977  0.37736  1.0000
  H   H972      1.0  0.83124  0.70608  0.39795  1.0000
  H   H973      1.0  0.77175  0.71867  0.34035  1.0000
  H   H974      1.0  0.80429  0.68389  0.42682  1.0000
  H   H975      1.0  0.74566  0.69561  0.37034  1.0000
  H   H976      1.0  0.76182  0.67801  0.41348  1.0000
  N   N56       1.0  0.75340  0.67063  0.08841  1.0000
  C   C821      1.0  0.76791  0.67156  0.06307  1.0000
  C   C822      1.0  0.77009  0.66358  0.11118  1.0000
  C   C823      1.0  0.73539  0.65127  0.08522  1.0000
  C   C824      1.0  0.74088  0.69422  0.09273  1.0000
  C   C825      1.0  0.72371  0.70292  0.07316  1.0000
  C   C826      1.0  0.74552  0.70938  0.11578  1.0000
  C   C827      1.0  0.71187  0.72526  0.07640  1.0000
  H   H977      1.0  0.98047  0.71713  0.35270  1.0000
  H   H978      1.0  0.73723  0.74301  0.13665  1.0000
  H   H979      1.0  0.75654  0.67451  0.04448  1.0000
  H   H980      1.0  0.78142  0.68615  0.06418  1.0000
  H   H981      1.0  0.77804  0.65432  0.05957  1.0000
  H   H982      1.0  0.78518  0.67647  0.11349  1.0000
  H   H983      1.0  0.77899  0.64565  0.10727  1.0000
  H   H984      1.0  0.76040  0.66223  0.13100  1.0000
  H   H985      1.0  0.74427  0.63315  0.08284  1.0000
  H   H986      1.0  0.72318  0.65074  0.10320  1.0000
  C   C828      1.0  0.95382  0.68209  0.16347  1.0000
  C   C829      1.0  0.71669  0.73961  0.09928  1.0000
  H   H987      1.0  0.73769  0.79007  0.30148  1.0000
  H   H988      1.0  0.84687  0.57405  0.26772  1.0000
  H   H989      1.0  0.91020  0.60703  0.31921  1.0000
  C   C830      1.0  0.93022  0.60852  0.28255  1.0000
  H   H990      1.0  0.66664  0.94709  0.16750  1.0000
  C   C831      1.0  0.90013  0.64851  0.08842  1.0000
  H   H991      1.0  0.95994  0.69381  0.14661  1.0000
  H   H992      1.0  0.96296  0.66414  0.16093  1.0000
  C   C832      1.0  0.68508  0.88664  0.12146  1.0000
  C   C833      1.0  0.88668  0.60043  0.28339  1.0000
  C   C834      1.0  0.90888  0.60525  0.29717  1.0000
  C   C835      1.0  0.91864  0.66821  0.13812  1.0000
  C   C836      1.0  0.73347  0.73170  0.11891  1.0000
  H   H993      1.0  0.87861  0.58219  0.33533  1.0000
  H   H994      1.0  0.69586  0.81183  0.12863  1.0000
  C   C837      1.0  0.84671  0.61745  0.29081  1.0000
  H   H995      1.0  0.75748  0.78913  0.33042  1.0000
  C   C838      1.0  0.97643  0.68078  0.25551  1.0000
  C   C839      1.0  0.67009  0.83208  0.15301  1.0000
  C   C840      1.0  0.86630  0.59711  0.32841  1.0000
  H   H996      1.0  0.69466  0.94653  0.14901  1.0000
  H   H997      1.0  0.69443  0.79065  0.30631  1.0000
  H   H998      1.0  0.86536  0.55877  0.29296  1.0000
  H   H999      1.0  0.87338  0.61447  0.33637  1.0000
  C   C841      1.0  0.68749  0.68494  0.47555  1.0000
  H   H1000     1.0  0.72192  0.90881  0.15191  1.0000
  H   H1001     1.0  0.75842  0.70450  0.13164  1.0000
  H   H1002     1.0  0.92747  0.67539  0.20789  1.0000
  H   H1003     1.0  0.91561  0.67897  0.06874  1.0000
  H   H1004     1.0  0.66966  0.88298  0.18772  1.0000
  H   H1005     1.0  0.94666  0.61014  0.24279  1.0000
  C   C842      1.0  0.91312  0.66976  0.08803  1.0000
  H   H1006     1.0  0.73991  0.76290  0.32057  1.0000
  H   H1007     1.0  0.68444  0.68400  0.45362  1.0000
  Fe  Fe115     1.0  0.79548  0.57679  0.00982  1.0000
  H   H1008     1.0  0.89226  0.64140  0.06963  1.0000
  H   H1009     1.0  0.84269  0.61824  0.26841  1.0000
  C   C843      1.0  0.71024  0.90326  0.16913  1.0000
  N   N57       1.0  0.68489  0.91208  0.16526  1.0000
  H   H1010     1.0  0.82910  0.61604  0.30152  1.0000
  C   C844      1.0  0.80207  0.50261  0.49695  1.0000
  C   C845      1.0  0.67657  0.97390  0.32362  1.0000
  H   H1011     1.0  0.81179  0.51847  0.07477  1.0000
  H   H1012     1.0  0.72128  0.75787  0.44425  1.0000
  C   C846      1.0  0.72103  0.78277  0.36901  1.0000
  H   H1013     1.0  0.93210  0.69611  0.11112  1.0000
  C   C847      1.0  0.67053  0.90303  0.18836  1.0000
  H   H1014     1.0  0.66904  0.80863  0.08760  1.0000
  C   C848      1.0  0.90581  0.64622  0.13767  1.0000
  H   H1015     1.0  0.70236  0.87820  0.12622  1.0000
  C   C849      1.0  0.67786  0.81983  0.12914  1.0000
  H   H1016     1.0  0.72041  0.82574  0.31919  1.0000
  H   H1017     1.0  0.71376  0.98264  0.31779  1.0000
  H   H1018     1.0  0.69004  0.78783  0.42975  1.0000
  C   C850      1.0  0.70377  0.78166  0.41531  1.0000
  H   H1019     1.0  0.90838  0.60240  0.21762  1.0000
  C   C851      1.0  0.66165  0.84888  0.36765  1.0000
  S   S227      1.0  0.69068  0.83453  0.18126  1.0000
  H   H1020     1.0  0.75271  0.74399  0.41160  1.0000
  H   H1021     1.0  0.68054  0.79059  0.33896  1.0000
  H   H1022     1.0  0.90173  0.63639  0.15606  1.0000
  H   H1023     1.0  0.73648  0.82523  0.35120  1.0000
  H   H1024     1.0  0.81352  0.51753  0.49200  1.0000
  H   H1025     1.0  0.71673  0.65832  0.47510  1.0000
  C   C852      1.0  0.67371  0.87883  0.09734  1.0000
  H   H1026     1.0  0.67057  0.86327  0.35710  1.0000
  C   C853      1.0  0.92099  0.66617  0.18891  1.0000
  C   C854      1.0  0.70581  0.67035  0.48768  1.0000
  C   C855      1.0  0.91594  0.70426  0.16634  1.0000
  H   H1027     1.0  0.69563  0.76381  0.32696  1.0000
  C   C856      1.0  0.72138  0.76485  0.42350  1.0000
  H   H1028     1.0  0.71130  0.88322  0.17104  1.0000
  C   C857      1.0  0.66266  0.81793  0.10582  1.0000
  H   H1029     1.0  0.71012  0.58971  0.47762  1.0000
  N   N58       1.0  0.71960  0.79172  0.34045  1.0000
  C   C858      1.0  0.73898  0.76583  0.37811  1.0000
  C   C859      1.0  0.73902  0.75703  0.40500  1.0000
  C   C860      1.0  0.67890  0.98616  0.25182  1.0000
  C   C861      1.0  0.67288  0.70051  0.49162  1.0000
  S   S228      1.0  0.66358  0.87132  0.24979  1.0000
  H   H1030     1.0  0.69894  0.73150  0.06096  1.0000
  S   S229      1.0  0.78777  0.53684  0.02006  1.0000
  H   H1031     1.0  0.96073  0.69032  0.18293  1.0000
  S   S230      1.0  0.81767  0.58915  0.49422  1.0000
  H   H1032     1.0  0.68232  0.86511  0.08457  1.0000
  C   C862      1.0  0.68509  0.93886  0.16684  1.0000
  H   H1033     1.0  0.72255  0.56035  0.48448  1.0000
  H   H1034     1.0  0.83679  0.49317  0.04395  1.0000
  H   H1035     1.0  0.69426  0.94529  0.18597  1.0000
  C   C863      1.0  0.66067  0.84890  0.39659  1.0000
  C   C864      1.0  0.81196  0.49899  0.07696  1.0000
  S   S231      1.0  0.79780  0.64676  0.00537  1.0000
  H   H1036     1.0  0.66895  0.86337  0.40810  1.0000
  Fe  Fe116     1.0  0.76502  0.62405  0.00577  1.0000
  H   H1037     1.0  0.69195  0.56381  0.47194  1.0000
  H   H1038     1.0  0.98837  0.73649  0.23129  1.0000
  H   H1039     1.0  0.67830  0.65892  0.01248  1.0000
  C   C865      1.0  0.79734  0.48825  0.09630  1.0000
  C   C866      1.0  0.69031  0.67345  0.00772  1.0000
  C   C867      1.0  0.68098  0.69728  0.00604  1.0000
  H   H1040     1.0  0.66196  0.70097  0.00945  1.0000
  S   S232      1.0  0.72605  0.63827  0.00792  1.0000
  C   C868      1.0  0.71504  0.66831  0.00359  1.0000
  Fe  Fe117     1.0  0.73336  0.85711  0.75757  1.0000
  S   S233      1.0  0.70477  0.83045  0.74763  1.0000
  S   S234      1.0  0.77274  0.84473  0.75671  1.0000
  Fe  Fe118     1.0  0.69730  0.90059  0.75906  1.0000
  C   C869      1.0  0.72521  0.77896  0.95802  1.0000
  S   S235      1.0  0.68444  0.94046  0.76359  1.0000
  Fe  Fe119     1.0  0.68320  0.85056  0.78005  1.0000
  C   C870      1.0  0.70925  0.67070  0.51616  1.0000
  Fe  Fe120     1.0  0.69054  0.85792  0.71745  1.0000
  H   H1041     1.0  0.70075  0.82008  0.96192  1.0000
  S   S236      1.0  0.71290  0.87581  0.79191  1.0000
  S   S237      1.0  0.72045  0.88400  0.72596  1.0000
  C   C871      1.0  0.80520  0.52906  0.61802  1.0000
  C   C872      1.0  0.72130  0.78616  0.90790  1.0000
  H   H1042     1.0  0.98611  0.70323  0.70232  1.0000
  C   C873      1.0  0.80714  0.51315  0.57164  1.0000
  H   H1043     1.0  0.82133  0.55335  0.66559  1.0000
  H   H1044     1.0  0.71692  0.78273  0.97842  1.0000
  H   H1045     1.0  0.90409  0.69324  0.84001  1.0000
  Fe  Fe121     1.0  0.81343  0.61607  0.52950  1.0000
  S   S238      1.0  0.84318  0.62209  0.56179  1.0000
  Fe  Fe122     1.0  0.81358  0.61946  0.97575  1.0000
  S   S239      1.0  0.83402  0.63950  0.94207  1.0000
  S   S240      1.0  0.77827  0.60094  0.54289  1.0000
  S   S241      1.0  0.77934  0.59775  0.97399  1.0000
  Fe  Fe123     1.0  0.89163  0.69769  0.75607  1.0000
  S   S242      1.0  0.88075  0.65975  0.74491  1.0000
  S   S243      1.0  0.93031  0.71239  0.75929  1.0000
  Fe  Fe124     1.0  0.83885  0.71438  0.76748  1.0000
  S   S244      1.0  0.82549  0.67749  0.75728  1.0000
  S   S245      1.0  0.80750  0.73723  0.78447  1.0000
  Fe  Fe125     1.0  0.85662  0.66311  0.78215  1.0000
  S   S246      1.0  0.85000  0.63256  0.81228  1.0000
  Fe  Fe126     1.0  0.85016  0.67772  0.72079  1.0000
  S   S247      1.0  0.82898  0.66888  0.68122  1.0000
  S   S248      1.0  0.86890  0.69984  0.79450  1.0000
  S   S249      1.0  0.86220  0.71566  0.72991  1.0000
  H   H1046     1.0  0.68671  0.76015  0.93181  1.0000
  C   C874      1.0  0.96091  0.70128  0.75811  1.0000
  C   C875      1.0  0.96694  0.67703  0.75285  1.0000
  H   H1047     1.0  0.68144  0.86105  0.85213  1.0000
  H   H1048     1.0  0.95277  0.66430  0.74885  1.0000
  C   C876      1.0  0.83716  0.63735  0.90578  1.0000
  C   C877      1.0  0.83037  0.61698  0.89070  1.0000
  C   C878      1.0  0.83443  0.61580  0.86213  1.0000
  C   C879      1.0  0.84480  0.63514  0.84818  1.0000
  C   C880      1.0  0.85118  0.65568  0.86317  1.0000
  C   C881      1.0  0.84757  0.65666  0.89179  1.0000
  H   H1049     1.0  0.82245  0.60194  0.90114  1.0000
  H   H1050     1.0  0.82949  0.59977  0.85078  1.0000
  H   H1051     1.0  0.85947  0.67057  0.85285  1.0000
  H   H1052     1.0  0.85311  0.67241  0.90328  1.0000
  C   C882      1.0  0.83434  0.65788  0.64729  1.0000
  C   C883      1.0  0.81495  0.65793  0.62838  1.0000
  C   C884      1.0  0.81764  0.64807  0.60176  1.0000
  C   C885      1.0  0.83977  0.63771  0.59374  1.0000
  C   C886      1.0  0.85940  0.63830  0.61234  1.0000
  C   C887      1.0  0.85673  0.64828  0.63897  1.0000
  H   H1053     1.0  0.79758  0.66545  0.63446  1.0000
  H   H1054     1.0  0.80240  0.64801  0.58768  1.0000
  H   H1055     1.0  0.87667  0.63053  0.60633  1.0000
  H   H1056     1.0  0.87187  0.64820  0.65316  1.0000
  C   C888      1.0  0.74140  0.78092  0.85470  1.0000
  C   C889      1.0  0.92257  0.65201  0.85835  1.0000
  C   C890      1.0  0.95709  0.66242  0.83081  1.0000
  H   H1057     1.0  0.66533  0.82438  0.57780  1.0000
  S   S250      1.0  0.68763  0.85124  0.67097  1.0000
  C   C891      1.0  0.77847  0.50726  0.50605  1.0000
  H   H1058     1.0  0.74381  0.78618  0.95909  1.0000
  C   C892      1.0  0.72109  0.71107  0.99602  1.0000
  H   H1059     1.0  0.81764  0.53808  0.54060  1.0000
  S   S251      1.0  0.66628  0.87593  0.74881  1.0000
  H   H1060     1.0  0.92520  0.63631  0.80352  1.0000
  H   H1061     1.0  0.72278  0.81834  0.64743  1.0000
  H   H1062     1.0  0.70915  0.58734  0.55338  1.0000
  H   H1063     1.0  0.69954  0.93195  0.69241  1.0000
  H   H1064     1.0  0.84601  0.58731  0.60695  1.0000
  C   C893      1.0  0.78183  0.81444  0.76333  1.0000
  C   C894      1.0  0.80532  0.80652  0.75636  1.0000
  C   C895      1.0  0.81331  0.78270  0.76189  1.0000
  C   C896      1.0  0.79795  0.76673  0.77486  1.0000
  C   C897      1.0  0.77432  0.77451  0.78137  1.0000
  C   C898      1.0  0.76622  0.79820  0.77552  1.0000
  H   H1065     1.0  0.81749  0.81894  0.74685  1.0000
  H   H1066     1.0  0.83153  0.77694  0.75675  1.0000
  H   H1067     1.0  0.76222  0.76212  0.79096  1.0000
  H   H1068     1.0  0.74809  0.80404  0.78090  1.0000
  C   C899      1.0  0.89924  0.62089  0.88137  1.0000
  S   S252      1.0  0.76628  0.53726  0.51071  1.0000
  H   H1069     1.0  0.81131  0.58388  0.67045  1.0000
  H   H1070     1.0  0.71024  0.80133  0.84057  1.0000
  C   C900      1.0  0.92979  0.66023  0.88479  1.0000
  C   C901      1.0  0.72386  0.97143  0.76744  1.0000
  C   C902      1.0  0.69880  0.96912  0.76465  1.0000
  H   H1071     1.0  0.79002  0.56214  0.65895  1.0000
  H   H1072     1.0  0.73529  0.95540  0.76891  1.0000
  H   H1073     1.0  0.88693  0.60592  0.88013  1.0000
  N   N59       1.0  0.78286  0.68791  0.84320  1.0000
  C   C903      1.0  0.78717  0.66162  0.83900  1.0000
  C   C904      1.0  0.77036  0.69716  0.81817  1.0000
  C   C905      1.0  0.80650  0.69993  0.84531  1.0000
  C   C906      1.0  0.76910  0.69219  0.86882  1.0000
  C   C907      1.0  0.77791  0.68286  0.89419  1.0000
  C   C908      1.0  0.74688  0.70560  0.86955  1.0000
  C   C909      1.0  0.76487  0.68589  0.91847  1.0000
  C   C910      1.0  0.73405  0.70864  0.89403  1.0000
  C   C911      1.0  0.74290  0.69862  0.91836  1.0000
  H   H1074     1.0  0.76983  0.65183  0.83772  1.0000
  H   H1075     1.0  0.79748  0.65770  0.81983  1.0000
  H   H1076     1.0  0.79799  0.65332  0.85584  1.0000
  H   H1077     1.0  0.75242  0.68878  0.81513  1.0000
  H   H1078     1.0  0.78106  0.69316  0.79931  1.0000
  H   H1079     1.0  0.76803  0.71716  0.81877  1.0000
  H   H1080     1.0  0.81734  0.69360  0.86321  1.0000
  H   H1081     1.0  0.81769  0.69650  0.82670  1.0000
  H   H1082     1.0  0.80409  0.71986  0.84732  1.0000
  H   H1083     1.0  0.79490  0.67287  0.89552  1.0000
  H   H1084     1.0  0.73890  0.71373  0.85147  1.0000
  H   H1085     1.0  0.77176  0.67802  0.93742  1.0000
  H   H1086     1.0  0.71694  0.71857  0.89407  1.0000
  H   H1087     1.0  0.73265  0.70055  0.93716  1.0000
  N   N60       1.0  0.93046  0.66475  0.83344  1.0000
  C   C912      1.0  0.92369  0.69077  0.83556  1.0000
  C   C913      1.0  0.91944  0.65532  0.80771  1.0000
  C   C914      1.0  0.71622  0.96625  0.69884  1.0000
  C   C915      1.0  0.81442  0.53552  0.56231  1.0000
  H   H1088     1.0  0.72259  0.60093  0.52426  1.0000
  H   H1089     1.0  0.69266  0.80584  0.88596  1.0000
  S   S253      1.0  0.66100  0.82864  0.81023  1.0000
  H   H1090     1.0  0.67966  0.53873  0.51065  1.0000
  H   H1091     1.0  0.89934  0.65625  0.80851  1.0000
  H   H1092     1.0  0.76415  0.77534  0.72159  1.0000
  H   H1093     1.0  0.79689  0.49243  0.60648  1.0000
  C   C916      1.0  0.75318  0.77060  0.87727  1.0000
  H   H1094     1.0  0.96360  0.67175  0.81214  1.0000
  C   C917      1.0  0.69473  0.68635  0.53217  1.0000
  C   C918      1.0  0.66939  0.84883  0.86202  1.0000
  C   C919      1.0  0.73036  0.68724  0.99739  1.0000
  H   H1095     1.0  0.79963  0.60882  0.63325  1.0000
  C   C920      1.0  0.71589  0.58366  0.53229  1.0000
  C   C921      1.0  0.70958  0.79593  0.88432  1.0000
  N   N61       1.0  0.71076  0.79013  0.93544  1.0000
  H   H1096     1.0  0.75340  0.76458  0.92008  1.0000
  C   C922      1.0  0.71928  0.78853  0.69031  1.0000
  H   H1097     1.0  0.80394  0.71832  0.68220  1.0000
  H   H1098     1.0  0.72682  0.82494  0.94075  1.0000
  H   H1099     1.0  0.77020  0.76088  0.87439  1.0000
  H   H1100     1.0  0.72499  0.78776  0.63657  1.0000
  H   H1101     1.0  0.96298  0.64313  0.82929  1.0000
  H   H1102     1.0  0.80128  0.52529  0.63919  1.0000
  C   C923      1.0  0.73505  0.80213  0.64757  1.0000
  H   H1103     1.0  0.71100  0.77227  0.68093  1.0000
  C   C924      1.0  0.79151  0.73370  0.68078  1.0000
  H   H1104     1.0  0.92744  0.70061  0.81623  1.0000
  Fe  Fe127     1.0  0.76115  0.62856  0.51466  1.0000
  C   C925      1.0  0.90586  0.63003  0.90695  1.0000
  H   H1105     1.0  0.80394  0.60004  0.59848  1.0000
  H   H1106     1.0  0.70553  0.80351  0.68934  1.0000
  C   C926      1.0  0.79893  0.59308  0.61894  1.0000
  C   C927      1.0  0.67533  0.98628  0.67319  1.0000
  H   H1107     1.0  0.97550  0.73633  0.76675  1.0000
  H   H1108     1.0  0.82293  0.57173  0.57234  1.0000
  H   H1109     1.0  0.69066  0.84527  0.61261  1.0000
  H   H1110     1.0  0.74940  0.68355  0.99410  1.0000
  C   C928      1.0  0.92135  0.64949  0.90868  1.0000
  H   H1111     1.0  0.75126  0.80689  0.63554  1.0000
  H   H1112     1.0  0.74930  0.77942  0.83448  1.0000
  C   C929      1.0  0.71952  0.79337  0.85818  1.0000
  C   C930      1.0  0.90741  0.63158  0.85735  1.0000
  C   C931      1.0  0.69798  0.95131  0.68941  1.0000
  C   C932      1.0  0.81253  0.55217  0.60912  1.0000
  C   C933      1.0  0.74333  0.77302  0.90354  1.0000
  C   C934      1.0  0.67481  0.83581  0.61909  1.0000
  H   H1113     1.0  0.90090  0.62389  0.83830  1.0000
  H   H1114     1.0  0.68659  0.54805  0.54561  1.0000
  H   H1115     1.0  0.70998  0.53716  0.52329  1.0000
  C   C935      1.0  0.75231  0.81624  0.68981  1.0000
  H   H1116     1.0  0.69715  0.68668  0.55422  1.0000
  C   C936      1.0  0.78489  0.74644  0.70435  1.0000
  H   H1117     1.0  0.77982  0.58730  0.61743  1.0000
  C   C937      1.0  0.78205  0.74067  0.65540  1.0000
  S   S254      1.0  0.72979  0.65050  0.53296  1.0000
  H   H1118     1.0  0.69688  0.82605  0.92653  1.0000
  H   H1119     1.0  0.78719  0.73054  0.63716  1.0000
  H   H1120     1.0  0.89870  0.62218  0.92545  1.0000
  C   C938      1.0  0.97983  0.71751  0.76273  1.0000
  H   H1121     1.0  0.79228  0.74087  0.72407  1.0000
  C   C939      1.0  0.76886  0.76624  0.70266  1.0000
  C   C940      1.0  0.80840  0.49945  0.98808  1.0000
  H   H1122     1.0  0.85338  0.56650  0.63379  1.0000
  N   N62       1.0  0.81517  0.57301  0.62802  1.0000
  C   C941      1.0  0.84052  0.58121  0.62763  1.0000
  C   C942      1.0  0.70881  0.81639  0.94138  1.0000
  H   H1123     1.0  0.93395  0.70031  0.85187  1.0000
  H   H1124     1.0  0.67791  0.78239  0.95680  1.0000
  H   H1125     1.0  0.75931  0.76475  0.63314  1.0000
  H   H1126     1.0  0.84326  0.59685  0.64174  1.0000
  H   H1127     1.0  0.73188  0.95836  0.70922  1.0000
  C   C943      1.0  0.76602  0.76050  0.65343  1.0000
  H   H1128     1.0  0.74037  0.83261  0.68776  1.0000
  C   C944      1.0  0.69288  0.54824  0.52399  1.0000
  C   C945      1.0  0.80260  0.50991  0.59942  1.0000
  C   C946      1.0  0.80915  0.56768  0.65698  1.0000
  C   C947      1.0  0.67482  0.58901  0.51535  1.0000
  C   C948      1.0  0.75906  0.77405  0.67712  1.0000
  H   H1129     1.0  0.75483  0.81368  0.71222  1.0000
  C   C949      1.0  0.67760  0.96128  0.67653  1.0000
  N   N63       1.0  0.74179  0.79486  0.67598  1.0000
  C   C950      1.0  0.81721  0.55473  0.58069  1.0000
  C   C951      1.0  0.66045  0.82398  0.59924  1.0000
  H   H1130     1.0  0.72257  0.78472  0.71242  1.0000
  H   H1131     1.0  0.77026  0.82053  0.68117  1.0000
  H   H1132     1.0  0.67346  0.78864  0.92153  1.0000
  H   H1133     1.0  0.73208  0.57146  0.53394  1.0000
  H   H1134     1.0  0.80490  0.49832  0.55727  1.0000
  C   C952      1.0  0.67686  0.70140  0.51998  1.0000
  C   C953      1.0  0.65817  0.83080  0.84659  1.0000
  H   H1135     1.0  0.73322  0.72562  0.99187  1.0000
  H   H1136     1.0  0.66565  0.71311  0.53262  1.0000
  H   H1137     1.0  0.81924  0.51309  0.97867  1.0000
  C   C954      1.0  0.68622  0.77988  0.93626  1.0000
  H   H1138     1.0  0.65867  0.88047  0.81434  1.0000
  Fe  Fe128     1.0  0.78110  0.57579  0.50639  1.0000
  H   H1139     1.0  0.67040  0.90868  0.80388  1.0000
  H   H1140     1.0  0.92479  0.66593  0.78949  1.0000
  C   C955      1.0  0.66873  0.83572  0.64711  1.0000
  H   H1141     1.0  0.72617  0.75895  0.95591  1.0000
  N   N64       1.0  0.69678  0.57327  0.51450  1.0000
  C   C956      1.0  0.65952  0.89993  0.81988  1.0000
  H   H1142     1.0  0.98252  0.67043  0.62261  1.0000
  H   H1143     1.0  0.92653  0.65648  0.92867  1.0000
  H   H1144     1.0  0.96680  0.67051  0.84857  1.0000
  H   H1145     1.0  0.96202  0.68793  0.66329  1.0000
  C   C957      1.0  0.98162  0.68701  0.66251  1.0000
  H   H1146     1.0  0.94172  0.67529  0.88719  1.0000
  H   H1147     1.0  0.74571  0.49061  0.51933  1.0000
  H   H1148     1.0  0.67326  0.86552  0.90195  1.0000
  H   H1149     1.0  0.66345  0.94951  0.66930  1.0000
  H   H1150     1.0  0.66969  0.90134  0.83960  1.0000
  C   C958      1.0  0.69639  0.71624  0.00035  1.0000
  C   C959      1.0  0.66494  0.85113  0.89039  1.0000
  C   C960      1.0  0.67617  0.61376  0.50834  1.0000
  S   S255      1.0  0.68617  0.74677  0.99920  1.0000
  H   H1151     1.0  0.65751  0.64808  0.50405  1.0000
  S   S256      1.0  0.79630  0.64512  0.50306  1.0000
  H   H1152     1.0  0.69307  0.62151  0.50231  1.0000
