data_image0
_chemical_formula_structural       HS2H3C6H2CH3C6H2C2NCHC3H3C2HCHCHSHCHC2H2CHC2HC2H3SFeC2HCH4CH3SFeS2FeSFeSFeS3C2SCHSFeSFeSH3SHCHSH7CHCH2C2FeCHC7H8CHCHC2HCH3C6H4CH2C3NH3NC9H11CHNCH3C2HCH2C2H2S2NHC2H3C3HC3H4FeCH3C2HC2HC2HCHCSHCHFeC2H3CH7CHC2SH2CNCH3CSH7C3HCH3CH3C2H2CH6SCH2CNFeCNCSH2CHCHFeCSFeS2FeCHS2FeCSFeS2FeCHS2C2SCSFeSNH2FeS2H4CS2FeC3H2SHCH2C2HC2NFeC6H4C6H4CHC2S2CFe2H2CH4FeCSH5FeCHSCHSCH4C2NH2C4HC2HSCHCH2C2NH3CHNC9H14CH2C2H3C2HSHC2HCHCHCH3CNHCSH3CFeH9C4H3C3HCNC2HCH2CHC3HNHFeSCH4C4HC5SHSFeS2FeS2FeSFeS3FeS2FeS2FeSFeS3HFeS2FeSFeHCHC3H3C6H4C6H4C6H5C2HCH2C6H4C6H3C2NC9H14NHNC9H13NHCHC6HCH2CH5CH3NCSHCHNC3HCSH2CHCHNC5H6CH2C2H4CHCH2C3HCH3CHCHCH4SH4CHC2HCH5FeSHSFeSFeS3FeCSFe2S2CS2HSFeS2H3FeSCH5CHSHSC7H2CHC2H3FeC8H2SCH2CHFeHCNC2H3C2HC2HC2NHCH3CH3CSHC3HC2H2CH3CHCH3Fe2S2FeS2FeCSHFeCSFeHSHFeS2HFeS2HSHSCHC5H5CH2C5H2C5H3C2HCHC2HCHCH4CH2CHCHCHC2H3C6HC3HCHN2HC2HSCH2FeNHSH2C2H3CH2CHC2H2CH2SH2CHCH2CFeS2FeS2FeSFeS3FeS2FeS2FeSFeS3HFeHSNHCHFeHSC2HSC2SHCH2SCFeCSC6HFeCHC6H7C6H4C6H4C6H5SHC3HCH2CH3NH2SHC2H4NC7H13CH2SH2CSH3C2H4CHC2H4CH2NCHC3HNHC3H6FeC3H2SHCH3CH2CH6CH2CSCHCHC2HCHCHC2SFeS2FeSFeS3FeS2FeSFeSFeS3HS3FeSCH2CHCHC2HCHC2H2C6H4C6H4CH2C2H4C2H3NC6H12CHC2HCHCSHCH2CH5C2HC4SCH2CH2C2HCHCH2C4H2CH2CNC8FeCH7CH3C2NCNHCH5CHCH3FeHCHNH4FeC2H3C3HC3H4C2HCHCHSHCHC2NC2H3CH3SH3CHFeHCH3C5FeS2FeSFeSFeS4HSFeS2FeSFeSH5SHSHC2FeSHFeCSFeH3S2CHC2H6CHNSCH3CHC6H4FeC3H4CH2NHC3HC7H4C8HNCH3CNC9H3C4HSH2SCHSFeH5CH6CH2CH4CH3NHCH2C3H2CH2CHCHCH3CHCHCH3NH3CH2CH2CH2CH2C2HCHC4H2CH4C2HCHCNHSCHCFeH2NSC2HC3H3SHCSC6H3C7H4NHSHC3H2CH2SCH2C6H2FeHCH3CH5CSHC2H4CH3SH7C
_chemical_formula_sum              "H864 S192 C720 N48 Fe96"
_cell_length_a       59.6602
_cell_length_b       59.6052
_cell_length_c       35.6195
_cell_angle_alpha    90.2356
_cell_angle_beta     90.3334
_cell_angle_gamma    89.9093

_space_group_name_H-M_alt    "P 1"
_space_group_IT_number       1

loop_
  _space_group_symop_operation_xyz
  'x, y, z'

loop_
  _atom_site_type_symbol
  _atom_site_label
  _atom_site_symmetry_multiplicity
  _atom_site_fract_x
  _atom_site_fract_y
  _atom_site_fract_z
  _atom_site_occupancy
  H   H1        1.0  0.01170  0.42330  0.07846  1.0000
  S   S1        1.0  0.06157  0.45860  0.16293  1.0000
  S   S2        1.0  0.00789  0.36606  0.19005  1.0000
  H   H2        1.0  0.99400  0.99659  0.99618  1.0000
  H   H3        1.0  0.06889  0.48341  0.98423  1.0000
  H   H4        1.0  0.10566  0.99336  0.25326  1.0000
  C   C1        1.0  0.04713  0.43252  0.17013  1.0000
  C   C2        1.0  0.05772  0.41347  0.18482  1.0000
  C   C3        1.0  0.04550  0.39339  0.19029  1.0000
  C   C4        1.0  0.02250  0.39185  0.18109  1.0000
  C   C5        1.0  0.01194  0.41090  0.16622  1.0000
  C   C6        1.0  0.02413  0.43103  0.16095  1.0000
  H   H5        1.0  0.07534  0.41414  0.19205  1.0000
  H   H6        1.0  0.05395  0.37887  0.20182  1.0000
  C   C7        1.0  0.01555  0.43621  0.05805  1.0000
  H   H7        1.0  0.01560  0.44560  0.14985  1.0000
  H   H8        1.0  0.99257  0.20587  0.18271  1.0000
  H   H9        1.0  0.02656  0.05817  0.26278  1.0000
  C   C8        1.0  0.04821  0.00760  0.15996  1.0000
  C   C9        1.0  0.04445  0.02952  0.14649  1.0000
  C   C10       1.0  0.02453  0.04147  0.15495  1.0000
  C   C11       1.0  0.00796  0.03172  0.17729  1.0000
  C   C12       1.0  0.01150  0.00960  0.19006  1.0000
  C   C13       1.0  0.03134  0.99759  0.18136  1.0000
  H   H10       1.0  0.05726  0.03754  0.12988  1.0000
  H   H11       1.0  0.02222  0.05840  0.14476  1.0000
  C   C14       1.0  0.06313  0.00429  0.27980  1.0000
  C   C15       1.0  0.22651  0.47801  0.18803  1.0000
  N   N1        1.0  0.06048  0.48059  0.04288  1.0000
  C   C16       1.0  0.00664  0.45585  0.00082  1.0000
  H   H12       1.0  0.04063  0.99996  0.32788  1.0000
  C   C17       1.0  0.03172  0.43178  0.27567  1.0000
  C   C18       1.0  0.24910  0.48199  0.17783  1.0000
  C   C19       1.0  0.04334  0.46967  0.29510  1.0000
  H   H13       1.0  0.04433  0.44709  0.08832  1.0000
  H   H14       1.0  0.07983  0.01519  0.22848  1.0000
  H   H15       1.0  0.10579  0.99977  0.30265  1.0000
  C   C20       1.0  0.03441  0.44980  0.06325  1.0000
  C   C21       1.0  0.10037  0.98723  0.28125  1.0000
  H   H16       1.0  0.03310  0.41770  0.25640  1.0000
  C   C22       1.0  0.02554  0.46949  0.00570  1.0000
  H   H17       1.0  0.99429  0.41018  0.15921  1.0000
  C   C23       1.0  0.06726  0.01899  0.24933  1.0000
  H   H18       1.0  0.26251  0.47299  0.19172  1.0000
  S   S3        1.0  0.07444  0.99395  0.14997  1.0000
  H   H19       1.0  0.05766  0.04906  0.21989  1.0000
  C   C24       1.0  0.00177  0.43913  0.02676  1.0000
  H   H20       1.0  0.09604  0.47625  0.05311  1.0000
  C   C25       1.0  0.04502  0.45082  0.27074  1.0000
  C   C26       1.0  0.05446  0.03837  0.24385  1.0000
  H   H21       1.0  0.99889  0.00177  0.20731  1.0000
  H   H22       1.0  0.98727  0.42842  0.02267  1.0000
  C   C27       1.0  0.01475  0.44882  0.33003  1.0000
  H   H23       1.0  0.05662  0.45065  0.24749  1.0000
  C   C28       1.0  0.03693  0.04352  0.26800  1.0000
  C   C29       1.0  0.03242  0.02954  0.29825  1.0000
  H   H24       1.0  0.02564  0.48133  0.34554  1.0000
  C   C30       1.0  0.04031  0.46653  0.03682  1.0000
  C   C31       1.0  0.02790  0.46802  0.32527  1.0000
  H   H25       1.0  0.01860  0.03356  0.31674  1.0000
  H   H26       1.0  0.22289  0.46594  0.20976  1.0000
  H   H27       1.0  0.08681  0.47051  0.27417  1.0000
  S   S4        1.0  0.18023  0.48318  0.18431  1.0000
  Fe  Fe1       1.0  0.09348  0.48074  0.16789  1.0000
  C   C32       1.0  0.04528  0.01019  0.30428  1.0000
  C   C33       1.0  0.01659  0.43079  0.30519  1.0000
  H   H28       1.0  0.00301  0.44788  0.35310  1.0000
  C   C34       1.0  0.08019  0.46636  0.05245  1.0000
  H   H29       1.0  0.00631  0.41596  0.30878  1.0000
  H   H30       1.0  0.07897  0.45877  0.08086  1.0000
  H   H31       1.0  0.08457  0.47758  0.32293  1.0000
  H   H32       1.0  0.08236  0.45256  0.03165  1.0000
  C   C35       1.0  0.08129  0.48385  0.29401  1.0000
  H   H33       1.0  0.02178  0.98702  0.04362  1.0000
  H   H34       1.0  0.02825  0.48221  0.98471  1.0000
  H   H35       1.0  0.99575  0.45820  0.97667  1.0000
  S   S5        1.0  0.27890  0.93788  0.19311  1.0000
  Fe  Fe2       1.0  0.13992  0.93610  0.15304  1.0000
  S   S6        1.0  0.12567  0.90298  0.17233  1.0000
  S   S7        1.0  0.17647  0.94035  0.13221  1.0000
  Fe  Fe3       1.0  0.09303  0.96021  0.16032  1.0000
  S   S8        1.0  0.07681  0.92859  0.18064  1.0000
  Fe  Fe4       1.0  0.10776  0.92337  0.21664  1.0000
  S   S9        1.0  0.10875  0.92025  0.28112  1.0000
  Fe  Fe5       1.0  0.09595  0.91089  0.13433  1.0000
  S   S10       1.0  0.07458  0.88625  0.09912  1.0000
  S   S11       1.0  0.12315  0.95627  0.19856  1.0000
  S   S12       1.0  0.11101  0.94279  0.11258  1.0000
  C   C36       1.0  0.02301  0.95104  0.03008  1.0000
  C   C37       1.0  0.14583  0.64451  0.37811  1.0000
  S   S13       1.0  0.13502  0.53235  0.16734  1.0000
  C   C38       1.0  0.05626  0.49622  0.07448  1.0000
  H   H36       1.0  0.15068  0.84927  0.34865  1.0000
  S   S14       1.0  0.08255  0.51690  0.16362  1.0000
  Fe  Fe6       1.0  0.11023  0.52151  0.12220  1.0000
  S   S15       1.0  0.10746  0.53692  0.06297  1.0000
  Fe  Fe7       1.0  0.10789  0.52444  0.20930  1.0000
  S   S16       1.0  0.09557  0.54701  0.25757  1.0000
  H   H37       1.0  0.23983  0.52045  0.10956  1.0000
  H   H38       1.0  0.11918  0.75456  0.46678  1.0000
  H   H39       1.0  0.05493  0.97669  0.07011  1.0000
  S   S17       1.0  0.12985  0.56286  0.42683  1.0000
  H   H40       1.0  0.07368  0.97513  0.22436  1.0000
  C   C39       1.0  0.28817  0.50829  0.24742  1.0000
  H   H41       1.0  0.04200  0.50768  0.06818  1.0000
  S   S18       1.0  0.10216  0.84036  0.40110  1.0000
  H   H42       1.0  0.20023  0.51350  0.12780  1.0000
  H   H43       1.0  0.14251  0.85723  0.28289  1.0000
  H   H44       1.0  0.28740  0.56521  0.24710  1.0000
  H   H45       1.0  0.28721  0.91316  0.12448  1.0000
  H   H46       1.0  0.01484  0.92921  0.09284  1.0000
  H   H47       1.0  0.22051  0.88851  0.16380  1.0000
  H   H48       1.0  0.05218  0.48717  0.10080  1.0000
  C   C40       1.0  0.24523  0.94414  0.13818  1.0000
  H   H49       1.0  0.04088  0.86166  0.05812  1.0000
  C   C41       1.0  0.05393  0.49792  0.24975  1.0000
  H   H50       1.0  0.05731  0.92282  0.01840  1.0000
  H   H51       1.0  0.28578  0.85389  0.09216  1.0000
  C   C42       1.0  0.08580  0.54863  0.03415  1.0000
  C   C43       1.0  0.06440  0.55361  0.04782  1.0000
  Fe  Fe8       1.0  0.12506  0.58932  0.47356  1.0000
  C   C44       1.0  0.11150  0.62430  0.38927  1.0000
  H   H52       1.0  0.06063  0.55061  0.07703  1.0000
  C   C45       1.0  0.20994  0.88825  0.10613  1.0000
  C   C46       1.0  0.10489  0.55026  0.30502  1.0000
  C   C47       1.0  0.09314  0.56497  0.32892  1.0000
  C   C48       1.0  0.10015  0.56861  0.36640  1.0000
  C   C49       1.0  0.11934  0.55793  0.38040  1.0000
  C   C50       1.0  0.13072  0.54272  0.35681  1.0000
  C   C51       1.0  0.12355  0.53884  0.31942  1.0000
  H   H53       1.0  0.07852  0.57369  0.31831  1.0000
  H   H54       1.0  0.09059  0.57948  0.38460  1.0000
  H   H55       1.0  0.14541  0.53408  0.36739  1.0000
  H   H56       1.0  0.13274  0.52737  0.30160  1.0000
  H   H57       1.0  0.11357  0.60051  0.00446  1.0000
  H   H58       1.0  0.20459  0.89842  0.34506  1.0000
  H   H59       1.0  0.01929  0.91758  0.00541  1.0000
  H   H60       1.0  0.19517  0.90589  0.28003  1.0000
  C   C52       1.0  0.22262  0.94463  0.12575  1.0000
  H   H61       1.0  0.03369  0.98075  0.19175  1.0000
  C   C53       1.0  0.25633  0.88791  0.08859  1.0000
  H   H62       1.0  0.15651  0.65304  0.35702  1.0000
  C   C54       1.0  0.07160  0.88000  0.05011  1.0000
  C   C55       1.0  0.08699  0.88731  0.02328  1.0000
  H   H63       1.0  0.03582  0.50045  0.24337  1.0000
  C   C56       1.0  0.05284  0.86759  0.03773  1.0000
  H   H64       1.0  0.10161  0.89671  0.03214  1.0000
  H   H65       1.0  0.26658  0.54436  0.40288  1.0000
  H   H66       1.0  0.08229  0.95555  0.32150  1.0000
  C   C57       1.0  0.10680  0.89766  0.31375  1.0000
  C   C58       1.0  0.10035  0.87598  0.30307  1.0000
  C   C59       1.0  0.09890  0.85877  0.33019  1.0000
  C   C60       1.0  0.10388  0.86293  0.36832  1.0000
  C   C61       1.0  0.11002  0.88470  0.37904  1.0000
  C   C62       1.0  0.11151  0.90188  0.35195  1.0000
  H   H67       1.0  0.09646  0.87244  0.27395  1.0000
  H   H68       1.0  0.09394  0.84208  0.32151  1.0000
  H   H69       1.0  0.11339  0.88835  0.40829  1.0000
  H   H70       1.0  0.11632  0.91860  0.36069  1.0000
  C   C63       1.0  0.25050  0.93915  0.17563  1.0000
  H   H71       1.0  0.16559  0.87245  0.44675  1.0000
  H   H72       1.0  0.14839  0.86233  0.40956  1.0000
  C   C64       1.0  0.20472  0.94028  0.15040  1.0000
  C   C65       1.0  0.20993  0.93560  0.18801  1.0000
  C   C66       1.0  0.23258  0.93511  0.20044  1.0000
  N   N2        1.0  0.28064  0.88893  0.08046  1.0000
  H   H73       1.0  0.16407  0.88584  0.24850  1.0000
  H   H74       1.0  0.19653  0.93231  0.20752  1.0000
  H   H75       1.0  0.23626  0.93146  0.22955  1.0000
  N   N3        1.0  0.18292  0.86825  0.39410  1.0000
  C   C67       1.0  0.18822  0.84413  0.39949  1.0000
  C   C68       1.0  0.20186  0.88142  0.41011  1.0000
  C   C69       1.0  0.16258  0.87382  0.41602  1.0000
  C   C70       1.0  0.17860  0.87281  0.35383  1.0000
  C   C71       1.0  0.19097  0.88888  0.33297  1.0000
  C   C72       1.0  0.16109  0.86142  0.33452  1.0000
  C   C73       1.0  0.18577  0.89336  0.29535  1.0000
  C   C74       1.0  0.15619  0.86591  0.29686  1.0000
  C   C75       1.0  0.16834  0.88200  0.27742  1.0000
  H   H76       1.0  0.19225  0.84035  0.42945  1.0000
  H   H77       1.0  0.17394  0.83305  0.39176  1.0000
  H   H78       1.0  0.20289  0.83900  0.38228  1.0000
  H   H79       1.0  0.19847  0.89977  0.40892  1.0000
  H   H80       1.0  0.21786  0.87764  0.39543  1.0000
  H   H81       1.0  0.20481  0.87741  0.44028  1.0000
  H   H82       1.0  0.03021  0.90943  0.06446  1.0000
  H   H83       1.0  0.10677  0.54913  0.98505  1.0000
  H   H84       1.0  0.05404  0.50748  0.00340  1.0000
  H   H85       1.0  0.12086  0.60931  0.39933  1.0000
  H   H86       1.0  0.06279  0.52377  0.30814  1.0000
  C   C76       1.0  0.13604  0.59312  0.26655  1.0000
  H   H87       1.0  0.27724  0.49464  0.25812  1.0000
  N   N4        1.0  0.04012  0.94424  0.05807  1.0000
  C   C77       1.0  0.05253  0.56745  0.98574  1.0000
  H   H88       1.0  0.23333  0.54040  0.36152  1.0000
  H   H89       1.0  0.30982  0.53379  0.30943  1.0000
  H   H90       1.0  0.19225  0.88928  0.11292  1.0000
  C   C78       1.0  0.12030  0.73906  0.48240  1.0000
  C   C79       1.0  0.06064  0.93690  0.03820  1.0000
  H   H91       1.0  0.10891  0.66858  0.37753  1.0000
  C   C80       1.0  0.12849  0.62259  0.32807  1.0000
  H   H92       1.0  0.07776  0.95144  0.25419  1.0000
  H   H93       1.0  0.21058  0.66923  0.46317  1.0000
  C   C81       1.0  0.24872  0.88787  0.12631  1.0000
  C   C82       1.0  0.04795  0.56300  0.02379  1.0000
  H   H94       1.0  0.06262  0.51413  0.24476  1.0000
  H   H95       1.0  0.11026  0.97155  0.28587  1.0000
  S   S19       1.0  0.14571  0.81514  0.46923  1.0000
  S   S20       1.0  0.28252  0.50369  0.13570  1.0000
  N   N5        1.0  0.27792  0.53063  0.25396  1.0000
  H   H96       1.0  0.15677  0.57432  0.30452  1.0000
  C   C83       1.0  0.01383  0.93492  0.00485  1.0000
  C   C84       1.0  0.28953  0.91076  0.09378  1.0000
  H   H97       1.0  0.20423  0.88911  0.04671  1.0000
  H   H98       1.0  0.10761  0.63460  0.41448  1.0000
  H   H99       1.0  0.06069  0.48613  0.22844  1.0000
  C   C85       1.0  0.12202  0.61164  0.26227  1.0000
  C   C86       1.0  0.21677  0.88833  0.06881  1.0000
  C   C87       1.0  0.03157  0.92530  0.08085  1.0000
  H   H100      1.0  0.10702  0.64013  0.28720  1.0000
  C   C88       1.0  0.29267  0.87057  0.10022  1.0000
  C   C89       1.0  0.05228  0.50880  0.31448  1.0000
  C   C90       1.0  0.28602  0.88685  0.03989  1.0000
  H   H101      1.0  0.07122  0.50677  0.08064  1.0000
  H   H102      1.0  0.30465  0.54092  0.37633  1.0000
  H   H103      1.0  0.03206  0.96884  0.10073  1.0000
  H   H104      1.0  0.15559  0.63032  0.39003  1.0000
  Fe  Fe9       1.0  0.11440  0.83615  0.46205  1.0000
  C   C91       1.0  0.22588  0.88780  0.13479  1.0000
  H   H105      1.0  0.26035  0.53054  0.20070  1.0000
  H   H106      1.0  0.07973  0.60235  0.04366  1.0000
  H   H107      1.0  0.03159  0.56708  0.03488  1.0000
  C   C92       1.0  0.29334  0.54810  0.23949  1.0000
  C   C93       1.0  0.26868  0.54133  0.37302  1.0000
  H   H108      1.0  0.11968  0.66809  0.33068  1.0000
  C   C94       1.0  0.03895  0.66991  0.99676  1.0000
  C   C95       1.0  0.06289  0.62656  0.00847  1.0000
  H   H109      1.0  0.31094  0.87055  0.09369  1.0000
  C   C96       1.0  0.21368  0.50469  0.14197  1.0000
  C   C97       1.0  0.24999  0.53918  0.34962  1.0000
  H   H110      1.0  0.27920  0.90119  0.02349  1.0000
  C   C98       1.0  0.27432  0.53395  0.29474  1.0000
  H   H111      1.0  0.07373  0.93086  0.05819  1.0000
  C   C99       1.0  0.14640  0.58913  0.30098  1.0000
  S   S21       1.0  0.14820  0.61907  0.47211  1.0000
  H   H112      1.0  0.30482  0.50661  0.26142  1.0000
  C   C100      1.0  0.25263  0.53547  0.31103  1.0000
  H   H113      1.0  0.21895  0.94841  0.09668  1.0000
  Fe  Fe10      1.0  0.14404  0.49568  0.17191  1.0000
  C   C101      1.0  0.25421  0.49727  0.14931  1.0000
  C   C102      1.0  0.25693  0.53188  0.23134  1.0000
  H   H114      1.0  0.08275  0.50328  0.01402  1.0000
  H   H115      1.0  0.13835  0.58143  0.24345  1.0000
  H   H116      1.0  0.11366  0.61434  0.23555  1.0000
  C   C103      1.0  0.06664  0.49416  0.00954  1.0000
  H   H117      1.0  0.30371  0.72548  0.44474  1.0000
  H   H118      1.0  0.11183  0.71809  0.43487  1.0000
  H   H119      1.0  0.06801  0.95081  0.02159  1.0000
  H   H120      1.0  0.27953  0.87084  0.02792  1.0000
  H   H121      1.0  0.15683  0.89125  0.41025  1.0000
  H   H122      1.0  0.04299  0.92126  0.10475  1.0000
  H   H123      1.0  0.25853  0.94803  0.11889  1.0000
  C   C104      1.0  0.11614  0.71838  0.46441  1.0000
  H   H124      1.0  0.14314  0.65639  0.40192  1.0000
  C   C105      1.0  0.11827  0.62629  0.29242  1.0000
  C   C106      1.0  0.23626  0.50856  0.13160  1.0000
  S   S22       1.0  0.11331  0.67246  0.46057  1.0000
  H   H125      1.0  0.23744  0.53380  0.29462  1.0000
  H   H126      1.0  0.31134  0.65367  0.40431  1.0000
  C   C107      1.0  0.04665  0.96243  0.08458  1.0000
  N   N6        1.0  0.12426  0.63716  0.36108  1.0000
  C   C108      1.0  0.08086  0.61281  0.01889  1.0000
  H   H127      1.0  0.29161  0.87209  0.13124  1.0000
  H   H128      1.0  0.24809  0.54812  0.23562  1.0000
  H   H129      1.0  0.29090  0.50508  0.21694  1.0000
  C   C109      1.0  0.29292  0.53555  0.31961  1.0000
  S   S23       1.0  0.31338  0.61476  0.46493  1.0000
  H   H130      1.0  0.24368  0.88854  0.03050  1.0000
  H   H131      1.0  0.30778  0.91236  0.08831  1.0000
  H   H132      1.0  0.09526  0.61837  0.37741  1.0000
  H   H133      1.0  0.14991  0.59875  0.35813  1.0000
  H   H134      1.0  0.28096  0.92499  0.07955  1.0000
  H   H135      1.0  0.30450  0.88695  0.03511  1.0000
  H   H136      1.0  0.05087  0.96487  0.25196  1.0000
  C   C110      1.0  0.01539  0.97355  0.02625  1.0000
  C   C111      1.0  0.23961  0.88810  0.05994  1.0000
  C   C112      1.0  0.11115  0.65772  0.35220  1.0000
  H   H137      1.0  0.09390  0.65360  0.34231  1.0000
  C   C113      1.0  0.29010  0.53940  0.35805  1.0000
  H   H138      1.0  0.05409  0.96494  0.32100  1.0000
  H   H139      1.0  0.26034  0.88889  0.14970  1.0000
  H   H140      1.0  0.31075  0.54616  0.25040  1.0000
  C   C114      1.0  0.14249  0.60340  0.33148  1.0000
  H   H141      1.0  0.29474  0.54730  0.20831  1.0000
  H   H142      1.0  0.03450  0.51424  0.31179  1.0000
  H   H143      1.0  0.24529  0.51782  0.23780  1.0000
  C   C115      1.0  0.04938  0.86267  0.99922  1.0000
  C   C116      1.0  0.07169  0.97096  0.31912  1.0000
  H   H144      1.0  0.04812  0.62609  0.02583  1.0000
  H   H145      1.0  0.03321  0.66087  0.02216  1.0000
  C   C117      1.0  0.06925  0.96798  0.25212  1.0000
  H   H146      1.0  0.05915  0.95643  0.10564  1.0000
  H   H147      1.0  0.31178  0.68587  0.43493  1.0000
  H   H148      1.0  0.03493  0.85304  0.99034  1.0000
  H   H149      1.0  0.31481  0.66098  0.35569  1.0000
  H   H150      1.0  0.09242  0.49861  0.28942  1.0000
  H   H151      1.0  0.05602  0.50450  0.34425  1.0000
  S   S24       1.0  0.11743  0.48822  0.21585  1.0000
  C   C118      1.0  0.99935  0.97932  0.99910  1.0000
  H   H152      1.0  0.07565  0.98170  0.34389  1.0000
  H   H153      1.0  0.05386  0.68009  0.00490  1.0000
  C   C119      1.0  0.20853  0.48925  0.17021  1.0000
  N   N7        1.0  0.05735  0.48979  0.28872  1.0000
  Fe  Fe11      1.0  0.31661  0.93362  0.17793  1.0000
  C   C120      1.0  0.09031  0.55290  0.99604  1.0000
  N   N8        1.0  0.07586  0.98304  0.28339  1.0000
  C   C121      1.0  0.08356  0.88234  0.98479  1.0000
  S   S25       1.0  0.12068  0.48508  0.12451  1.0000
  H   H154      1.0  0.18426  0.70400  0.46093  1.0000
  H   H155      1.0  0.02519  0.68174  0.98911  1.0000
  C   C122      1.0  0.09995  0.61169  0.99670  1.0000
  H   H156      1.0  0.16366  0.68635  0.48215  1.0000
  C   C123      1.0  0.31677  0.72059  0.42531  1.0000
  H   H157      1.0  0.18657  0.65533  0.48308  1.0000
  Fe  Fe12      1.0  0.03298  0.83083  0.80116  1.0000
  C   C124      1.0  0.99051  0.70310  0.86841  1.0000
  S   S26       1.0  0.04672  0.82018  0.74346  1.0000
  Fe  Fe13      1.0  0.03621  0.84625  0.88433  1.0000
  S   S27       1.0  0.99991  0.83807  0.89561  1.0000
  S   S28       1.0  0.06156  0.86426  0.92322  1.0000
  Fe  Fe14      1.0  0.00651  0.80592  0.86240  1.0000
  C   C125      1.0  0.03982  0.88775  0.61291  1.0000
  H   H158      1.0  0.99707  0.54892  0.63973  1.0000
  S   S29       1.0  0.04324  0.81316  0.85464  1.0000
  S   S30       1.0  0.02865  0.86431  0.82976  1.0000
  Fe  Fe15      1.0  0.02693  0.58972  0.89510  1.0000
  C   C126      1.0  0.23566  0.84902  0.51213  1.0000
  S   S31       1.0  0.03130  0.58036  0.95749  1.0000
  Fe  Fe16      1.0  0.04025  0.59207  0.81094  1.0000
  S   S32       1.0  0.00851  0.60973  0.79515  1.0000
  S   S33       1.0  0.06838  0.58506  0.76877  1.0000
  Fe  Fe17      1.0  0.01437  0.63141  0.84667  1.0000
  C   C127      1.0  0.06323  0.65082  0.76462  1.0000
  H   H159      1.0  0.99311  0.90270  0.76583  1.0000
  S   S34       1.0  0.04702  0.61424  0.86114  1.0000
  S   S35       1.0  0.02310  0.56576  0.84630  1.0000
  C   C128      1.0  0.23053  0.57441  0.51428  1.0000
  C   C129      1.0  0.04033  0.90569  0.63805  1.0000
  S   S36       1.0  0.12626  0.63556  0.55228  1.0000
  C   C130      1.0  0.11756  0.69817  0.48443  1.0000
  S   S37       1.0  0.13318  0.58152  0.53461  1.0000
  Fe  Fe18      1.0  0.10451  0.60481  0.54947  1.0000
  S   S38       1.0  0.07537  0.60058  0.59105  1.0000
  N   N9        1.0  0.04436  0.65443  0.96532  1.0000
  H   H160      1.0  0.20119  0.73321  0.50050  1.0000
  H   H161      1.0  0.01924  0.63032  0.98235  1.0000
  Fe  Fe19      1.0  0.10991  0.84411  0.54783  1.0000
  S   S39       1.0  0.02059  0.66983  0.84329  1.0000
  S   S40       1.0  0.09365  0.86198  0.59822  1.0000
  H   H162      1.0  0.27088  0.81965  0.63362  1.0000
  H   H163      1.0  0.08110  0.65564  0.76858  1.0000
  H   H164      1.0  0.04252  0.70041  0.73340  1.0000
  H   H165      1.0  0.30682  0.55005  0.56317  1.0000
  C   C131      1.0  0.02605  0.71608  0.84513  1.0000
  S   S41       1.0  0.14137  0.82475  0.55917  1.0000
  S   S42       1.0  0.27612  0.79896  0.54968  1.0000
  Fe  Fe20      1.0  0.30851  0.58793  0.50766  1.0000
  C   C132      1.0  0.25244  0.81494  0.53674  1.0000
  C   C133      1.0  0.23089  0.80653  0.54374  1.0000
  C   C134      1.0  0.21175  0.81922  0.53446  1.0000
  H   H166      1.0  0.22900  0.79015  0.55626  1.0000
  H   H167      1.0  0.19519  0.81262  0.53982  1.0000
  S   S43       1.0  0.12592  0.86378  0.50070  1.0000
  H   H168      1.0  0.08543  0.64755  0.92768  1.0000
  C   C135      1.0  0.12313  0.69875  0.52260  1.0000
  H   H169      1.0  0.08699  0.66126  0.59703  1.0000
  H   H170      1.0  0.00985  0.65008  0.94777  1.0000
  C   C136      1.0  0.21413  0.84061  0.51902  1.0000
  C   C137      1.0  0.25175  0.58383  0.52099  1.0000
  H   H171      1.0  0.26677  0.60648  0.61721  1.0000
  C   C138      1.0  0.21092  0.58613  0.52422  1.0000
  C   C139      1.0  0.21249  0.60706  0.54189  1.0000
  N   N10       1.0  0.00079  0.88468  0.71461  1.0000
  Fe  Fe21      1.0  0.99124  0.58454  0.83322  1.0000
  C   C140      1.0  0.07034  0.59079  0.71970  1.0000
  C   C141      1.0  0.05193  0.59817  0.69859  1.0000
  C   C142      1.0  0.05386  0.60127  0.65944  1.0000
  C   C143      1.0  0.07434  0.59753  0.64088  1.0000
  C   C144      1.0  0.09294  0.59080  0.66220  1.0000
  C   C145      1.0  0.09088  0.58733  0.70128  1.0000
  H   H172      1.0  0.03611  0.60102  0.71229  1.0000
  H   H173      1.0  0.03937  0.60647  0.64329  1.0000
  H   H174      1.0  0.10879  0.58776  0.64844  1.0000
  H   H175      1.0  0.10529  0.58166  0.71724  1.0000
  C   C146      1.0  0.05929  0.83267  0.70335  1.0000
  C   C147      1.0  0.06758  0.85463  0.70339  1.0000
  C   C148      1.0  0.07791  0.86335  0.67096  1.0000
  C   C149      1.0  0.08018  0.85026  0.63816  1.0000
  C   C150      1.0  0.07160  0.82844  0.63801  1.0000
  C   C151      1.0  0.06141  0.81968  0.67045  1.0000
  H   H176      1.0  0.06635  0.86481  0.72849  1.0000
  H   H177      1.0  0.08432  0.88032  0.67137  1.0000
  H   H178      1.0  0.07278  0.81829  0.61284  1.0000
  H   H179      1.0  0.05500  0.80271  0.66997  1.0000
  C   C152      1.0  0.99856  0.74372  0.86667  1.0000
  H   H180      1.0  0.02372  0.52927  0.75920  1.0000
  C   C153      1.0  0.01452  0.54711  0.64736  1.0000
  C   C154      1.0  0.01152  0.69807  0.85308  1.0000
  S   S44       1.0  0.09558  0.81802  0.50846  1.0000
  S   S45       1.0  0.13211  0.76490  0.54426  1.0000
  C   C155      1.0  0.31747  0.60624  0.66090  1.0000
  Fe  Fe22      1.0  0.30994  0.80981  0.52733  1.0000
  Fe  Fe23      1.0  0.11885  0.63956  0.49107  1.0000
  H   H181      1.0  0.08876  0.63973  0.71071  1.0000
  H   H182      1.0  0.02005  0.65782  0.76243  1.0000
  C   C156      1.0  0.31005  0.79818  0.64502  1.0000
  H   H183      1.0  0.05107  0.65792  0.90610  1.0000
  H   H184      1.0  0.03362  0.67929  0.92477  1.0000
  H   H185      1.0  0.02697  0.85485  0.60144  1.0000
  H   H186      1.0  0.27088  0.69645  0.54569  1.0000
  Fe  Fe24      1.0  0.12801  0.79939  0.51814  1.0000
  C   C157      1.0  0.04833  0.66843  0.93157  1.0000
  S   S46       1.0  0.99657  0.82213  0.80801  1.0000
  H   H187      1.0  0.30292  0.80265  0.72377  1.0000
  H   H188      1.0  0.18177  0.69571  0.56367  1.0000
  H   H189      1.0  0.05156  0.54075  0.72051  1.0000
  H   H190      1.0  0.00214  0.58182  0.71411  1.0000
  H   H191      1.0  0.02097  0.90659  0.74936  1.0000
  Fe  Fe25      1.0  0.15422  0.61292  0.53318  1.0000
  C   C158      1.0  0.06478  0.86995  0.97238  1.0000
  H   H192      1.0  0.99104  0.92822  0.95897  1.0000
  S   S47       1.0  0.19064  0.85755  0.50897  1.0000
  C   C159      1.0  0.02805  0.65799  0.73421  1.0000
  H   H193      1.0  0.19882  0.67079  0.56460  1.0000
  S   S48       1.0  0.18842  0.62179  0.55679  1.0000
  C   C160      1.0  0.01409  0.86817  0.65349  1.0000
  H   H194      1.0  0.30442  0.51265  0.62509  1.0000
  H   H195      1.0  0.03860  0.68794  0.67299  1.0000
  H   H196      1.0  0.30231  0.79282  0.61786  1.0000
  H   H197      1.0  0.99744  0.92016  0.72601  1.0000
  C   C161      1.0  0.21603  0.70069  0.51611  1.0000
  C   C162      1.0  0.04463  0.54220  0.69254  1.0000
  N   N11       1.0  0.30493  0.82200  0.65395  1.0000
  H   H198      1.0  0.03104  0.75217  0.84517  1.0000
  H   H199      1.0  0.04548  0.68983  0.77968  1.0000
  C   C163      1.0  0.28042  0.82433  0.65956  1.0000
  C   C164      1.0  0.12596  0.73958  0.52054  1.0000
  C   C165      1.0  0.05296  0.54507  0.62626  1.0000
  C   C166      1.0  0.31035  0.56960  0.63124  1.0000
  H   H200      1.0  0.27594  0.84195  0.66686  1.0000
  C   C167      1.0  0.02128  0.54500  0.68550  1.0000
  C   C168      1.0  0.99772  0.94086  0.97799  1.0000
  H   H201      1.0  0.23506  0.63256  0.56254  1.0000
  S   S49       1.0  0.27609  0.56841  0.50969  1.0000
  C   C169      1.0  0.25550  0.70425  0.53567  1.0000
  H   H202      1.0  0.01764  0.66929  0.71655  1.0000
  C   C170      1.0  0.01425  0.88612  0.67987  1.0000
  H   H203      1.0  0.99801  0.86327  0.76285  1.0000
  H   H204      1.0  0.17045  0.71225  0.50397  1.0000
  C   C171      1.0  0.12736  0.71937  0.54053  1.0000
  C   C172      1.0  0.08088  0.65051  0.69020  1.0000
  N   N12       1.0  0.00440  0.54584  0.71586  1.0000
  H   H205      1.0  0.30643  0.71545  0.52999  1.0000
  H   H206      1.0  0.07006  0.69502  0.75201  1.0000
  H   H207      1.0  0.00501  0.84865  0.72093  1.0000
  C   C173      1.0  0.21596  0.72428  0.50986  1.0000
  H   H208      1.0  0.09567  0.88802  0.96444  1.0000
  N   N13       1.0  0.13679  0.80726  0.67111  1.0000
  C   C174      1.0  0.12131  0.80040  0.64052  1.0000
  C   C175      1.0  0.14613  0.78659  0.68846  1.0000
  C   C176      1.0  0.12371  0.81915  0.70059  1.0000
  C   C177      1.0  0.15426  0.82201  0.65508  1.0000
  C   C178      1.0  0.14943  0.84476  0.64613  1.0000
  C   C179      1.0  0.17568  0.81373  0.64425  1.0000
  C   C180      1.0  0.16509  0.85831  0.62799  1.0000
  C   C181      1.0  0.19121  0.82747  0.62613  1.0000
  C   C182      1.0  0.18588  0.84966  0.61781  1.0000
  H   H209      1.0  0.13006  0.79021  0.61872  1.0000
  H   H210      1.0  0.10699  0.79034  0.65110  1.0000
  H   H211      1.0  0.11423  0.81523  0.62577  1.0000
  H   H212      1.0  0.15312  0.77487  0.66710  1.0000
  H   H213      1.0  0.13297  0.77675  0.70311  1.0000
  H   H214      1.0  0.15940  0.79075  0.70944  1.0000
  H   H215      1.0  0.13496  0.82674  0.72218  1.0000
  H   H216      1.0  0.11292  0.83262  0.68897  1.0000
  H   H217      1.0  0.11175  0.80781  0.71512  1.0000
  H   H218      1.0  0.13309  0.85203  0.65093  1.0000
  H   H219      1.0  0.18056  0.79648  0.64827  1.0000
  H   H220      1.0  0.16065  0.87534  0.62020  1.0000
  H   H221      1.0  0.20720  0.82068  0.61719  1.0000
  H   H222      1.0  0.19758  0.85993  0.60225  1.0000
  C   C183      1.0  0.99044  0.96300  0.97520  1.0000
  H   H223      1.0  0.05460  0.68591  0.61006  1.0000
  H   H224      1.0  0.05011  0.88804  0.58789  1.0000
  C   C184      1.0  0.01441  0.54516  0.75412  1.0000
  C   C185      1.0  0.00328  0.90448  0.73982  1.0000
  H   H225      1.0  0.29367  0.53206  0.65950  1.0000
  H   H226      1.0  0.02673  0.64079  0.72218  1.0000
  H   H227      1.0  0.07771  0.56552  0.94290  1.0000
  C   C186      1.0  0.23524  0.73721  0.51586  1.0000
  C   C187      1.0  0.29668  0.61409  0.64867  1.0000
  H   H228      1.0  0.29159  0.63116  0.65484  1.0000
  S   S50       1.0  0.98951  0.77203  0.87574  1.0000
  H   H229      1.0  0.07790  0.54084  0.66928  1.0000
  C   C188      1.0  0.18657  0.68049  0.54736  1.0000
  C   C189      1.0  0.06201  0.66422  0.69867  1.0000
  H   H230      1.0  0.02600  0.55954  0.75892  1.0000
  C   C190      1.0  0.23371  0.61645  0.54865  1.0000
  H   H231      1.0  0.19464  0.57872  0.51902  1.0000
  C   C191      1.0  0.25477  0.83615  0.52063  1.0000
  H   H232      1.0  0.13170  0.71968  0.57006  1.0000
  C   C192      1.0  0.08342  0.63842  0.95353  1.0000
  H   H233      1.0  0.27422  0.81337  0.68239  1.0000
  H   H234      1.0  0.30164  0.82983  0.59508  1.0000
  H   H235      1.0  0.99837  0.51031  0.71362  1.0000
  C   C193      1.0  0.06196  0.67616  0.63263  1.0000
  N   N14       1.0  0.05180  0.66527  0.73647  1.0000
  H   H236      1.0  0.05090  0.92001  0.63213  1.0000
  C   C194      1.0  0.08032  0.66241  0.62524  1.0000
  S   S51       1.0  0.99422  0.60793  0.88332  1.0000
  H   H237      1.0  0.23760  0.86556  0.50018  1.0000
  H   H238      1.0  0.26986  0.73738  0.53300  1.0000
  H   H239      1.0  0.06245  0.63281  0.75648  1.0000
  C   C195      1.0  0.25327  0.60505  0.53767  1.0000
  Fe  Fe26      1.0  0.15618  0.84191  0.50991  1.0000
  H   H240      1.0  0.00450  0.85312  0.65838  1.0000
  H   H241      1.0  0.23492  0.75517  0.51078  1.0000
  H   H242      1.0  0.02576  0.86542  0.74393  1.0000
  H   H243      1.0  0.04253  0.71266  0.83408  1.0000
  H   H244      1.0  0.06515  0.54605  0.60383  1.0000
  H   H245      1.0  0.26955  0.61246  0.54285  1.0000
  H   H246      1.0  0.12424  0.68336  0.53834  1.0000
  H   H247      1.0  0.05521  0.65204  0.79273  1.0000
  H   H248      1.0  0.10389  0.63881  0.64781  1.0000
  C   C196      1.0  0.28271  0.60017  0.62753  1.0000
  C   C197      1.0  0.05293  0.67714  0.66876  1.0000
  C   C198      1.0  0.08985  0.64980  0.65400  1.0000
  C   C199      1.0  0.05254  0.68864  0.75087  1.0000
  H   H249      1.0  0.00135  0.54614  0.77630  1.0000
  H   H250      1.0  0.28404  0.53271  0.61153  1.0000
  H   H251      1.0  0.17138  0.66973  0.54443  1.0000
  C   C200      1.0  0.06011  0.54219  0.66319  1.0000
  C   C201      1.0  0.02675  0.86903  0.62062  1.0000
  C   C202      1.0  0.01962  0.73865  0.85161  1.0000
  H   H252      1.0  0.06294  0.67979  0.93556  1.0000
  C   C203      1.0  0.02459  0.64011  0.95744  1.0000
  N   N15       1.0  0.31724  0.54648  0.62104  1.0000
  C   C204      1.0  0.31092  0.83551  0.62058  1.0000
  C   C205      1.0  0.23628  0.69120  0.53011  1.0000
  H   H253      1.0  0.02916  0.91941  0.68943  1.0000
  C   C206      1.0  0.29905  0.53034  0.62974  1.0000
  H   H254      1.0  0.22925  0.55799  0.50139  1.0000
  H   H255      1.0  0.27854  0.56871  0.60027  1.0000
  C   C207      1.0  0.25498  0.72721  0.52849  1.0000
  H   H256      1.0  0.30666  0.85355  0.62437  1.0000
  C   C208      1.0  0.03020  0.54738  0.61832  1.0000
  C   C209      1.0  0.28950  0.57836  0.61845  1.0000
  C   C210      1.0  0.07381  0.56214  0.97195  1.0000
  H   H257      1.0  0.27129  0.84276  0.51508  1.0000
  N   N16       1.0  0.19589  0.68652  0.51031  1.0000
  H   H258      1.0  0.23747  0.67362  0.53716  1.0000
  Fe  Fe27      1.0  0.99263  0.85466  0.83985  1.0000
  S   S52       1.0  0.09496  0.61037  0.48834  1.0000
  C   C211      1.0  0.98898  0.52645  0.71224  1.0000
  H   H259      1.0  0.21243  0.65407  0.50666  1.0000
  H   H260      1.0  0.02480  0.54982  0.58950  1.0000
  H   H261      1.0  0.02845  0.62761  0.93517  1.0000
  H   H262      1.0  0.11597  0.62314  0.94657  1.0000
  C   C212      1.0  0.00766  0.86466  0.73637  1.0000
  C   C213      1.0  0.99109  0.56685  0.71310  1.0000
  C   C214      1.0  0.02776  0.90503  0.67109  1.0000
  C   C215      1.0  0.31411  0.81684  0.72244  1.0000
  H   H263      1.0  0.30370  0.78641  0.66650  1.0000
  C   C216      1.0  0.06368  0.64002  0.97567  1.0000
  C   C217      1.0  0.17792  0.69787  0.48834  1.0000
  C   C218      1.0  0.10121  0.62441  0.96407  1.0000
  C   C219      1.0  0.20171  0.66553  0.48982  1.0000
  C   C220      1.0  0.31704  0.82892  0.68853  1.0000
  S   S53       1.0  0.31756  0.66910  0.52288  1.0000
  H   H264      1.0  0.57801  0.17307  0.45239  1.0000
  S   S54       1.0  0.39162  0.44644  0.13508  1.0000
  Fe  Fe28      1.0  0.50692  0.29915  0.16160  1.0000
  S   S55       1.0  0.54300  0.30839  0.15300  1.0000
  S   S56       1.0  0.49069  0.26393  0.16709  1.0000
  Fe  Fe29      1.0  0.49302  0.34952  0.16989  1.0000
  S   S57       1.0  0.52870  0.36160  0.16236  1.0000
  S   S58       1.0  0.46246  0.37083  0.18892  1.0000
  Fe  Fe30      1.0  0.53062  0.33628  0.11516  1.0000
  S   S59       1.0  0.55053  0.33951  0.06000  1.0000
  Fe  Fe31      1.0  0.53890  0.33309  0.20065  1.0000
  S   S60       1.0  0.56901  0.33654  0.24091  1.0000
  S   S61       1.0  0.49437  0.32544  0.12062  1.0000
  S   S62       1.0  0.50342  0.32259  0.21138  1.0000
  Fe  Fe32      1.0  0.52204  0.07684  0.11790  1.0000
  S   S63       1.0  0.49055  0.09783  0.12174  1.0000
  S   S64       1.0  0.52664  0.05793  0.06236  1.0000
  Fe  Fe33      1.0  0.53421  0.08675  0.20081  1.0000
  S   S65       1.0  0.50338  0.10773  0.20980  1.0000
  S   S66       1.0  0.56351  0.08187  0.24159  1.0000
  Fe  Fe34      1.0  0.48524  0.08007  0.17704  1.0000
  S   S67       1.0  0.45235  0.06467  0.19946  1.0000
  Fe  Fe35      1.0  0.51126  0.12350  0.15379  1.0000
  S   S68       1.0  0.51949  0.16059  0.13984  1.0000
  S   S69       1.0  0.51590  0.05835  0.17186  1.0000
  S   S70       1.0  0.54296  0.10322  0.14623  1.0000
  H   H265      1.0  0.54807  0.26377  0.39818  1.0000
  Fe  Fe36      1.0  0.60735  0.33308  0.46313  1.0000
  S   S71       1.0  0.57817  0.33330  0.42052  1.0000
  S   S72       1.0  0.62143  0.14133  0.45619  1.0000
  Fe  Fe37      1.0  0.60519  0.10733  0.45633  1.0000
  S   S73       1.0  0.57519  0.10081  0.41717  1.0000
  Fe  Fe38      1.0  0.36710  0.47494  0.15264  1.0000
  H   H266      1.0  0.58673  0.14914  0.38897  1.0000
  C   C221      1.0  0.59891  0.22494  0.43393  1.0000
  H   H267      1.0  0.49000  0.06317  0.24453  1.0000
  C   C222      1.0  0.55057  0.04935  0.03621  1.0000
  C   C223      1.0  0.57217  0.05725  0.04418  1.0000
  C   C224      1.0  0.43125  0.45724  0.26166  1.0000
  H   H268      1.0  0.56593  0.28735  0.39173  1.0000
  H   H269      1.0  0.57487  0.06835  0.06784  1.0000
  H   H270      1.0  0.53090  0.02855  0.99896  1.0000
  C   C225      1.0  0.56677  0.08939  0.28971  1.0000
  C   C226      1.0  0.58799  0.08706  0.30672  1.0000
  C   C227      1.0  0.59111  0.09126  0.34542  1.0000
  C   C228      1.0  0.57287  0.09745  0.36769  1.0000
  C   C229      1.0  0.55172  0.10016  0.35053  1.0000
  C   C230      1.0  0.54872  0.09649  0.31168  1.0000
  H   H271      1.0  0.60208  0.08158  0.28999  1.0000
  H   H272      1.0  0.60744  0.08902  0.35821  1.0000
  H   H273      1.0  0.53752  0.10493  0.36754  1.0000
  H   H274      1.0  0.53233  0.09851  0.29913  1.0000
  C   C231      1.0  0.57115  0.33506  0.29091  1.0000
  C   C232      1.0  0.55233  0.33320  0.31396  1.0000
  C   C233      1.0  0.55489  0.33271  0.35342  1.0000
  C   C234      1.0  0.57622  0.33396  0.37048  1.0000
  C   C235      1.0  0.59507  0.33549  0.34743  1.0000
  C   C236      1.0  0.59251  0.33613  0.30795  1.0000
  H   H275      1.0  0.53579  0.33241  0.30143  1.0000
  H   H276      1.0  0.54016  0.33156  0.37089  1.0000
  H   H277      1.0  0.61159  0.33644  0.36000  1.0000
  H   H278      1.0  0.60721  0.33755  0.29052  1.0000
  C   C237      1.0  0.49958  0.23532  0.16051  1.0000
  C   C238      1.0  0.48543  0.21778  0.17233  1.0000
  C   C239      1.0  0.49127  0.19494  0.16683  1.0000
  C   C240      1.0  0.51131  0.18917  0.14886  1.0000
  C   C241      1.0  0.52553  0.20670  0.13727  1.0000
  C   C242      1.0  0.51982  0.22953  0.14320  1.0000
  H   H279      1.0  0.46970  0.22188  0.18568  1.0000
  H   H280      1.0  0.48002  0.18183  0.17585  1.0000
  H   H281      1.0  0.54108  0.20262  0.12333  1.0000
  H   H282      1.0  0.53092  0.24266  0.13377  1.0000
  H   H283      1.0  0.51844  0.06560  0.25987  1.0000
  C   C243      1.0  0.54886  0.38292  0.03005  1.0000
  C   C244      1.0  0.55849  0.36150  0.02875  1.0000
  H   H284      1.0  0.55205  0.15031  0.99928  1.0000
  C   C245      1.0  0.57897  0.23804  0.43504  1.0000
  H   H285      1.0  0.53625  0.38665  0.05086  1.0000
  H   H286      1.0  0.61218  0.26906  0.45207  1.0000
  C   C246      1.0  0.41102  0.42525  0.15074  1.0000
  C   C247      1.0  0.40965  0.41510  0.18607  1.0000
  C   C248      1.0  0.42534  0.39845  0.19693  1.0000
  C   C249      1.0  0.44276  0.39157  0.17282  1.0000
  C   C250      1.0  0.44390  0.40139  0.13722  1.0000
  C   C251      1.0  0.42811  0.41797  0.12629  1.0000
  H   H287      1.0  0.39633  0.41984  0.20489  1.0000
  H   H288      1.0  0.42406  0.39093  0.22443  1.0000
  H   H289      1.0  0.45700  0.39632  0.11810  1.0000
  H   H290      1.0  0.42929  0.42538  0.09870  1.0000
  C   C252      1.0  0.41145  0.99994  0.17147  1.0000
  C   C253      1.0  0.40474  0.01477  0.19993  1.0000
  C   C254      1.0  0.41743  0.03433  0.20803  1.0000
  C   C255      1.0  0.43710  0.03948  0.18800  1.0000
  C   C256      1.0  0.44399  0.02451  0.15990  1.0000
  C   C257      1.0  0.43126  0.00501  0.15173  1.0000
  H   H291      1.0  0.61529  0.23225  0.43019  1.0000
  H   H292      1.0  0.41179  0.04568  0.22979  1.0000
  H   H293      1.0  0.45903  0.02803  0.14419  1.0000
  C   C258      1.0  0.60167  0.27253  0.42680  1.0000
  C   C259      1.0  0.57483  0.35709  0.00123  1.0000
  N   N17       1.0  0.42932  0.30069  0.16097  1.0000
  C   C260      1.0  0.43997  0.29768  0.12376  1.0000
  C   C261      1.0  0.44619  0.30973  0.18779  1.0000
  C   C262      1.0  0.42275  0.27811  0.17456  1.0000
  C   C263      1.0  0.41037  0.31667  0.15756  1.0000
  C   C264      1.0  0.38776  0.31060  0.16486  1.0000
  C   C265      1.0  0.41430  0.33919  0.14646  1.0000
  C   C266      1.0  0.37035  0.32627  0.16146  1.0000
  C   C267      1.0  0.39680  0.35469  0.14323  1.0000
  C   C268      1.0  0.37487  0.34826  0.15075  1.0000
  H   H294      1.0  0.44650  0.31370  0.11238  1.0000
  H   H295      1.0  0.45451  0.28592  0.12523  1.0000
  H   H296      1.0  0.42783  0.29088  0.10281  1.0000
  H   H297      1.0  0.45463  0.32491  0.17696  1.0000
  H   H298      1.0  0.45981  0.29742  0.19369  1.0000
  H   H299      1.0  0.43840  0.31440  0.21505  1.0000
  H   H300      1.0  0.41086  0.26973  0.15485  1.0000
  H   H301      1.0  0.43758  0.26672  0.17694  1.0000
  H   H302      1.0  0.41514  0.27906  0.20299  1.0000
  H   H303      1.0  0.38306  0.29391  0.17337  1.0000
  H   H304      1.0  0.43103  0.34509  0.14048  1.0000
  H   H305      1.0  0.35321  0.32137  0.16725  1.0000
  H   H306      1.0  0.40031  0.37186  0.13508  1.0000
  H   H307      1.0  0.58257  0.38480  0.09112  1.0000
  N   N18       1.0  0.57889  0.26274  0.43049  1.0000
  H   H308      1.0  0.39615  0.46420  0.21483  1.0000
  N   N19       1.0  0.55033  0.16165  0.25127  1.0000
  C   C269      1.0  0.56196  0.17992  0.23107  1.0000
  C   C270      1.0  0.55318  0.14049  0.22980  1.0000
  C   C271      1.0  0.52599  0.16703  0.25128  1.0000
  C   C272      1.0  0.56010  0.15904  0.28937  1.0000
  C   C273      1.0  0.54735  0.16180  0.32275  1.0000
  C   C274      1.0  0.58304  0.15317  0.29390  1.0000
  C   C275      1.0  0.55704  0.15851  0.35820  1.0000
  C   C276      1.0  0.59251  0.14988  0.32947  1.0000
  C   C277      1.0  0.57952  0.15249  0.36152  1.0000
  H   H309      1.0  0.58001  0.17620  0.22668  1.0000
  H   H310      1.0  0.55451  0.18269  0.20262  1.0000
  H   H311      1.0  0.56077  0.19605  0.24684  1.0000
  H   H312      1.0  0.57102  0.13579  0.22564  1.0000
  H   H313      1.0  0.54561  0.14163  0.20125  1.0000
  H   H314      1.0  0.54513  0.12627  0.24458  1.0000
  H   H315      1.0  0.52256  0.18337  0.26536  1.0000
  H   H316      1.0  0.51917  0.16852  0.22220  1.0000
  H   H317      1.0  0.51609  0.15357  0.26503  1.0000
  H   H318      1.0  0.52979  0.16611  0.32231  1.0000
  H   H319      1.0  0.59375  0.15056  0.26992  1.0000
  H   H320      1.0  0.54697  0.15998  0.38333  1.0000
  H   H321      1.0  0.60985  0.14463  0.33225  1.0000
  N   N20       1.0  0.49978  0.03907  0.28623  1.0000
  H   H322      1.0  0.50796  0.00514  0.27044  1.0000
  C   C278      1.0  0.50119  0.06167  0.26940  1.0000
  H   H323      1.0  0.60155  0.33629  0.12384  1.0000
  C   C279      1.0  0.51451  0.03852  0.31984  1.0000
  C   C280      1.0  0.53811  0.04053  0.31599  1.0000
  C   C281      1.0  0.50600  0.03794  0.35706  1.0000
  C   C282      1.0  0.55224  0.04208  0.34732  1.0000
  C   C283      1.0  0.53451  0.14459  0.00326  1.0000
  C   C284      1.0  0.54336  0.04192  0.38334  1.0000
  H   H324      1.0  0.54748  0.41587  0.00500  1.0000
  C   C285      1.0  0.44076  0.45530  0.22531  1.0000
  H   H325      1.0  0.61044  0.26614  0.40146  1.0000
  H   H326      1.0  0.61378  0.19211  0.43924  1.0000
  C   C286      1.0  0.57815  0.19090  0.44636  1.0000
  H   H327      1.0  0.54583  0.04198  0.28871  1.0000
  H   H328      1.0  0.37758  0.47532  0.24939  1.0000
  H   H329      1.0  0.43403  0.46455  0.20171  1.0000
  H   H330      1.0  0.64079  0.40848  0.03488  1.0000
  H   H331      1.0  0.58366  0.33771  0.16422  1.0000
  C   C287      1.0  0.61028  0.39754  0.06070  1.0000
  H   H332      1.0  0.62851  0.37440  0.19590  1.0000
  H   H333      1.0  0.50268  0.12755  0.04701  1.0000
  H   H334      1.0  0.47357  0.01792  0.30789  1.0000
  N   N21       1.0  0.41192  0.47237  0.26810  1.0000
  C   C288      1.0  0.59060  0.34763  0.14058  1.0000
  S   S74       1.0  0.64159  0.31803  0.45537  1.0000
  H   H335      1.0  0.63108  0.34744  0.17217  1.0000
  C   C289      1.0  0.54750  0.03479  0.00539  1.0000
  H   H336      1.0  0.43690  0.99372  0.12996  1.0000
  N   N22       1.0  0.53338  0.12109  0.01664  1.0000
  C   C290      1.0  0.59833  0.20170  0.43915  1.0000
  C   C291      1.0  0.64692  0.39268  0.08829  1.0000
  C   C292      1.0  0.39255  0.46443  0.24543  1.0000
  H   H337      1.0  0.54660  0.10166  0.06225  1.0000
  C   C293      1.0  0.45825  0.42864  0.28267  1.0000
  S   S75       1.0  0.33798  0.47835  0.19314  1.0000
  H   H338      1.0  0.60103  0.29112  0.42386  1.0000
  H   H339      1.0  0.48832  0.03665  0.36287  1.0000
  C   C294      1.0  0.50715  0.02222  0.25800  1.0000
  H   H340      1.0  0.57318  0.26084  0.37089  1.0000
  C   C295      1.0  0.55857  0.22633  0.44096  1.0000
  H   H341      1.0  0.52672  0.15645  0.02371  1.0000
  N   N23       1.0  0.60303  0.36766  0.15409  1.0000
  C   C296      1.0  0.47578  0.03456  0.29434  1.0000
  C   C297      1.0  0.61910  0.36006  0.18345  1.0000
  C   C298      1.0  0.58700  0.38334  0.17219  1.0000
  C   C299      1.0  0.61381  0.37887  0.12186  1.0000
  C   C300      1.0  0.56593  0.26885  0.39637  1.0000
  H   H342      1.0  0.57310  0.38830  0.15304  1.0000
  H   H343      1.0  0.53841  0.12977  0.07505  1.0000
  H   H344      1.0  0.46537  0.03445  0.26814  1.0000
  H   H345      1.0  0.57608  0.35215  0.12255  1.0000
  H   H346      1.0  0.49617  0.07491  0.28982  1.0000
  H   H347      1.0  0.38771  0.44708  0.25337  1.0000
  C   C301      1.0  0.44064  0.44350  0.29033  1.0000
  H   H348      1.0  0.57013  0.04436  0.34359  1.0000
  H   H349      1.0  0.61031  0.35178  0.20725  1.0000
  C   C302      1.0  0.56824  0.27348  0.46358  1.0000
  C   C303      1.0  0.63339  0.40037  0.05903  1.0000
  H   H350      1.0  0.57891  0.37564  0.19716  1.0000
  H   H351      1.0  0.59555  0.39895  0.18174  1.0000
  H   H352      1.0  0.55437  0.04403  0.40747  1.0000
  H   H353      1.0  0.36138  0.36040  0.14831  1.0000
  C   C304      1.0  0.46707  0.42710  0.24662  1.0000
  H   H354      1.0  0.46829  0.04784  0.31239  1.0000
  C   C305      1.0  0.54331  0.10588  0.98819  1.0000
  H   H355      1.0  0.60692  0.05725  0.02740  1.0000
  H   H356      1.0  0.39856  0.45695  0.31799  1.0000
  C   C306      1.0  0.52033  0.03965  0.38822  1.0000
  C   C307      1.0  0.59034  0.05089  0.02118  1.0000
  C   C308      1.0  0.63739  0.38210  0.11938  1.0000
  H   H357      1.0  0.51353  0.03971  0.41639  1.0000
  C   C309      1.0  0.60057  0.38689  0.09147  1.0000
  H   H358      1.0  0.56851  0.29214  0.46151  1.0000
  H   H359      1.0  0.50753  0.09875  0.03608  1.0000
  H   H360      1.0  0.54273  0.23510  0.44182  1.0000
  C   C310      1.0  0.54609  0.11936  0.05242  1.0000
  H   H361      1.0  0.56370  0.12509  0.04992  1.0000
  C   C311      1.0  0.55828  0.20315  0.44695  1.0000
  H   H362      1.0  0.49550  0.02153  0.23338  1.0000
  C   C312      1.0  0.55525  0.39947  0.00387  1.0000
  H   H363      1.0  0.38961  0.01132  0.21544  1.0000
  H   H364      1.0  0.55034  0.26889  0.46666  1.0000
  H   H365      1.0  0.59982  0.40353  0.03784  1.0000
  H   H366      1.0  0.46495  0.43884  0.18983  1.0000
  S   S76       1.0  0.63768  0.08919  0.46962  1.0000
  H   H367      1.0  0.41835  0.47954  0.32662  1.0000
  H   H368      1.0  0.43451  0.44366  0.31876  1.0000
  H   H369      1.0  0.52387  0.02612  0.24606  1.0000
  H   H370      1.0  0.48023  0.41506  0.24048  1.0000
  C   C313      1.0  0.45848  0.44056  0.21811  1.0000
  H   H371      1.0  0.58245  0.34062  0.99989  1.0000
  C   C314      1.0  0.58719  0.03654  0.99006  1.0000
  C   C315      1.0  0.50952  0.11610  0.02504  1.0000
  H   H372      1.0  0.46493  0.41797  0.30465  1.0000
  C   C316      1.0  0.40461  0.47350  0.30789  1.0000
  H   H373      1.0  0.54265  0.19467  0.45297  1.0000
  H   H374      1.0  0.64886  0.37653  0.14095  1.0000
  H   H375      1.0  0.49865  0.11801  0.99978  1.0000
  H   H376      1.0  0.57682  0.12056  0.99115  1.0000
  H   H377      1.0  0.64534  0.98622  0.98653  1.0000
  Fe  Fe39      1.0  0.59775  0.46020  0.82967  1.0000
  S   S77       1.0  0.58180  0.42617  0.83522  1.0000
  H   H378      1.0  0.60519  0.25584  0.54124  1.0000
  S   S78       1.0  0.63022  0.40778  0.86615  1.0000
  Fe  Fe40      1.0  0.61346  0.41235  0.80948  1.0000
  S   S79       1.0  0.61677  0.38135  0.77125  1.0000
  Fe  Fe41      1.0  0.59969  0.42419  0.89112  1.0000
  S   S80       1.0  0.57852  0.41670  0.94371  1.0000
  S   S81       1.0  0.62863  0.44642  0.79969  1.0000
  S   S82       1.0  0.61477  0.45886  0.88628  1.0000
  Fe  Fe42      1.0  0.61064  0.00909  0.90662  1.0000
  C   C317      1.0  0.52895  0.33464  0.94515  1.0000
  S   S83       1.0  0.64600  0.12752  0.53604  1.0000
  Fe  Fe43      1.0  0.60535  0.01023  0.82125  1.0000
  Fe  Fe44      1.0  0.64438  0.44231  0.85711  1.0000
  S   S84       1.0  0.59123  0.03375  0.77667  1.0000
  S   S85       1.0  0.64857  0.26433  0.50603  1.0000
  C   C318      1.0  0.63348  0.23966  0.51537  1.0000
  S   S86       1.0  0.58171  0.00110  0.86827  1.0000
  S   S87       1.0  0.63327  0.02091  0.85994  1.0000
  H   H379      1.0  0.58803  0.34263  0.80325  1.0000
  S   S88       1.0  0.64014  0.06668  0.57188  1.0000
  Fe  Fe45      1.0  0.61575  0.34169  0.54875  1.0000
  S   S89       1.0  0.59756  0.17377  0.54144  1.0000
  S   S90       1.0  0.60060  0.36362  0.59547  1.0000
  H   H380      1.0  0.55833  0.31115  0.87447  1.0000
  H   H381      1.0  0.54350  0.01144  0.70488  1.0000
  H   H382      1.0  0.56296  0.01728  0.95878  1.0000
  Fe  Fe46      1.0  0.62893  0.09404  0.53091  1.0000
  S   S91       1.0  0.61059  0.02963  0.96136  1.0000
  C   C319      1.0  0.57611  0.09370  0.95181  1.0000
  H   H383      1.0  0.58086  0.08325  0.74121  1.0000
  H   H384      1.0  0.60080  0.37174  0.84450  1.0000
  H   H385      1.0  0.53127  0.06128  0.92997  1.0000
  H   H386      1.0  0.54143  0.36272  0.81404  1.0000
  H   H387      1.0  0.54681  0.38152  0.90170  1.0000
  C   C320      1.0  0.64029  0.41222  0.58634  1.0000
  H   H388      1.0  0.55172  0.38632  0.84035  1.0000
  S   S92       1.0  0.62089  0.36232  0.49663  1.0000
  H   H389      1.0  0.58857  0.32466  0.84301  1.0000
  S   S93       1.0  0.65000  0.32587  0.54683  1.0000
  C   C321      1.0  0.55113  0.32461  0.89078  1.0000
  C   C322      1.0  0.61203  0.04858  0.69378  1.0000
  C   C323      1.0  0.60163  0.06446  0.66627  1.0000
  C   C324      1.0  0.60998  0.07018  0.63061  1.0000
  C   C325      1.0  0.62951  0.06090  0.61730  1.0000
  C   C326      1.0  0.61150  0.19905  0.53135  1.0000
  C   C327      1.0  0.63321  0.04059  0.67638  1.0000
  H   H390      1.0  0.58609  0.07336  0.67100  1.0000
  H   H391      1.0  0.60082  0.08183  0.61295  1.0000
  C   C328      1.0  0.62896  0.03837  0.75098  1.0000
  H   H392      1.0  0.57131  0.06559  0.91458  1.0000
  C   C329      1.0  0.54433  0.36371  0.90577  1.0000
  C   C330      1.0  0.53086  0.08871  0.96967  1.0000
  H   H393      1.0  0.51979  0.32979  0.97006  1.0000
  H   H394      1.0  0.59300  0.40693  0.71269  1.0000
  H   H395      1.0  0.63302  0.40846  0.55809  1.0000
  Fe  Fe47      1.0  0.63470  0.29964  0.50906  1.0000
  C   C331      1.0  0.57757  0.33627  0.82686  1.0000
  C   C332      1.0  0.61268  0.37719  0.72207  1.0000
  C   C333      1.0  0.62171  0.35786  0.70493  1.0000
  C   C334      1.0  0.61839  0.35345  0.66628  1.0000
  C   C335      1.0  0.60555  0.36813  0.64436  1.0000
  C   C336      1.0  0.59644  0.38740  0.66156  1.0000
  C   C337      1.0  0.60018  0.39207  0.70001  1.0000
  C   C338      1.0  0.58927  0.06733  0.73751  1.0000
  H   H396      1.0  0.62546  0.33852  0.65361  1.0000
  H   H397      1.0  0.58642  0.39886  0.64497  1.0000
  S   S94       1.0  0.59977  0.31335  0.51561  1.0000
  C   C339      1.0  0.61262  0.24001  0.53305  1.0000
  H   H398      1.0  0.62810  0.40520  0.60658  1.0000
  H   H399      1.0  0.53649  0.30078  0.92895  1.0000
  C   C340      1.0  0.61602  0.06390  0.75398  1.0000
  H   H400      1.0  0.63988  0.18298  0.50559  1.0000
  Fe  Fe48      1.0  0.61333  0.14245  0.51734  1.0000
  H   H401      1.0  0.56353  0.32664  0.81393  1.0000
  C   C341      1.0  0.54085  0.07471  0.94292  1.0000
  N   N24       1.0  0.57714  0.99978  0.69586  1.0000
  C   C342      1.0  0.57145  0.39500  0.97613  1.0000
  C   C343      1.0  0.64311  0.21906  0.50520  1.0000
  H   H402      1.0  0.59823  0.35569  0.88672  1.0000
  H   H403      1.0  0.56740  0.37611  0.80164  1.0000
  H   H404      1.0  0.62441  0.07767  0.76794  1.0000
  C   C344      1.0  0.60165  0.21969  0.54102  1.0000
  C   C345      1.0  0.56344  0.07710  0.93419  1.0000
  H   H405      1.0  0.58419  0.38213  0.88242  1.0000
  C   C346      1.0  0.53853  0.31836  0.92208  1.0000
  C   C347      1.0  0.64101  0.04619  0.64040  1.0000
  H   H406      1.0  0.54606  0.99065  0.66885  1.0000
  C   C348      1.0  0.55685  0.37066  0.82573  1.0000
  C   C349      1.0  0.53164  0.35725  0.93676  1.0000
  N   N25       1.0  0.56915  0.35495  0.85074  1.0000
  H   H407      1.0  0.55834  0.04766  0.70706  1.0000
  C   C350      1.0  0.55455  0.34760  0.88184  1.0000
  H   H408      1.0  0.64487  0.02928  0.68994  1.0000
  H   H409      1.0  0.58559  0.21993  0.55495  1.0000
  H   H410      1.0  0.63135  0.34617  0.72169  1.0000
  C   C351      1.0  0.56567  0.02839  0.98247  1.0000
  H   H411      1.0  0.64544  0.03609  0.76322  1.0000
  H   H412      1.0  0.59405  0.36999  0.95460  1.0000
  H   H413      1.0  0.64051  0.43074  0.59030  1.0000
  C   C352      1.0  0.58890  0.36665  0.86680  1.0000
  S   S95       1.0  0.59534  0.10935  0.51748  1.0000
  H   H414      1.0  0.62360  0.99983  0.72947  1.0000
  C   C353      1.0  0.58859  0.01925  0.71194  1.0000
  C   C354      1.0  0.61534  0.01595  0.73003  1.0000
  C   C355      1.0  0.57538  0.04506  0.71630  1.0000
  H   H415      1.0  0.64472  0.39360  0.65965  1.0000
  C   C356      1.0  0.63227  0.19880  0.51337  1.0000
  C   C357      1.0  0.55448  0.00548  0.68168  1.0000
  H   H416      1.0  0.52461  0.36991  0.95526  1.0000
  H   H417      1.0  0.55526  0.01875  0.65978  1.0000
  C   C358      1.0  0.58139  0.37371  0.97529  1.0000
  H   H418      1.0  0.59341  0.00398  0.64271  1.0000
  H   H419      1.0  0.52560  0.14646  0.97589  1.0000
  H   H420      1.0  0.59381  0.09508  0.94550  1.0000
  C   C359      1.0  0.56623  0.10803  0.97818  1.0000
  H   H421      1.0  0.56624  0.98927  0.75043  1.0000
  C   C360      1.0  0.59059  0.99083  0.66437  1.0000
  H   H422      1.0  0.64997  0.37027  0.60809  1.0000
  H   H423      1.0  0.57710  0.26870  0.48999  1.0000
  H   H424      1.0  0.51356  0.08523  0.97614  1.0000
  Fe  Fe49      1.0  0.64524  0.98518  0.85545  1.0000
  Fe  Fe50      1.0  0.35485  0.90567  0.21141  1.0000
  S   S96       1.0  0.34414  0.94148  0.22082  1.0000
  S   S97       1.0  0.36627  0.88056  0.25650  1.0000
  Fe  Fe51      1.0  0.35024  0.90983  0.12460  1.0000
  S   S98       1.0  0.33816  0.94561  0.12981  1.0000
  S   S99       1.0  0.35032  0.89712  0.06331  1.0000
  Fe  Fe52      1.0  0.36660  0.95045  0.17162  1.0000
  C   C361      1.0  0.40315  0.85849  0.02699  1.0000
  S   S100      1.0  0.37884  0.91475  0.16492  1.0000
  H   H425      1.0  0.38405  0.71121  0.48205  1.0000
  Fe  Fe53      1.0  0.36434  0.52463  0.12973  1.0000
  C   C362      1.0  0.34730  0.73086  0.38492  1.0000
  S   S101      1.0  0.38443  0.55065  0.09636  1.0000
  Fe  Fe54      1.0  0.35417  0.51084  0.21199  1.0000
  H   H426      1.0  0.35480  0.66899  0.33235  1.0000
  S   S102      1.0  0.35516  0.51474  0.27618  1.0000
  H   H427      1.0  0.37090  0.95340  0.04531  1.0000
  Fe  Fe55      1.0  0.33767  0.83560  0.46941  1.0000
  S   S103      1.0  0.38397  0.50615  0.17420  1.0000
  S   S104      1.0  0.33599  0.53218  0.16988  1.0000
  H   H428      1.0  0.43107  0.50494  0.06065  1.0000
  Fe  Fe56      1.0  0.34694  0.59880  0.45431  1.0000
  S   S105      1.0  0.35673  0.59746  0.39192  1.0000
  S   S106      1.0  0.33199  0.86231  0.42389  1.0000
  H   H429      1.0  0.32723  0.63591  0.37490  1.0000
  S   S107      1.0  0.32721  0.89760  0.17025  1.0000
  H   H430      1.0  0.41726  0.84971  0.03930  1.0000
  S   S108      1.0  0.39582  0.97515  0.15889  1.0000
  C   C363      1.0  0.40591  0.93309  0.07934  1.0000
  H   H431      1.0  0.35213  0.59720  0.07058  1.0000
  C   C364      1.0  0.35549  0.53816  0.30752  1.0000
  C   C365      1.0  0.35737  0.56031  0.29507  1.0000
  C   C366      1.0  0.35761  0.57821  0.32125  1.0000
  C   C367      1.0  0.35558  0.57428  0.36008  1.0000
  C   C368      1.0  0.35332  0.55215  0.37241  1.0000
  H   H432      1.0  0.39347  0.93953  0.09993  1.0000
  H   H433      1.0  0.35896  0.56366  0.26538  1.0000
  H   H434      1.0  0.35947  0.59523  0.31133  1.0000
  H   H435      1.0  0.35187  0.51721  0.35635  1.0000
  H   H436      1.0  0.41795  0.57417  0.05464  1.0000
  C   C369      1.0  0.35477  0.87436  0.30146  1.0000
  H   H437      1.0  0.39375  0.49123  0.04157  1.0000
  H   H438      1.0  0.39691  0.65063  0.04566  1.0000
  C   C370      1.0  0.34003  0.86534  0.37585  1.0000
  C   C371      1.0  0.35620  0.85163  0.35891  1.0000
  C   C372      1.0  0.36371  0.85633  0.32222  1.0000
  C   C373      1.0  0.41014  0.57033  0.99564  1.0000
  C   C374      1.0  0.44321  0.95155  0.00922  1.0000
  H   H439      1.0  0.36317  0.83760  0.37414  1.0000
  H   H440      1.0  0.37664  0.84599  0.30983  1.0000
  C   C375      1.0  0.40670  0.56662  0.03432  1.0000
  C   C376      1.0  0.38872  0.55343  0.04703  1.0000
  C   C377      1.0  0.37419  0.54396  0.02038  1.0000
  C   C378      1.0  0.37137  0.92486  0.35298  1.0000
  C   C379      1.0  0.33779  0.88734  0.31766  1.0000
  H   H441      1.0  0.36019  0.53391  0.02961  1.0000
  H   H442      1.0  0.40097  0.91552  0.07286  1.0000
  H   H443      1.0  0.43262  0.50183  0.27219  1.0000
  C   C380      1.0  0.38817  0.87029  0.05058  1.0000
  C   C381      1.0  0.36975  0.88163  0.03521  1.0000
  H   H444      1.0  0.36872  0.66795  0.43410  1.0000
  C   C382      1.0  0.41768  0.49556  0.25654  1.0000
  H   H445      1.0  0.39084  0.87045  0.08065  1.0000
  C   C383      1.0  0.39727  0.86039  0.43314  1.0000
  C   C384      1.0  0.38995  0.91106  0.34798  1.0000
  H   H446      1.0  0.35871  0.91300  0.44287  1.0000
  C   C385      1.0  0.35182  0.70819  0.37787  1.0000
  H   H447      1.0  0.37554  0.62925  0.09082  1.0000
  C   C386      1.0  0.32140  0.69789  0.41910  1.0000
  H   H448      1.0  0.42138  0.49680  0.22613  1.0000
  H   H449      1.0  0.39762  0.90990  0.32046  1.0000
  H   H450      1.0  0.42248  0.93262  0.09385  1.0000
  H   H451      1.0  0.42627  0.97235  0.07459  1.0000
  C   C387      1.0  0.39806  0.89806  0.37770  1.0000
  H   H452      1.0  0.36329  0.64373  0.35579  1.0000
  H   H453      1.0  0.38008  0.85403  0.42739  1.0000
  C   C388      1.0  0.35968  0.60129  0.01209  1.0000
  H   H454      1.0  0.35186  0.54880  0.40213  1.0000
  C   C389      1.0  0.42404  0.93881  0.01950  1.0000
  H   H455      1.0  0.37741  0.66910  0.36671  1.0000
  C   C390      1.0  0.36059  0.66213  0.35974  1.0000
  H   H456      1.0  0.40728  0.85735  0.40747  1.0000
  C   C391      1.0  0.41045  0.97084  0.05807  1.0000
  C   C392      1.0  0.36839  0.91231  0.41739  1.0000
  H   H457      1.0  0.34569  0.93567  0.39090  1.0000
  H   H458      1.0  0.35779  0.74379  0.37288  1.0000
  H   H459      1.0  0.35870  0.64036  0.42304  1.0000
  C   C393      1.0  0.37435  0.62506  0.06123  1.0000
  C   C394      1.0  0.40550  0.49678  0.02040  1.0000
  C   C395      1.0  0.33064  0.88296  0.35469  1.0000
  C   C396      1.0  0.38662  0.63720  0.03481  1.0000
  C   C397      1.0  0.36065  0.92552  0.38760  1.0000
  C   C398      1.0  0.35346  0.53424  0.34632  1.0000
  H   H460      1.0  0.36476  0.93437  0.32949  1.0000
  C   C399      1.0  0.44166  0.51213  0.00404  1.0000
  C   C400      1.0  0.36662  0.88100  0.99594  1.0000
  C   C401      1.0  0.38746  0.89815  0.41334  1.0000
  H   H461      1.0  0.37902  0.92925  0.01960  1.0000
  C   C402      1.0  0.36101  0.60708  0.04991  1.0000
  H   H462      1.0  0.33064  0.90119  0.30211  1.0000
  N   N26       1.0  0.34410  0.66680  0.38993  1.0000
  N   N27       1.0  0.40661  0.94736  0.04539  1.0000
  H   H463      1.0  0.40837  0.90618  0.01083  1.0000
  C   C403      1.0  0.38431  0.94663  0.02674  1.0000
  C   C404      1.0  0.33888  0.69095  0.39474  1.0000
  H   H464      1.0  0.34972  0.58693  0.00352  1.0000
  S   S109      1.0  0.34804  0.49353  0.10683  1.0000
  C   C405      1.0  0.35360  0.65823  0.42553  1.0000
  H   H465      1.0  0.34134  0.65930  0.44889  1.0000
  H   H466      1.0  0.36589  0.70465  0.35992  1.0000
  Fe  Fe57      1.0  0.32043  0.49972  0.14961  1.0000
  N   N28       1.0  0.39656  0.88435  0.44447  1.0000
  H   H467      1.0  0.41248  0.88761  0.37219  1.0000
  S   S110      1.0  0.37042  0.75760  0.48168  1.0000
  H   H468      1.0  0.44626  0.96825  0.01989  1.0000
  H   H469      1.0  0.40361  0.50749  0.26184  1.0000
  C   C406      1.0  0.40013  0.85796  0.98769  1.0000
  C   C407      1.0  0.32345  0.65392  0.38076  1.0000
  H   H470      1.0  0.39690  0.97681  0.07714  1.0000
  H   H471      1.0  0.31802  0.89360  0.36725  1.0000
  H   H472      1.0  0.32690  0.75462  0.41493  1.0000
  C   C408      1.0  0.32983  0.73704  0.40855  1.0000
  H   H473      1.0  0.41088  0.98267  0.03402  1.0000
  H   H474      1.0  0.42402  0.58051  0.98669  1.0000
  C   C409      1.0  0.38590  0.63149  0.99598  1.0000
  H   H475      1.0  0.43131  0.88911  0.42969  1.0000
  C   C410      1.0  0.38319  0.88579  0.47953  1.0000
  C   C411      1.0  0.41967  0.89182  0.45354  1.0000
  H   H476      1.0  0.36562  0.88006  0.47474  1.0000
  H   H477      1.0  0.45780  0.51796  0.01383  1.0000
  C   C412      1.0  0.37211  0.61306  0.98551  1.0000
  H   H478      1.0  0.40469  0.84967  0.45553  1.0000
  H   H479      1.0  0.42311  0.66056  0.00450  1.0000
  S   S111      1.0  0.32126  0.80156  0.46883  1.0000
  H   H480      1.0  0.39788  0.67583  0.99154  1.0000
  H   H481      1.0  0.39031  0.48541  0.31160  1.0000
  C   C413      1.0  0.42225  0.91692  0.00397  1.0000
  H   H482      1.0  0.38428  0.95648  0.00028  1.0000
  C   C414      1.0  0.42658  0.50454  0.03109  1.0000
  H   H483      1.0  0.41995  0.91003  0.46066  1.0000
  H   H484      1.0  0.42679  0.88249  0.47792  1.0000
  C   C415      1.0  0.45926  0.94281  0.98458  1.0000
  Fe  Fe58      1.0  0.45718  0.79972  0.85520  1.0000
  S   S112      1.0  0.42034  0.80458  0.86446  1.0000
  S   S113      1.0  0.47653  0.76626  0.85069  1.0000
  Fe  Fe59      1.0  0.46455  0.85084  0.84029  1.0000
  S   S114      1.0  0.42752  0.85845  0.84710  1.0000
  S   S115      1.0  0.48942  0.87805  0.82003  1.0000
  Fe  Fe60      1.0  0.42939  0.83578  0.89786  1.0000
  S   S116      1.0  0.41997  0.84299  0.95960  1.0000
  Fe  Fe61      1.0  0.42128  0.82677  0.81291  1.0000
  S   S117      1.0  0.39568  0.81670  0.76712  1.0000
  S   S118      1.0  0.46663  0.82934  0.89195  1.0000
  S   S119      1.0  0.45787  0.82079  0.80285  1.0000
  Fe  Fe62      1.0  0.44890  0.62872  0.86360  1.0000
  S   S120      1.0  0.41462  0.61552  0.84960  1.0000
  S   S121      1.0  0.44432  0.66528  0.88428  1.0000
  Fe  Fe63      1.0  0.46982  0.58129  0.84704  1.0000
  S   S122      1.0  0.43604  0.56713  0.83006  1.0000
  S   S123      1.0  0.49816  0.55602  0.86265  1.0000
  Fe  Fe64      1.0  0.43037  0.59971  0.79872  1.0000
  S   S124      1.0  0.41083  0.61214  0.74672  1.0000
  Fe  Fe65      1.0  0.42322  0.58453  0.88206  1.0000
  S   S125      1.0  0.39781  0.56651  0.91976  1.0000
  S   S126      1.0  0.46499  0.61326  0.81238  1.0000
  S   S127      1.0  0.45654  0.59833  0.89961  1.0000
  H   H485      1.0  0.59159  0.97630  0.73525  1.0000
  Fe  Fe66      1.0  0.35591  0.59302  0.53984  1.0000
  H   H486      1.0  0.42876  0.65693  0.72146  1.0000
  S   S128      1.0  0.37862  0.57681  0.58453  1.0000
  N   N29       1.0  0.41629  0.68346  0.75721  1.0000
  H   H487      1.0  0.32417  0.81260  0.78035  1.0000
  C   C416      1.0  0.45681  0.92129  0.96966  1.0000
  H   H488      1.0  0.58484  0.55820  0.85096  1.0000
  Fe  Fe67      1.0  0.35535  0.82936  0.55154  1.0000
  H   H489      1.0  0.34205  0.52109  0.63418  1.0000
  S   S129      1.0  0.37502  0.84760  0.59805  1.0000
  C   C417      1.0  0.37741  0.54799  0.98169  1.0000
  C   C418      1.0  0.42314  0.75545  0.76832  1.0000
  H   H490      1.0  0.59329  0.85792  0.87856  1.0000
  S   S130      1.0  0.34024  0.79509  0.55608  1.0000
  C   C419      1.0  0.43589  0.51247  0.96527  1.0000
  C   C420      1.0  0.43836  0.90835  0.97944  1.0000
  S   S131      1.0  0.57658  0.93347  0.87448  1.0000
  H   H491      1.0  0.46875  0.48877  0.93355  1.0000
  C   C421      1.0  0.58101  0.87473  0.82949  1.0000
  H   H492      1.0  0.32732  0.52856  0.57105  1.0000
  H   H493      1.0  0.45418  0.70806  0.77310  1.0000
  S   S132      1.0  0.32273  0.60806  0.55532  1.0000
  C   C422      1.0  0.45829  0.54429  0.94603  1.0000
  Fe  Fe68      1.0  0.59628  0.96626  0.86321  1.0000
  C   C423      1.0  0.41416  0.50456  0.95533  1.0000
  S   S133      1.0  0.34102  0.57052  0.49453  1.0000
  C   C424      1.0  0.51910  0.53688  0.84540  1.0000
  C   C425      1.0  0.52928  0.52169  0.87062  1.0000
  C   C426      1.0  0.54613  0.50649  0.85879  1.0000
  C   C427      1.0  0.55368  0.50663  0.82160  1.0000
  C   C428      1.0  0.54357  0.52187  0.79642  1.0000
  C   C429      1.0  0.52630  0.53667  0.80804  1.0000
  H   H494      1.0  0.52412  0.52168  0.89966  1.0000
  Fe  Fe69      1.0  0.35274  0.78970  0.49752  1.0000
  C   C430      1.0  0.32180  0.54554  0.58027  1.0000
  H   H495      1.0  0.51883  0.54818  0.78814  1.0000
  C   C431      1.0  0.40175  0.60160  0.70208  1.0000
  C   C432      1.0  0.38845  0.61546  0.67891  1.0000
  C   C433      1.0  0.38115  0.60819  0.64306  1.0000
  C   C434      1.0  0.38716  0.58691  0.62969  1.0000
  C   C435      1.0  0.40026  0.57296  0.65298  1.0000
  C   C436      1.0  0.40749  0.58020  0.68892  1.0000
  H   H496      1.0  0.38386  0.63204  0.68862  1.0000
  H   H497      1.0  0.37107  0.61912  0.62560  1.0000
  H   H498      1.0  0.40507  0.55649  0.64300  1.0000
  H   H499      1.0  0.41773  0.56933  0.70621  1.0000
  H   H500      1.0  0.32666  0.75032  0.51381  1.0000
  H   H501      1.0  0.43034  0.63462  0.93741  1.0000
  H   H502      1.0  0.37915  0.86922  0.94224  1.0000
  C   C437      1.0  0.51250  0.89442  0.83763  1.0000
  C   C438      1.0  0.52060  0.91237  0.81583  1.0000
  C   C439      1.0  0.53953  0.92507  0.82726  1.0000
  C   C440      1.0  0.55101  0.91979  0.86050  1.0000
  C   C441      1.0  0.54279  0.90197  0.88246  1.0000
  C   C442      1.0  0.52363  0.88952  0.87137  1.0000
  H   H503      1.0  0.51221  0.91640  0.78971  1.0000
  H   H504      1.0  0.54555  0.93858  0.80989  1.0000
  H   H505      1.0  0.55148  0.89760  0.90814  1.0000
  H   H506      1.0  0.51778  0.87589  0.88864  1.0000
  C   C443      1.0  0.39249  0.82457  0.71899  1.0000
  C   C444      1.0  0.38008  0.81054  0.69467  1.0000
  C   C445      1.0  0.37543  0.81689  0.65722  1.0000
  C   C446      1.0  0.38254  0.83772  0.64380  1.0000
  C   C447      1.0  0.39523  0.85161  0.66791  1.0000
  C   C448      1.0  0.40038  0.84502  0.70510  1.0000
  H   H507      1.0  0.37386  0.79470  0.70499  1.0000
  H   H508      1.0  0.36615  0.80580  0.63886  1.0000
  H   H509      1.0  0.40092  0.86773  0.65793  1.0000
  H   H510      1.0  0.40981  0.85610  0.72339  1.0000
  C   C449      1.0  0.46667  0.73827  0.85856  1.0000
  C   C450      1.0  0.47978  0.71990  0.84653  1.0000
  C   C451      1.0  0.47295  0.69750  0.85298  1.0000
  C   C452      1.0  0.45309  0.69311  0.87235  1.0000
  C   C453      1.0  0.43989  0.71146  0.88407  1.0000
  C   C454      1.0  0.44647  0.73382  0.87688  1.0000
  H   H511      1.0  0.49544  0.72303  0.83236  1.0000
  H   H512      1.0  0.48343  0.68369  0.84398  1.0000
  H   H513      1.0  0.42450  0.70842  0.89907  1.0000
  H   H514      1.0  0.43614  0.74766  0.88631  1.0000
  H   H515      1.0  0.32860  0.61728  0.67649  1.0000
  S   S134      1.0  0.36463  0.62026  0.49836  1.0000
  H   H516      1.0  0.38799  0.75745  0.75655  1.0000
  C   C455      1.0  0.35576  0.69233  0.50250  1.0000
  C   C456      1.0  0.41848  0.62688  0.95746  1.0000
  C   C457      1.0  0.38175  0.86941  0.97232  1.0000
  H   H517      1.0  0.43653  0.89149  0.96804  1.0000
  C   C458      1.0  0.43029  0.67545  0.72556  1.0000
  H   H518      1.0  0.38304  0.71714  0.74957  1.0000
  H   H519      1.0  0.45785  0.74869  0.77931  1.0000
  C   C459      1.0  0.39534  0.56124  0.96898  1.0000
  H   H520      1.0  0.42525  0.68366  0.69878  1.0000
  H   H521      1.0  0.44840  0.67890  0.73021  1.0000
  H   H522      1.0  0.60779  0.56775  0.90117  1.0000
  N   N30       1.0  0.40027  0.64256  0.96780  1.0000
  H   H523      1.0  0.35276  0.54873  0.63291  1.0000
  H   H524      1.0  0.63389  0.56659  0.87610  1.0000
  S   S135      1.0  0.37021  0.82312  0.49431  1.0000
  H   H525      1.0  0.48494  0.51199  0.91645  1.0000
  C   C460      1.0  0.39300  0.67563  0.75017  1.0000
  C   C461      1.0  0.42428  0.67255  0.79221  1.0000
  H   H526      1.0  0.38630  0.68209  0.72305  1.0000
  H   H527      1.0  0.39212  0.65697  0.74824  1.0000
  H   H528      1.0  0.41524  0.67916  0.81720  1.0000
  H   H529      1.0  0.42187  0.65402  0.79133  1.0000
  N   N31       1.0  0.53299  0.82065  0.82183  1.0000
  C   C462      1.0  0.51800  0.82158  0.78839  1.0000
  C   C463      1.0  0.54447  0.79853  0.82116  1.0000
  C   C464      1.0  0.51867  0.82183  0.85558  1.0000
  C   C465      1.0  0.54965  0.83905  0.82338  1.0000
  C   C466      1.0  0.56599  0.83974  0.85255  1.0000
  C   C467      1.0  0.54965  0.85716  0.79748  1.0000
  C   C468      1.0  0.56523  0.87459  0.80054  1.0000
  H   H530      1.0  0.50739  0.83699  0.78857  1.0000
  H   H531      1.0  0.52769  0.82106  0.76182  1.0000
  H   H532      1.0  0.50606  0.80721  0.78762  1.0000
  H   H533      1.0  0.55627  0.79738  0.79715  1.0000
  H   H534      1.0  0.53221  0.78447  0.81855  1.0000
  H   H535      1.0  0.55407  0.79521  0.84735  1.0000
  H   H536      1.0  0.52833  0.81975  0.88207  1.0000
  H   H537      1.0  0.51002  0.83839  0.85725  1.0000
  H   H538      1.0  0.50560  0.80847  0.85526  1.0000
  H   H539      1.0  0.56655  0.82701  0.87402  1.0000
  H   H540      1.0  0.53724  0.85877  0.77547  1.0000
  H   H541      1.0  0.56443  0.88866  0.78139  1.0000
  H   H542      1.0  0.34085  0.57962  0.66204  1.0000
  C   C469      1.0  0.43932  0.71817  0.76903  1.0000
  H   H543      1.0  0.33530  0.55752  0.57278  1.0000
  H   H544      1.0  0.32844  0.79546  0.64264  1.0000
  S   S136      1.0  0.62434  0.97386  0.90454  1.0000
  H   H545      1.0  0.46593  0.54629  0.97429  1.0000
  H   H546      1.0  0.36580  0.54086  0.96149  1.0000
  C   C470      1.0  0.38720  0.64819  0.93344  1.0000
  S   S137      1.0  0.57706  0.48995  0.80592  1.0000
  H   H547      1.0  0.59326  0.50786  0.87568  1.0000
  H   H548      1.0  0.58220  0.97631  0.65052  1.0000
  H   H549      1.0  0.58370  0.53158  0.90242  1.0000
  C   C471      1.0  0.33778  0.53880  0.64112  1.0000
  C   C472      1.0  0.63254  0.51695  0.81496  1.0000
  H   H550      1.0  0.46926  0.91456  0.95057  1.0000
  H   H551      1.0  0.47067  0.55097  0.92570  1.0000
  H   H552      1.0  0.32912  0.83405  0.61415  1.0000
  H   H553      1.0  0.42836  0.53101  0.89476  1.0000
  C   C473      1.0  0.47277  0.50679  0.93842  1.0000
  H   H554      1.0  0.37158  0.60683  0.95697  1.0000
  C   C474      1.0  0.34359  0.85313  0.72270  1.0000
  C   C475      1.0  0.40225  0.74629  0.75995  1.0000
  H   H555      1.0  0.45614  0.52683  0.87780  1.0000
  H   H556      1.0  0.38164  0.68069  0.77339  1.0000
  H   H557      1.0  0.43940  0.50290  0.88875  1.0000
  H   H558      1.0  0.59238  0.88882  0.83268  1.0000
  C   C476      1.0  0.44164  0.74143  0.77261  1.0000
  H   H559      1.0  0.36409  0.67628  0.50031  1.0000
  H   H560      1.0  0.39014  0.87485  0.50213  1.0000
  N   N32       1.0  0.45217  0.52074  0.93725  1.0000
  C   C477      1.0  0.33487  0.73423  0.51073  1.0000
  H   H561      1.0  0.35248  0.88969  0.98358  1.0000
  C   C478      1.0  0.59895  0.52280  0.89199  1.0000
  C   C479      1.0  0.44354  0.52025  0.89802  1.0000
  C   C480      1.0  0.41825  0.70818  0.76082  1.0000
  H   H562      1.0  0.60830  0.51624  0.91672  1.0000
  N   N33       1.0  0.61297  0.53756  0.86843  1.0000
  H   H563      1.0  0.54920  0.52230  0.76761  1.0000
  C   C481      1.0  0.58139  0.85734  0.85546  1.0000
  C   C482      1.0  0.39970  0.72302  0.75612  1.0000
  C   C483      1.0  0.33361  0.69344  0.51499  1.0000
  H   H564      1.0  0.62979  0.55056  0.91818  1.0000
  H   H565      1.0  0.44247  0.67514  0.79736  1.0000
  H   H566      1.0  0.60828  0.55818  0.81933  1.0000
  H   H567      1.0  0.33581  0.85748  0.66537  1.0000
  H   H568      1.0  0.42495  0.77349  0.77158  1.0000
  H   H569      1.0  0.56545  0.96755  0.71503  1.0000
  Fe  Fe70      1.0  0.33029  0.63390  0.51145  1.0000
  C   C484      1.0  0.32600  0.82249  0.75509  1.0000
  C   C485      1.0  0.32341  0.71445  0.51984  1.0000
  C   C486      1.0  0.35659  0.73309  0.49633  1.0000
  H   H570      1.0  0.35561  0.86676  0.72264  1.0000
  H   H571      1.0  0.61947  0.52087  0.79494  1.0000
  S   S138      1.0  0.61819  0.97491  0.81359  1.0000
  H   H572      1.0  0.44329  0.55531  0.94468  1.0000
  C   C487      1.0  0.62155  0.55637  0.89193  1.0000
  H   H573      1.0  0.55353  0.49493  0.87865  1.0000
  H   H574      1.0  0.58956  0.53460  0.82215  1.0000
  H   H575      1.0  0.48173  0.50813  0.96576  1.0000
  C   C488      1.0  0.59843  0.54760  0.83888  1.0000
  H   H576      1.0  0.41185  0.61141  0.94385  1.0000
  H   H577      1.0  0.60739  0.98495  0.67383  1.0000
  C   C489      1.0  0.34080  0.84052  0.75513  1.0000
  H   H578      1.0  0.42049  0.67221  0.95904  1.0000
  H   H579      1.0  0.33577  0.54001  0.67211  1.0000
  H   H580      1.0  0.39740  0.65792  0.91304  1.0000
  H   H581      1.0  0.38163  0.63306  0.91763  1.0000
  H   H582      1.0  0.37212  0.65833  0.94049  1.0000
  H   H583      1.0  0.35066  0.84437  0.78004  1.0000
  C   C490      1.0  0.32432  0.58436  0.65240  1.0000
  H   H584      1.0  0.42833  0.62167  0.98259  1.0000
  H   H585      1.0  0.40796  0.50468  0.92681  1.0000
  C   C491      1.0  0.63175  0.52411  0.85311  1.0000
  S   S139      1.0  0.32404  0.84472  0.52662  1.0000
  C   C492      1.0  0.36711  0.71211  0.49260  1.0000
  H   H586      1.0  0.65012  0.49789  0.77280  1.0000
  C   C493      1.0  0.57499  0.98241  0.72524  1.0000
  H   H587      1.0  0.38269  0.49114  0.97460  1.0000
  C   C494      1.0  0.33201  0.84748  0.68976  1.0000
  C   C495      1.0  0.64918  0.51639  0.87715  1.0000
  H   H588      1.0  0.64911  0.51988  0.90689  1.0000
  C   C496      1.0  0.41076  0.66370  0.98158  1.0000
  H   H589      1.0  0.47377  0.95275  0.97705  1.0000
  C   C497      1.0  0.65011  0.50356  0.80176  1.0000
  H   H590      1.0  0.38280  0.90317  0.49102  1.0000
  C   C498      1.0  0.39934  0.49671  0.98262  1.0000
  C   C499      1.0  0.90227  0.00483  0.01829  1.0000
  S   S140      1.0  0.94040  0.36981  0.17380  1.0000
  Fe  Fe71      1.0  0.95012  0.30498  0.15528  1.0000
  S   S141      1.0  0.91694  0.32261  0.14997  1.0000
  S   S142      1.0  0.94279  0.26792  0.14052  1.0000
  Fe  Fe72      1.0  0.93432  0.35048  0.11970  1.0000
  S   S143      1.0  0.92897  0.36375  0.05945  1.0000
  Fe  Fe73      1.0  0.92568  0.33980  0.20470  1.0000
  S   S144      1.0  0.89789  0.33260  0.24791  1.0000
  S   S145      1.0  0.96731  0.33200  0.12186  1.0000
  S   S146      1.0  0.95867  0.32179  0.21032  1.0000
  Fe  Fe74      1.0  0.95231  0.12968  0.16789  1.0000
  S   S147      1.0  0.91501  0.12436  0.16682  1.0000
  S   S148      1.0  0.96965  0.16439  0.16732  1.0000
  Fe  Fe75      1.0  0.96210  0.07905  0.18184  1.0000
  S   S149      1.0  0.92495  0.07188  0.18382  1.0000
  Fe  Fe76      1.0  0.92204  0.09323  0.13209  1.0000
  S   S150      1.0  0.89770  0.07716  0.08912  1.0000
  Fe  Fe77      1.0  0.92066  0.10320  0.21849  1.0000
  S   S151      1.0  0.89372  0.10874  0.26393  1.0000
  S   S152      1.0  0.95928  0.09991  0.12911  1.0000
  S   S153      1.0  0.95791  0.10915  0.22071  1.0000
  H   H591      1.0  0.91752  0.03542  0.11989  1.0000
  S   S154      1.0  0.88139  0.10022  0.44231  1.0000
  S   S155      1.0  0.81889  0.12093  0.45858  1.0000
  S   S156      1.0  0.83948  0.30388  0.45771  1.0000
  Fe  Fe78      1.0  0.85527  0.33774  0.46548  1.0000
  S   S157      1.0  0.87820  0.35381  0.42147  1.0000
  C   C500      1.0  0.84378  0.05172  0.36171  1.0000
  H   H592      1.0  0.91239  0.17340  0.40690  1.0000
  H   H593      1.0  0.83529  0.08347  0.41279  1.0000
  C   C501      1.0  0.85865  0.23425  0.43774  1.0000
  H   H594      1.0  0.94219  0.05919  0.08088  1.0000
  C   C502      1.0  0.87497  0.05036  0.98995  1.0000
  H   H595      1.0  0.80916  0.07578  0.39108  1.0000
  C   C503      1.0  0.94710  0.01803  0.01973  1.0000
  C   C504      1.0  0.87687  0.05262  0.32094  1.0000
  H   H596      1.0  0.66493  0.39489  0.08676  1.0000
  C   C505      1.0  0.85021  0.37584  0.30441  1.0000
  H   H597      1.0  0.90088  0.42293  0.01447  1.0000
  C   C506      1.0  0.89619  0.06898  0.04072  1.0000
  C   C507      1.0  0.87715  0.05719  0.02788  1.0000
  H   H598      1.0  0.92777  0.08305  0.02406  1.0000
  H   H599      1.0  0.86390  0.05335  0.04742  1.0000
  C   C508      1.0  0.88453  0.10299  0.39267  1.0000
  C   C509      1.0  0.86723  0.11087  0.36945  1.0000
  C   C510      1.0  0.87054  0.11275  0.33036  1.0000
  C   C511      1.0  0.89116  0.10695  0.31378  1.0000
  C   C512      1.0  0.90858  0.09944  0.33708  1.0000
  C   C513      1.0  0.90523  0.09745  0.37620  1.0000
  H   H600      1.0  0.85125  0.11545  0.38139  1.0000
  H   H601      1.0  0.85692  0.11850  0.31266  1.0000
  H   H602      1.0  0.92453  0.09491  0.32487  1.0000
  H   H603      1.0  0.91881  0.09147  0.39379  1.0000
  C   C514      1.0  0.89441  0.33732  0.29714  1.0000
  C   C515      1.0  0.87793  0.32504  0.31641  1.0000
  C   C516      1.0  0.87353  0.32903  0.35483  1.0000
  C   C517      1.0  0.88501  0.34598  0.37431  1.0000
  C   C518      1.0  0.90167  0.35807  0.35515  1.0000
  C   C519      1.0  0.90654  0.35362  0.31701  1.0000
  H   H604      1.0  0.86825  0.31255  0.30138  1.0000
  H   H605      1.0  0.86092  0.31933  0.36906  1.0000
  H   H606      1.0  0.91072  0.37119  0.36981  1.0000
  H   H607      1.0  0.91920  0.36330  0.30271  1.0000
  C   C520      1.0  0.95040  0.23931  0.14951  1.0000
  H   H608      1.0  0.92013  0.20725  0.98730  1.0000
  H   H609      1.0  0.67992  0.03552  0.99593  1.0000
  C   C521      1.0  0.96142  0.19307  0.16040  1.0000
  C   C522      1.0  0.92581  0.47447  0.01539  1.0000
  H   H610      1.0  0.88466  0.00034  0.01732  1.0000
  H   H611      1.0  0.84326  0.20257  0.43160  1.0000
  H   H612      1.0  0.84276  0.24306  0.43583  1.0000
  H   H613      1.0  0.90330  0.30954  0.98537  1.0000
  C   C523      1.0  0.88519  0.37522  0.03784  1.0000
  C   C524      1.0  0.90764  0.37279  0.02746  1.0000
  H   H614      1.0  0.91413  0.16773  0.23914  1.0000
  H   H615      1.0  0.88018  0.37133  0.06621  1.0000
  H   H616      1.0  0.95223  0.31867  0.04320  1.0000
  N   N34       1.0  0.80329  0.35600  0.36805  1.0000
  C   C525      1.0  0.81594  0.33866  0.38893  1.0000
  C   C526      1.0  0.80087  0.37613  0.39242  1.0000
  C   C527      1.0  0.78041  0.34706  0.36075  1.0000
  C   C528      1.0  0.81584  0.36161  0.33360  1.0000
  C   C529      1.0  0.80809  0.35583  0.29696  1.0000
  C   C530      1.0  0.82127  0.35979  0.26527  1.0000
  H   H617      1.0  0.83266  0.34476  0.39830  1.0000
  H   H618      1.0  0.80691  0.33342  0.41454  1.0000
  H   H619      1.0  0.81865  0.32339  0.37144  1.0000
  H   H620      1.0  0.81721  0.38213  0.40379  1.0000
  H   H621      1.0  0.79035  0.37259  0.41750  1.0000
  H   H622      1.0  0.79294  0.39022  0.37678  1.0000
  H   H623      1.0  0.95470  0.48266  0.04953  1.0000
  H   H624      1.0  0.92482  0.00626  0.12788  1.0000
  H   H625      1.0  0.89619  0.14845  0.40260  1.0000
  H   H626      1.0  0.79211  0.34786  0.29207  1.0000
  H   H627      1.0  0.94532  0.26375  0.27217  1.0000
  H   H628      1.0  0.91938  0.22648  0.12664  1.0000
  C   C531      1.0  0.91235  0.01092  0.05239  1.0000
  H   H629      1.0  0.83044  0.06673  0.27111  1.0000
  C   C532      1.0  0.81527  0.03119  0.39583  1.0000
  C   C533      1.0  0.71836  0.00842  0.99047  1.0000
  H   H630      1.0  0.86871  0.43617  0.99432  1.0000
  C   C534      1.0  0.91202  0.43651  0.02175  1.0000
  H   H631      1.0  0.80732  0.02799  0.42356  1.0000
  C   C535      1.0  0.73180  0.12842  0.46151  1.0000
  S   S158      1.0  0.68684  0.13652  0.45652  1.0000
  H   H632      1.0  0.65374  0.02256  0.00456  1.0000
  C   C536      1.0  0.91386  0.18590  0.24166  1.0000
  H   H633      1.0  0.86586  0.46266  0.01820  1.0000
  H   H634      1.0  0.97396  0.01193  0.12435  1.0000
  C   C537      1.0  0.71007  0.32858  0.46594  1.0000
  H   H635      1.0  0.87801  0.18790  0.24356  1.0000
  H   H636      1.0  0.87131  0.06224  0.26351  1.0000
  H   H637      1.0  0.93658  0.21859  0.04847  1.0000
  H   H638      1.0  0.92888  0.18627  0.13681  1.0000
  H   H639      1.0  0.85033  0.16778  0.40672  1.0000
  C   C538      1.0  0.93266  0.25398  0.03821  1.0000
  C   C539      1.0  0.91370  0.37796  0.99029  1.0000
  H   H640      1.0  0.75470  0.22993  0.48077  1.0000
  C   C540      1.0  0.84235  0.36960  0.26903  1.0000
  C   C541      1.0  0.93521  0.01764  0.05416  1.0000
  C   C542      1.0  0.93534  0.22210  0.13916  1.0000
  C   C543      1.0  0.71038  0.11880  0.46088  1.0000
  S   S159      1.0  0.77528  0.31070  0.45531  1.0000
  C   C544      1.0  0.89161  0.16522  0.47228  1.0000
  H   H641      1.0  0.69397  0.32131  0.45895  1.0000
  H   H642      1.0  0.85189  0.38504  0.02007  1.0000
  C   C545      1.0  0.97094  0.23322  0.16572  1.0000
  H   H643      1.0  0.93021  0.41540  0.06041  1.0000
  H   H644      1.0  0.90166  0.01078  0.07673  1.0000
  C   C546      1.0  0.87822  0.24635  0.44438  1.0000
  C   C547      1.0  0.85923  0.21082  0.43538  1.0000
  H   H645      1.0  0.78092  0.33074  0.34548  1.0000
  C   C548      1.0  0.90971  0.45795  0.00494  1.0000
  H   H646      1.0  0.81286  0.06052  0.33199  1.0000
  C   C549      1.0  0.84880  0.04168  0.42887  1.0000
  H   H647      1.0  0.86188  0.05470  0.43405  1.0000
  H   H648      1.0  0.86049  0.14439  0.43266  1.0000
  C   C550      1.0  0.95011  0.30038  0.03747  1.0000
  C   C551      1.0  0.91134  0.29932  0.05611  1.0000
  C   C552      1.0  0.97645  0.21031  0.17075  1.0000
  C   C553      1.0  0.89354  0.19734  0.24407  1.0000
  H   H649      1.0  0.94393  0.26551  0.22146  1.0000
  H   H650      1.0  0.94080  0.02820  0.14924  1.0000
  C   C554      1.0  0.83729  0.37183  0.33627  1.0000
  H   H651      1.0  0.94990  0.22940  0.24269  1.0000
  H   H652      1.0  0.85285  0.37201  0.24461  1.0000
  C   C555      1.0  0.86360  0.05882  0.29042  1.0000
  N   N35       1.0  0.91238  0.25838  0.24827  1.0000
  C   C556      1.0  0.93480  0.26918  0.24797  1.0000
  C   C557      1.0  0.89954  0.26711  0.21562  1.0000
  C   C558      1.0  0.90103  0.26566  0.28325  1.0000
  C   C559      1.0  0.91329  0.23354  0.24640  1.0000
  C   C560      1.0  0.89318  0.22079  0.24647  1.0000
  C   C561      1.0  0.93374  0.22131  0.24393  1.0000
  C   C562      1.0  0.96546  0.00812  0.09705  1.0000
  C   C563      1.0  0.93388  0.19785  0.24180  1.0000
  Fe  Fe79      1.0  0.85124  0.10693  0.48054  1.0000
  C   C564      1.0  0.94267  0.46980  0.04178  1.0000
  H   H653      1.0  0.93343  0.28780  0.24995  1.0000
  H   H654      1.0  0.77132  0.34353  0.38744  1.0000
  H   H655      1.0  0.88159  0.26231  0.21633  1.0000
  H   H656      1.0  0.90656  0.26060  0.18881  1.0000
  H   H657      1.0  0.90001  0.28581  0.21431  1.0000
  H   H658      1.0  0.90982  0.25893  0.30846  1.0000
  H   H659      1.0  0.90072  0.28433  0.28585  1.0000
  C   C565      1.0  0.91311  0.07385  0.01491  1.0000
  H   H660      1.0  0.87701  0.22891  0.24782  1.0000
  H   H661      1.0  0.88761  0.17330  0.37803  1.0000
  H   H662      1.0  0.95715  0.44509  0.07873  1.0000
  C   C566      1.0  0.93170  0.02332  0.12300  1.0000
  C   C567      1.0  0.93083  0.23128  0.02880  1.0000
  N   N36       1.0  0.94664  0.02384  0.08978  1.0000
  C   C568      1.0  0.67212  0.01913  0.00294  1.0000
  N   N37       1.0  0.83297  0.04860  0.39867  1.0000
  H   H663      1.0  0.93973  0.25796  0.06533  1.0000
  C   C569      1.0  0.72987  0.31682  0.45764  1.0000
  H   H664      1.0  0.87750  0.26443  0.44771  1.0000
  H   H665      1.0  0.76999  0.35921  0.34464  1.0000
  H   H666      1.0  0.87872  0.04527  0.37878  1.0000
  H   H667      1.0  0.89378  0.29517  0.04806  1.0000
  H   H668      1.0  0.89173  0.14650  0.47277  1.0000
  C   C570      1.0  0.89946  0.21173  0.44492  1.0000
  H   H669      1.0  0.91170  0.31727  0.06503  1.0000
  C   C571      1.0  0.86915  0.38302  0.01153  1.0000
  H   H670      1.0  0.84473  0.37598  0.36319  1.0000
  H   H671      1.0  0.72936  0.20401  0.44247  1.0000
  H   H672      1.0  0.88330  0.26011  0.28434  1.0000
  Fe  Fe80      1.0  0.97311  0.35069  0.17632  1.0000
  H   H673      1.0  0.80136  0.03619  0.37671  1.0000
  C   C572      1.0  0.86726  0.04924  0.35620  1.0000
  H   H674      1.0  0.89487  0.05129  0.31746  1.0000
  N   N38       1.0  0.88108  0.17399  0.43741  1.0000
  H   H675      1.0  0.95940  0.99048  0.09815  1.0000
  H   H676      1.0  0.91564  0.28917  0.08131  1.0000
  H   H677      1.0  0.96865  0.04865  0.06503  1.0000
  H   H678      1.0  0.96437  0.02332  0.01879  1.0000
  Fe  Fe81      1.0  0.65293  0.12360  0.47465  1.0000
  C   C573      1.0  0.87975  0.19880  0.43917  1.0000
  C   C574      1.0  0.92122  0.31087  0.99395  1.0000
  H   H679      1.0  0.85717  0.02549  0.42200  1.0000
  H   H680      1.0  0.94964  0.18884  0.23909  1.0000
  H   H681      1.0  0.81437  0.06839  0.43859  1.0000
  C   C575      1.0  0.83074  0.05794  0.32989  1.0000
  C   C576      1.0  0.89492  0.16707  0.40487  1.0000
  C   C577      1.0  0.82249  0.06998  0.41068  1.0000
  H   H682      1.0  0.69178  0.08789  0.46330  1.0000
  C   C578      1.0  0.94068  0.19920  0.14486  1.0000
  C   C579      1.0  0.85888  0.16298  0.43335  1.0000
  C   C580      1.0  0.84058  0.06148  0.29487  1.0000
  H   H683      1.0  0.82228  0.01505  0.38527  1.0000
  H   H684      1.0  0.84011  0.03934  0.45619  1.0000
  H   H685      1.0  0.86682  0.38304  0.30733  1.0000
  H   H686      1.0  0.72886  0.30050  0.44431  1.0000
  C   C581      1.0  0.92534  0.27111  0.01342  1.0000
  C   C582      1.0  0.95577  0.04690  0.08712  1.0000
  H   H687      1.0  0.67774  0.01381  0.03138  1.0000
  C   C583      1.0  0.75087  0.32592  0.46685  1.0000
  H   H688      1.0  0.81532  0.35488  0.23762  1.0000
  C   C584      1.0  0.92892  0.43200  0.04801  1.0000
  H   H689      1.0  0.95465  0.29190  0.06424  1.0000
  S   S160      1.0  0.77276  0.07513  0.47793  1.0000
  H   H690      1.0  0.84772  0.16714  0.45739  1.0000
  C   C585      1.0  0.89861  0.23513  0.44778  1.0000
  H   H691      1.0  0.96400  0.05216  0.11389  1.0000
  C   C586      1.0  0.70823  0.09551  0.46423  1.0000
  C   C587      1.0  0.92157  0.22490  0.99444  1.0000
  N   N39       1.0  0.92696  0.29502  0.02469  1.0000
  C   C588      1.0  0.94413  0.44866  0.05820  1.0000
  C   C589      1.0  0.75091  0.11509  0.46697  1.0000
  H   H692      1.0  0.76728  0.12282  0.46822  1.0000
  H   H693      1.0  0.98284  0.24610  0.17363  1.0000
  H   H694      1.0  0.75390  0.01366  0.99847  1.0000
  C   C590      1.0  0.71599  0.19726  0.46089  1.0000
  H   H695      1.0  0.71360  0.17926  0.45345  1.0000
  H   H696      1.0  0.91376  0.24465  0.45329  1.0000
  H   H697      1.0  0.70009  0.20608  0.45343  1.0000
  S   S161      1.0  0.98262  0.04613  0.19022  1.0000
  H   H698      1.0  0.92357  0.32866  0.00287  1.0000
  H   H699      1.0  0.71467  0.02284  0.00775  1.0000
  H   H700      1.0  0.72584  0.06398  0.47012  1.0000
  C   C591      1.0  0.72750  0.08201  0.46812  1.0000
  H   H701      1.0  0.91568  0.20381  0.44781  1.0000
  Fe  Fe82      1.0  0.80854  0.32010  0.48174  1.0000
  H   H702      1.0  0.73371  0.14624  0.45788  1.0000
  C   C592      1.0  0.86977  0.45464  0.99075  1.0000
  H   H703      1.0  0.90936  0.17045  0.47552  1.0000
  H   H704      1.0  0.96267  0.29543  0.01601  1.0000
  H   H705      1.0  0.97859  0.00909  0.07517  1.0000
  C   C593      1.0  0.91440  0.00550  0.98505  1.0000
  C   C594      1.0  0.93676  0.01214  0.98574  1.0000
  C   C595      1.0  0.74884  0.09184  0.47019  1.0000
  C   C596      1.0  0.74107  0.00330  0.98553  1.0000
  C   C597      1.0  0.71115  0.34990  0.48237  1.0000
  Fe  Fe83      1.0  0.81913  0.44201  0.83477  1.0000
  S   S162      1.0  0.83135  0.40617  0.83647  1.0000
  S   S163      1.0  0.78262  0.44883  0.81449  1.0000
  Fe  Fe84      1.0  0.86829  0.46067  0.84757  1.0000
  S   S164      1.0  0.88245  0.42556  0.84874  1.0000
  Fe  Fe85      1.0  0.85935  0.41810  0.79947  1.0000
  S   S165      1.0  0.87315  0.40040  0.74692  1.0000
  Fe  Fe86      1.0  0.85332  0.41686  0.88561  1.0000
  S   S166      1.0  0.85434  0.39948  0.94338  1.0000
  S   S167      1.0  0.84698  0.45376  0.79609  1.0000
  S   S168      1.0  0.83934  0.45212  0.88602  1.0000
  S   S169      1.0  0.68110  0.44792  0.87686  1.0000
  H   H706      1.0  0.81867  0.48033  0.72645  1.0000
  S   S170      1.0  0.88392  0.00334  0.83981  1.0000
  Fe  Fe87      1.0  0.82043  0.00038  0.86477  1.0000
  S   S171      1.0  0.83755  0.03228  0.84603  1.0000
  S   S172      1.0  0.78322  0.00610  0.88124  1.0000
  Fe  Fe88      1.0  0.85415  0.01072  0.80239  1.0000
  S   S173      1.0  0.86136  0.01978  0.74069  1.0000
  Fe  Fe89      1.0  0.86608  0.02289  0.88499  1.0000
  S   S174      1.0  0.88975  0.04765  0.91553  1.0000
  H   H707      1.0  0.87866  0.11462  0.77411  1.0000
  H   H708      1.0  0.77508  0.43847  0.73554  1.0000
  H   H709      1.0  0.71548  0.06609  0.53870  1.0000
  H   H710      1.0  0.65231  0.01562  0.93721  1.0000
  H   H711      1.0  0.83541  0.28369  0.60652  1.0000
  S   S175      1.0  0.85318  0.13089  0.53002  1.0000
  H   H712      1.0  0.87246  0.21844  0.55151  1.0000
  S   S176      1.0  0.80040  0.11897  0.54517  1.0000
  H   H713      1.0  0.82370  0.30877  0.62609  1.0000
  C   C598      1.0  0.88228  0.11201  0.71496  1.0000
  C   C599      1.0  0.75318  0.07793  0.66100  1.0000
  Fe  Fe90      1.0  0.83387  0.10460  0.56258  1.0000
  S   S177      1.0  0.83632  0.09912  0.62645  1.0000
  H   H714      1.0  0.70639  0.19147  0.55402  1.0000
  Fe  Fe91      1.0  0.83431  0.34434  0.54492  1.0000
  C   C600      1.0  0.69319  0.41943  0.63348  1.0000
  S   S178      1.0  0.82409  0.36293  0.59893  1.0000
  Fe  Fe92      1.0  0.84904  0.29787  0.51778  1.0000
  H   H715      1.0  0.86138  0.26920  0.67786  1.0000
  H   H716      1.0  0.86969  0.26832  0.62933  1.0000
  H   H717      1.0  0.81868  0.33627  0.74716  1.0000
  S   S179      1.0  0.86739  0.33063  0.52469  1.0000
  S   S180      1.0  0.81685  0.31094  0.54096  1.0000
  C   C601      1.0  0.77240  0.07502  0.63945  1.0000
  H   H718      1.0  0.86390  0.05940  0.79603  1.0000
  C   C602      1.0  0.89765  0.38566  0.96395  1.0000
  C   C603      1.0  0.84752  0.24129  0.52998  1.0000
  H   H719      1.0  0.71714  0.43330  0.67285  1.0000
  H   H720      1.0  0.80641  0.45713  0.74923  1.0000
  H   H721      1.0  0.81995  0.45808  0.63170  1.0000
  H   H722      1.0  0.89014  0.34146  0.74480  1.0000
  H   H723      1.0  0.81867  0.31411  0.69003  1.0000
  H   H724      1.0  0.88683  0.28251  0.66303  1.0000
  C   C604      1.0  0.74331  0.18918  0.50957  1.0000
  H   H725      1.0  0.73945  0.44780  0.77739  1.0000
  N   N40       1.0  0.72148  0.20030  0.50120  1.0000
  S   S181      1.0  0.68652  0.36546  0.49118  1.0000
  C   C605      1.0  0.83310  0.44137  0.69682  1.0000
  H   H726      1.0  0.90265  0.38950  0.93554  1.0000
  H   H727      1.0  0.79765  0.22526  0.49153  1.0000
  H   H728      1.0  0.94586  0.01322  0.95957  1.0000
  C   C606      1.0  0.70647  0.25982  0.53318  1.0000
  H   H729      1.0  0.67812  0.36959  0.59034  1.0000
  C   C607      1.0  0.85202  0.04102  0.70876  1.0000
  C   C608      1.0  0.85787  0.03921  0.67057  1.0000
  C   C609      1.0  0.85232  0.05626  0.64458  1.0000
  C   C610      1.0  0.84118  0.07566  0.65660  1.0000
  C   C611      1.0  0.83500  0.07732  0.69466  1.0000
  C   C612      1.0  0.84010  0.06005  0.72045  1.0000
  H   H730      1.0  0.86703  0.02459  0.66108  1.0000
  H   H731      1.0  0.85732  0.05470  0.61556  1.0000
  H   H732      1.0  0.82641  0.09222  0.70439  1.0000
  H   H733      1.0  0.83512  0.06168  0.74944  1.0000
  Fe  Fe93      1.0  0.80258  0.09575  0.49601  1.0000
  C   C613      1.0  0.73720  0.01188  0.87544  1.0000
  C   C614      1.0  0.71480  0.00528  0.86798  1.0000
  C   C615      1.0  0.69010  0.09340  0.61055  1.0000
  H   H734      1.0  0.91361  0.45428  0.93014  1.0000
  H   H735      1.0  0.73313  0.37562  0.50395  1.0000
  H   H736      1.0  0.74042  0.02812  0.88798  1.0000
  H   H737      1.0  0.70120  0.01665  0.87402  1.0000
  C   C616      1.0  0.90157  0.06996  0.72758  1.0000
  H   H738      1.0  0.92394  0.07127  0.95722  1.0000
  H   H739      1.0  0.76813  0.35423  0.49112  1.0000
  N   N41       1.0  0.66307  0.40247  0.59083  1.0000
  H   H740      1.0  0.89151  0.31834  0.68807  1.0000
  C   C617      1.0  0.81302  0.46699  0.65653  1.0000
  C   C618      1.0  0.79398  0.43461  0.68300  1.0000
  C   C619      1.0  0.73218  0.35915  0.49122  1.0000
  H   H741      1.0  0.82461  0.28299  0.65307  1.0000
  C   C620      1.0  0.66048  0.40238  0.66130  1.0000
  C   C621      1.0  0.85931  0.38914  0.70652  1.0000
  C   C622      1.0  0.87201  0.38373  0.67450  1.0000
  C   C623      1.0  0.86171  0.37518  0.64161  1.0000
  C   C624      1.0  0.83851  0.37177  0.64044  1.0000
  C   C625      1.0  0.82595  0.37655  0.67284  1.0000
  C   C626      1.0  0.83619  0.38527  0.70556  1.0000
  H   H742      1.0  0.88993  0.38649  0.67496  1.0000
  H   H743      1.0  0.87166  0.37172  0.61696  1.0000
  H   H744      1.0  0.80813  0.37337  0.67276  1.0000
  H   H745      1.0  0.82620  0.38881  0.73015  1.0000
  C   C627      1.0  0.75455  0.44703  0.83255  1.0000
  C   C628      1.0  0.74990  0.44642  0.87103  1.0000
  C   C629      1.0  0.72743  0.44647  0.88381  1.0000
  C   C630      1.0  0.70914  0.44663  0.85853  1.0000
  C   C631      1.0  0.71377  0.44676  0.81997  1.0000
  C   C632      1.0  0.73624  0.44722  0.80719  1.0000
  C   C633      1.0  0.89722  0.44914  0.94215  1.0000
  C   C634      1.0  0.79477  0.42114  0.65002  1.0000
  H   H746      1.0  0.70005  0.44694  0.80004  1.0000
  N   N42       1.0  0.81111  0.45219  0.68980  1.0000
  C   C635      1.0  0.87353  0.07165  0.81340  1.0000
  H   H747      1.0  0.85407  0.35033  0.77478  1.0000
  H   H748      1.0  0.72458  0.10712  0.53898  1.0000
  H   H749      1.0  0.67213  0.99778  0.91460  1.0000
  C   C636      1.0  0.88497  0.10418  0.75168  1.0000
  N   N43       1.0  0.85634  0.30012  0.64807  1.0000
  C   C637      1.0  0.86784  0.31302  0.61837  1.0000
  C   C638      1.0  0.86913  0.27916  0.65498  1.0000
  C   C639      1.0  0.83397  0.29366  0.63300  1.0000
  C   C640      1.0  0.85530  0.31361  0.68306  1.0000
  C   C641      1.0  0.87530  0.32168  0.70021  1.0000
  C   C642      1.0  0.83478  0.31908  0.70116  1.0000
  C   C643      1.0  0.87477  0.33468  0.73297  1.0000
  C   C644      1.0  0.83450  0.33183  0.73424  1.0000
  C   C645      1.0  0.85442  0.33969  0.74999  1.0000
  H   H750      1.0  0.88535  0.31746  0.62589  1.0000
  H   H751      1.0  0.86882  0.30325  0.59173  1.0000
  H   H752      1.0  0.85876  0.32894  0.61232  1.0000
  C   C646      1.0  0.87525  0.38852  0.97451  1.0000
  C   C647      1.0  0.67019  0.01049  0.93727  1.0000
  C   C648      1.0  0.67687  0.41063  0.55907  1.0000
  C   C649      1.0  0.84364  0.20050  0.53007  1.0000
  H   H753      1.0  0.90817  0.05316  0.73015  1.0000
  S   S182      1.0  0.86361  0.26545  0.53980  1.0000
  H   H754      1.0  0.78927  0.47487  0.71992  1.0000
  H   H755      1.0  0.83850  0.43055  0.67298  1.0000
  S   S183      1.0  0.83483  0.07965  0.51488  1.0000
  C   C650      1.0  0.85610  0.21994  0.53851  1.0000
  H   H756      1.0  0.85026  0.18413  0.53696  1.0000
  S   S184      1.0  0.80661  0.17850  0.50060  1.0000
  Fe  Fe94      1.0  0.81960  0.14315  0.50967  1.0000
  H   H757      1.0  0.86378  0.08752  0.81389  1.0000
  H   H758      1.0  0.79636  0.47401  0.64853  1.0000
  H   H759      1.0  0.84664  0.45388  0.70187  1.0000
  H   H760      1.0  0.71829  0.08425  0.66212  1.0000
  H   H761      1.0  0.69995  0.05443  0.57682  1.0000
  C   C651      1.0  0.70523  0.23661  0.52753  1.0000
  H   H762      1.0  0.83247  0.43052  0.72217  1.0000
  H   H763      1.0  0.74984  0.38709  0.66359  1.0000
  H   H764      1.0  0.90621  0.00155  0.95853  1.0000
  H   H765      1.0  0.70355  0.42432  0.61018  1.0000
  H   H766      1.0  0.67444  0.09778  0.59495  1.0000
  H   H767      1.0  0.65650  0.03887  0.63040  1.0000
  C   C652      1.0  0.80603  0.46678  0.72261  1.0000
  H   H768      1.0  0.92558  0.09436  0.81078  1.0000
  H   H769      1.0  0.78595  0.07367  0.58383  1.0000
  C   C653      1.0  0.76187  0.40038  0.66877  1.0000
  H   H770      1.0  0.74961  0.19386  0.53803  1.0000
  H   H771      1.0  0.91082  0.08443  0.85151  1.0000
  H   H772      1.0  0.89884  0.03909  0.78636  1.0000
  H   H773      1.0  0.81953  0.25947  0.50663  1.0000
  C   C654      1.0  0.88928  0.09898  0.68471  1.0000
  H   H774      1.0  0.75441  0.07682  0.69133  1.0000
  H   H775      1.0  0.90937  0.04706  0.83133  1.0000
  H   H776      1.0  0.72573  0.28986  0.52494  1.0000
  N   N44       1.0  0.89638  0.07456  0.79823  1.0000
  H   H777      1.0  0.87397  0.06531  0.84280  1.0000
  C   C655      1.0  0.89896  0.07806  0.69101  1.0000
  H   H778      1.0  0.90671  0.23616  0.94280  1.0000
  H   H779      1.0  0.90351  0.06759  0.66728  1.0000
  C   C656      1.0  0.67233  0.40825  0.62833  1.0000
  C   C657      1.0  0.71174  0.10938  0.56108  1.0000
  C   C658      1.0  0.90811  0.05264  0.80151  1.0000
  H   H780      1.0  0.65914  0.40293  0.72176  1.0000
  H   H781      1.0  0.89962  0.10707  0.82516  1.0000
  C   C659      1.0  0.90865  0.09087  0.82229  1.0000
  H   H782      1.0  0.66915  0.40619  0.53139  1.0000
  H   H783      1.0  0.71687  0.12408  0.57842  1.0000
  C   C660      1.0  0.89472  0.08289  0.75917  1.0000
  H   H784      1.0  0.92545  0.05350  0.79037  1.0000
  C   C661      1.0  0.72276  0.22468  0.50928  1.0000
  H   H785      1.0  0.85595  0.45873  0.97070  1.0000
  C   C662      1.0  0.77096  0.07608  0.60050  1.0000
  H   H786      1.0  0.69591  0.11378  0.54600  1.0000
  H   H787      1.0  0.68667  0.07336  0.54455  1.0000
  H   H788      1.0  0.69366  0.10771  0.62980  1.0000
  C   C663      1.0  0.70259  0.06994  0.56010  1.0000
  H   H789      1.0  0.68025  0.02542  0.92932  1.0000
  C   C664      1.0  0.75038  0.08036  0.58292  1.0000
  H   H790      1.0  0.68590  0.07827  0.62736  1.0000
  C   C665      1.0  0.89179  0.05537  0.96408  1.0000
  H   H791      1.0  0.93211  0.30820  0.96908  1.0000
  H   H792      1.0  0.67867  0.42919  0.55969  1.0000
  H   H793      1.0  0.78015  0.39410  0.61789  1.0000
  N   N45       1.0  0.70906  0.08906  0.58461  1.0000
  H   H794      1.0  0.88433  0.45181  0.91998  1.0000
  H   H795      1.0  0.87404  0.12793  0.70973  1.0000
  H   H796      1.0  0.69375  0.40261  0.55883  1.0000
  C   C666      1.0  0.70130  0.42463  0.66949  1.0000
  H   H797      1.0  0.78848  0.07188  0.65289  1.0000
  H   H798      1.0  0.75662  0.19342  0.48908  1.0000
  C   C667      1.0  0.77665  0.42976  0.70902  1.0000
  H   H799      1.0  0.68680  0.19384  0.51524  1.0000
  H   H800      1.0  0.74211  0.17056  0.50861  1.0000
  C   C668      1.0  0.72500  0.27183  0.52083  1.0000
  H   H801      1.0  0.69012  0.22858  0.53713  1.0000
  H   H802      1.0  0.80820  0.42278  0.62999  1.0000
  C   C669      1.0  0.73051  0.08390  0.60398  1.0000
  H   H803      1.0  0.88634  0.10470  0.65622  1.0000
  H   H804      1.0  0.75023  0.08090  0.55258  1.0000
  C   C670      1.0  0.73247  0.08226  0.64372  1.0000
  C   C671      1.0  0.82632  0.24311  0.51328  1.0000
  H   H805      1.0  0.65896  0.21883  0.49072  1.0000
  C   C672      1.0  0.74231  0.26073  0.50238  1.0000
  H   H806      1.0  0.76360  0.44639  0.89105  1.0000
  C   C673      1.0  0.75547  0.99765  0.86719  1.0000
  C   C674      1.0  0.66144  0.37777  0.58712  1.0000
  C   C675      1.0  0.77878  0.40450  0.64291  1.0000
  C   C676      1.0  0.76090  0.41289  0.70185  1.0000
  H   H807      1.0  0.69267  0.26864  0.54646  1.0000
  H   H808      1.0  0.69533  0.42281  0.72908  1.0000
  C   C677      1.0  0.82255  0.20235  0.51296  1.0000
  H   H809      1.0  0.89785  0.43082  0.94737  1.0000
  H   H810      1.0  0.74812  0.40927  0.72252  1.0000
  H   H811      1.0  0.82457  0.48132  0.66194  1.0000
  H   H812      1.0  0.88238  0.17114  0.49755  1.0000
  C   C678      1.0  0.68906  0.41876  0.70121  1.0000
  C   C679      1.0  0.70403  0.18856  0.52338  1.0000
  H   H813      1.0  0.70427  0.17007  0.51831  1.0000
  C   C680      1.0  0.81393  0.22370  0.50474  1.0000
  H   H814      1.0  0.72422  0.44642  0.91367  1.0000
  C   C681      1.0  0.66870  0.40761  0.69709  1.0000
  N   N46       1.0  0.89193  0.46206  0.97656  1.0000
  H   H815      1.0  0.75650  0.27027  0.49216  1.0000
  S   S185      1.0  0.84819  0.99250  0.90682  1.0000
  C   C682      1.0  0.74118  0.23756  0.49630  1.0000
  H   H816      1.0  0.93099  0.37613  0.98181  1.0000
  C   C683      1.0  0.91084  0.06720  0.97688  1.0000
  Fe  Fe95      1.0  0.65446  0.34523  0.49366  1.0000
  H   H817      1.0  0.90942  0.27574  0.95815  1.0000
  H   H818      1.0  0.65472  0.37292  0.55906  1.0000
  N   N47       1.0  0.67724  0.00168  0.97428  1.0000
  S   S186      1.0  0.82352  0.35455  0.48627  1.0000
  C   C684      1.0  0.70129  0.99559  0.97243  1.0000
  C   C685      1.0  0.91404  0.24123  0.96943  1.0000
  H   H819      1.0  0.86017  0.04140  0.98070  1.0000
  C   C686      1.0  0.91577  0.26403  0.97865  1.0000
  C   C687      1.0  0.75201  0.34707  0.48393  1.0000
  C   C688      1.0  0.74744  0.98533  0.96284  1.0000
  H   H820      1.0  0.88638  0.49688  0.99074  1.0000
  H   H821      1.0  0.92578  0.49110  0.00349  1.0000
  H   H822      1.0  0.66921  0.97359  0.00952  1.0000
  S   S187      1.0  0.96481  0.87842  0.81787  1.0000
  H   H823      1.0  0.95150  0.84375  0.87781  1.0000
  C   C689      1.0  0.97669  0.88258  0.70481  1.0000
  S   S188      1.0  0.88418  0.94081  0.87762  1.0000
  C   C690      1.0  0.91215  0.50914  0.84985  1.0000
  C   C691      1.0  0.92641  0.52039  0.87548  1.0000
  C   C692      1.0  0.94181  0.53691  0.86346  1.0000
  C   C693      1.0  0.94302  0.54283  0.82550  1.0000
  C   C694      1.0  0.92884  0.53153  0.79982  1.0000
  C   C695      1.0  0.91369  0.51473  0.81176  1.0000
  H   H824      1.0  0.88736  0.88301  0.80167  1.0000
  H   H825      1.0  0.95242  0.54540  0.88371  1.0000
  H   H826      1.0  0.92941  0.53594  0.77043  1.0000
  C   C696      1.0  0.66672  0.50316  0.86355  1.0000
  C   C697      1.0  0.94396  0.89717  0.83630  1.0000
  C   C698      1.0  0.93720  0.89687  0.87389  1.0000
  C   C699      1.0  0.91936  0.91076  0.88613  1.0000
  C   C700      1.0  0.90822  0.92552  0.86132  1.0000
  C   C701      1.0  0.91546  0.92629  0.82401  1.0000
  C   C702      1.0  0.93301  0.91209  0.81159  1.0000
  H   H827      1.0  0.94525  0.88554  0.89338  1.0000
  H   H828      1.0  0.91387  0.90981  0.91496  1.0000
  H   H829      1.0  0.90703  0.93732  0.80441  1.0000
  H   H830      1.0  0.93792  0.91254  0.78244  1.0000
  N   N48       1.0  0.92528  0.82224  0.85748  1.0000
  H   H831      1.0  0.68051  0.48591  0.81596  1.0000
  S   S189      1.0  0.68200  0.97351  0.84721  1.0000
  H   H832      1.0  0.90791  0.80157  0.89789  1.0000
  C   C703      1.0  0.88094  0.86387  0.89035  1.0000
  C   C704      1.0  0.94325  0.82757  0.88497  1.0000
  C   C705      1.0  0.88964  0.48604  0.96587  1.0000
  H   H833      1.0  0.93686  0.82921  0.91408  1.0000
  H   H834      1.0  0.87551  0.48867  0.94567  1.0000
  C   C706      1.0  0.90868  0.84077  0.85696  1.0000
  H   H835      1.0  0.73619  0.95879  0.92655  1.0000
  H   H836      1.0  0.94831  0.80397  0.82191  1.0000
  S   S190      1.0  0.96123  0.56456  0.80867  1.0000
  C   C707      1.0  0.90490  0.85451  0.82496  1.0000
  H   H837      1.0  0.97630  0.52639  0.73520  1.0000
  H   H838      1.0  0.92635  0.78656  0.86788  1.0000
  C   C708      1.0  0.88950  0.87224  0.82590  1.0000
  C   C709      1.0  0.89622  0.84604  0.88972  1.0000
  C   C710      1.0  0.71012  0.98394  0.85329  1.0000
  C   C711      1.0  0.72840  0.96987  0.84440  1.0000
  C   C712      1.0  0.70843  0.97737  0.94959  1.0000
  C   C713      1.0  0.93614  0.81820  0.82061  1.0000
  H   H839      1.0  0.90472  0.49223  0.95087  1.0000
  H   H840      1.0  0.91410  0.85244  0.79919  1.0000
  Fe  Fe96      1.0  0.86522  0.97317  0.85981  1.0000
  H   H841      1.0  0.86633  0.89126  0.85944  1.0000
  C   C714      1.0  0.73114  0.97225  0.94527  1.0000
  H   H842      1.0  0.97099  0.89696  0.68732  1.0000
  H   H843      1.0  0.95640  0.81422  0.88562  1.0000
  H   H844      1.0  0.97304  0.86690  0.68894  1.0000
  C   C715      1.0  0.87760  0.87694  0.85850  1.0000
  H   H845      1.0  0.89856  0.83674  0.91540  1.0000
  H   H846      1.0  0.94595  0.83308  0.81149  1.0000
  H   H847      1.0  0.90003  0.79690  0.84972  1.0000
  H   H848      1.0  0.72517  0.95337  0.83282  1.0000
  H   H849      1.0  0.66366  0.96888  0.96044  1.0000
  C   C716      1.0  0.75085  0.97669  0.85095  1.0000
  S   S191      1.0  0.89237  0.48902  0.86739  1.0000
  H   H850      1.0  0.92548  0.51642  0.90498  1.0000
  C   C717      1.0  0.98415  0.72569  0.87517  1.0000
  C   C718      1.0  0.91436  0.80095  0.86873  1.0000
  H   H851      1.0  0.87198  0.86799  0.91587  1.0000
  H   H852      1.0  0.67968  0.49708  0.88250  1.0000
  H   H853      1.0  0.76455  0.96542  0.84455  1.0000
  H   H854      1.0  0.92359  0.81398  0.79848  1.0000
  C   C719      1.0  0.66719  0.49676  0.82596  1.0000
  H   H855      1.0  0.97804  0.96752  0.95414  1.0000
  H   H856      1.0  0.69663  0.96760  0.93318  1.0000
  H   H857      1.0  0.90287  0.50645  0.79159  1.0000
  S   S192      1.0  0.83612  0.97888  0.81931  1.0000
  H   H858      1.0  0.96602  0.88217  0.73046  1.0000
  H   H859      1.0  0.97896  0.56850  0.73659  1.0000
  H   H860      1.0  0.76505  0.98199  0.95776  1.0000
  H   H861      1.0  0.96785  0.72923  0.88695  1.0000
  H   H862      1.0  0.97949  0.52663  0.68532  1.0000
  H   H863      1.0  0.97907  0.68962  0.87486  1.0000
  H   H864      1.0  0.98093  0.56776  0.68697  1.0000
  C   C720      1.0  0.66339  0.98171  0.98314  1.0000
