data_image0
_chemical_formula_structural       FeHSCFeSHFeSHFeSH2FeS3C10H7CHSFeCH4NCS2CH6CHCHC2FeHCHCHCH2C2HCH2C3HC2FeHCSHSH5FeC2HCH2CNSC4H2CH4NH2C3SCHCFeS2H2C2H2FeS2FeS2FeSFeS3HCH3CFeS2HCH2CHFeS2HC6H4C6H6CHC9HC4H2SH2C2H2CNH2CSH2CH3CH3C2H3CH3NCHCHCHC4HNH3C2HCH3CFeHSHCH4C2H5SC3HC3FeNCHCH2C2H4C2H2CHCHFeS2FeS2FeSFeS3FeS2FeSFeHFeHS2HCH2C2SHCHC2H3CHC6H5C2H2C3HCNC6H11NC6H6CHCH2C2H3C2SHC2HNH3CSC3HC2HNC2H3CH5SHC2HC4HCH2S2CHCHCHFeSCHCHC2HSC3HNSH2C2HSHCFeH2CSCH2CH3CHSHC2H2CH3CHFeH2SCHCSCHCHCH2NFeS2FeS2HCHSCH3C7H12C3H3NH5CSH2SH2CH2C2HCHNC8H2CHCH2FeH3CHC2FeH2C2HSC2SH2FeSHFeSCH2NCSHCHC2H4CHC2H2CSCH2C2SH9CH2C2HC2HCH2CHNC7HC3H2C2H2FeHSH2CHCH2CHCHCH4SFeSH2CSC2H2C2FeC3H2CHCH2CHCHCH2SC2H3CH2NHCHC2HCHC3H4CHNH3CH4C2HCSCHFe2S2HCSC3FeS2C6H4C2HCH3C3H3C2H3CHFeCH2CNC3H2CSC2H3NH3CH2NC6SH14CHC2HCHCSCH2CH2C3HCFeCFeHSHCHSH2FeSFeCSHCHC2SHNHCH3CHSC4HCH2SCH2C3HFeHFeHC2HC5FeCSH3CFeC2H4CSCH3C2H4S2NH3C2HC5H2SH2C3H2C2HCHFeS2FeHSCHFeNS2FeS2FeS2FeSFeS3CHCHCHCSH3CH3C2H3C2H2C7H4CHC2HC2N2C7H5C2HC2H2C2H2CH3C2H2CH4CH2C2H12CHCH3CH3C3NC2H5FeCHN2CFeS2FeS2FeSFeS3FeS2FeS2HC10H4C6H4C3H3CH2C2HC5H4CH3SHCH2CH2CH6CHCHCHCNHCHC3H3CH2CH2CHFeNHSNC8H14C2H2C2H4CH2SCHC4HCSH2SCSC2SCFeSCHC3NFeCH3CNH3CNCHSHSHSHFeH5SHSCHCFeCHC6H3CSCSH4C2H6CFeC6H4SCSH7CH2CHCHSC2FeC2HCSFeHCHC
_chemical_formula_sum              "Fe72 H648 S144 C540 N36"
_cell_length_a       38.9629
_cell_length_b       38.9738
_cell_length_c       58.9165
_cell_angle_alpha    89.2992
_cell_angle_beta     89.8915
_cell_angle_gamma    120.256

_space_group_name_H-M_alt    "P 1"
_space_group_IT_number       1

loop_
  _space_group_symop_operation_xyz
  'x, y, z'

loop_
  _atom_site_type_symbol
  _atom_site_label
  _atom_site_symmetry_multiplicity
  _atom_site_fract_x
  _atom_site_fract_y
  _atom_site_fract_z
  _atom_site_occupancy
  Fe  Fe1       1.0  0.06506  0.36673  0.99730  1.0000
  H   H1        1.0  0.06847  0.46364  0.98707  1.0000
  S   S1        1.0  0.05886  0.39344  0.02965  1.0000
  C   C1        1.0  0.13098  0.02329  0.14398  1.0000
  Fe  Fe2       1.0  0.30858  0.04562  0.99658  1.0000
  S   S2        1.0  0.36137  0.06709  0.01926  1.0000
  H   H2        1.0  0.19372  0.07267  0.16999  1.0000
  Fe  Fe3       1.0  0.04722  0.20861  0.23404  1.0000
  S   S3        1.0  0.10130  0.20528  0.24453  1.0000
  H   H3        1.0  0.12405  0.47959  0.02774  1.0000
  Fe  Fe4       1.0  0.31997  0.01719  0.04314  1.0000
  S   S4        1.0  0.04282  0.26360  0.23915  1.0000
  H   H4        1.0  0.22962  0.09055  0.14714  1.0000
  H   H5        1.0  0.33866  0.27222  0.00993  1.0000
  Fe  Fe5       1.0  0.16136  0.04401  0.21730  1.0000
  S   S5        1.0  0.13263  0.07561  0.20020  1.0000
  S   S6        1.0  0.25945  0.05273  0.27759  1.0000
  S   S7        1.0  0.22368  0.05454  0.21386  1.0000
  C   C2        1.0  0.00255  0.48659  0.99316  1.0000
  C   C3        1.0  0.33750  0.24739  0.01919  1.0000
  C   C4        1.0  0.27059  0.02950  0.14180  1.0000
  C   C5        1.0  0.28973  0.01924  0.10373  1.0000
  C   C6        1.0  0.12347  0.11058  0.21355  1.0000
  C   C7        1.0  0.09424  0.11767  0.20452  1.0000
  C   C8        1.0  0.08665  0.14601  0.21419  1.0000
  C   C9        1.0  0.10905  0.16832  0.23259  1.0000
  C   C10       1.0  0.13845  0.16138  0.24156  1.0000
  C   C11       1.0  0.14536  0.13224  0.23225  1.0000
  H   H6        1.0  0.07739  0.10123  0.18998  1.0000
  H   H7        1.0  0.06394  0.15106  0.20718  1.0000
  H   H8        1.0  0.15593  0.17861  0.25577  1.0000
  H   H9        1.0  0.16814  0.12720  0.23922  1.0000
  H   H10       1.0  0.08621  0.09115  0.27007  1.0000
  H   H11       1.0  0.27552  0.10556  0.03701  1.0000
  H   H12       1.0  0.17811  0.31273  0.01185  1.0000
  C   C12       1.0  0.37178  0.24499  0.02146  1.0000
  H   H13       1.0  0.10696  0.01542  0.13141  1.0000
  S   S8        1.0  0.99981  0.45031  0.01334  1.0000
  Fe  Fe6       1.0  0.21303  0.02587  0.24917  1.0000
  C   C13       1.0  0.04553  0.04434  0.24825  1.0000
  H   H14       1.0  0.31716  0.08293  0.31336  1.0000
  H   H15       1.0  0.31848  0.07488  0.12141  1.0000
  H   H16       1.0  0.01392  0.03222  0.19234  1.0000
  H   H17       1.0  0.28222  0.13301  0.07583  1.0000
  N   N1        1.0  0.33134  0.14554  0.05329  1.0000
  C   C14       1.0  0.05085  0.36574  0.23484  1.0000
  S   S9        1.0  0.15319  0.02112  0.25314  1.0000
  S   S10       1.0  0.01490  0.29616  0.07190  1.0000
  C   C15       1.0  0.31339  0.13957  0.07629  1.0000
  H   H18       1.0  0.06711  0.03505  0.24571  1.0000
  H   H19       1.0  0.39800  0.21223  0.03324  1.0000
  H   H20       1.0  0.39931  0.26798  0.01376  1.0000
  H   H21       1.0  0.27493  0.21906  0.02595  1.0000
  H   H22       1.0  0.39113  0.17369  0.06620  1.0000
  H   H23       1.0  0.03960  0.28588  0.30107  1.0000
  C   C16       1.0  0.37032  0.14769  0.05595  1.0000
  H   H24       1.0  0.36715  0.12076  0.06478  1.0000
  C   C17       1.0  0.02221  0.27065  0.11454  1.0000
  H   H25       1.0  0.07218  0.39828  0.23412  1.0000
  C   C18       1.0  0.01480  0.29638  0.15062  1.0000
  C   C19       1.0  0.00991  0.32547  0.11431  1.0000
  Fe  Fe7       1.0  0.00826  0.39573  0.01215  1.0000
  H   H26       1.0  0.18197  0.10350  0.09576  1.0000
  C   C20       1.0  0.30163  0.21729  0.02814  1.0000
  H   H27       1.0  0.31901  0.11324  0.02242  1.0000
  C   C21       1.0  0.19585  0.07047  0.07309  1.0000
  H   H28       1.0  0.00387  0.34524  0.14744  1.0000
  C   C22       1.0  0.29504  0.04412  0.12218  1.0000
  H   H29       1.0  0.02741  0.24897  0.14768  1.0000
  H   H30       1.0  0.15397  0.09758  0.15486  1.0000
  C   C23       1.0  0.29991  0.18462  0.03937  1.0000
  C   C24       1.0  0.26165  0.03148  0.30426  1.0000
  H   H31       1.0  0.09285  0.41302  0.31176  1.0000
  C   C25       1.0  0.00911  0.32435  0.13834  1.0000
  H   H32       1.0  0.19042  0.12189  0.13322  1.0000
  H   H33       1.0  0.02729  0.24966  0.10541  1.0000
  C   C26       1.0  0.18517  0.01959  0.10957  1.0000
  C   C27       1.0  0.00802  0.02594  0.23729  1.0000
  C   C28       1.0  0.15399  0.34720  0.99735  1.0000
  H   H34       1.0  0.27532  0.04900  0.15583  1.0000
  C   C29       1.0  0.33431  0.18120  0.04205  1.0000
  C   C30       1.0  0.06352  0.39851  0.30430  1.0000
  Fe  Fe8       1.0  0.01356  0.33052  0.04015  1.0000
  H   H35       1.0  0.04483  0.35568  0.21689  1.0000
  C   C31       1.0  0.37045  0.21246  0.03265  1.0000
  S   S11       1.0  0.02271  0.30392  0.00828  1.0000
  H   H36       1.0  0.19950  0.08980  0.05877  1.0000
  S   S12       1.0  0.02014  0.19736  0.19930  1.0000
  H   H37       1.0  0.49606  0.07611  0.02875  1.0000
  H   H38       1.0  0.31242  0.11375  0.08536  1.0000
  H   H39       1.0  0.13833  0.09010  0.12608  1.0000
  H   H40       1.0  0.30205  0.08243  0.04748  1.0000
  H   H41       1.0  0.12045  0.02806  0.16060  1.0000
  Fe  Fe9       1.0  0.37448  0.02315  0.00217  1.0000
  C   C32       1.0  0.30577  0.11018  0.03955  1.0000
  C   C33       1.0  0.20019  0.06562  0.15277  1.0000
  H   H42       1.0  0.08537  0.49120  0.02559  1.0000
  C   C34       1.0  0.05867  0.38816  0.28138  1.0000
  H   H43       1.0  0.33077  0.16631  0.08686  1.0000
  H   H44       1.0  0.38436  0.14917  0.03921  1.0000
  C   C35       1.0  0.02029  0.36806  0.27144  1.0000
  N   N2        1.0  0.16858  0.05892  0.13641  1.0000
  S   S13       1.0  0.01232  0.29538  0.18096  1.0000
  C   C36       1.0  0.16262  0.09366  0.13747  1.0000
  C   C37       1.0  0.18196  0.33442  0.99895  1.0000
  C   C38       1.0  0.17980  0.05242  0.11349  1.0000
  C   C39       1.0  0.18555  0.07787  0.09453  1.0000
  H   H45       1.0  0.05384  0.00557  0.21075  1.0000
  H   H46       1.0  0.27122  0.16158  0.04549  1.0000
  C   C40       1.0  0.01622  0.29839  0.10221  1.0000
  H   H47       1.0  0.04178  0.11830  0.27622  1.0000
  H   H48       1.0  0.12894  0.33539  0.00899  1.0000
  H   H49       1.0  0.00519  0.34695  0.10516  1.0000
  H   H50       1.0  0.20893  0.03213  0.05333  1.0000
  N   N3        1.0  0.01378  0.35617  0.24731  1.0000
  H   H51       1.0  0.20325  0.03896  0.15507  1.0000
  H   H52       1.0  0.06564  0.35047  0.24269  1.0000
  C   C41       1.0  0.03194  0.09204  0.26602  1.0000
  C   C42       1.0  0.02027  0.28690  0.31391  1.0000
  C   C43       1.0  0.10045  0.47341  0.98486  1.0000
  S   S14       1.0  0.32162  0.03960  0.07940  1.0000
  C   C44       1.0  0.02186  0.26985  0.13853  1.0000
  H   H53       1.0  0.01467  0.40947  0.23651  1.0000
  C   C45       1.0  0.05701  0.07680  0.26244  1.0000
  Fe  Fe10      1.0  0.00987  0.24820  0.20578  1.0000
  S   S15       1.0  0.43759  0.04488  0.98721  1.0000
  S   S16       1.0  0.24815  0.33100  0.98610  1.0000
  H   H54       1.0  0.44902  0.45350  0.98878  1.0000
  H   H55       1.0  0.08541  0.39575  0.27197  1.0000
  C   C46       1.0  0.19553  0.01255  0.08811  1.0000
  C   C47       1.0  0.20098  0.03795  0.06992  1.0000
  H   H56       1.0  0.10491  0.44909  0.99144  1.0000
  H   H57       1.0  0.99787  0.29660  0.25628  1.0000
  Fe  Fe11      1.0  0.31984  0.32136  0.54668  1.0000
  S   S17       1.0  0.28719  0.27895  0.51850  1.0000
  S   S18       1.0  0.30781  0.28932  0.58140  1.0000
  Fe  Fe12      1.0  0.36806  0.39117  0.51209  1.0000
  S   S19       1.0  0.33757  0.35229  0.48220  1.0000
  S   S20       1.0  0.41141  0.45878  0.50749  1.0000
  Fe  Fe13      1.0  0.28122  0.32868  0.50291  1.0000
  S   S21       1.0  0.22175  0.30942  0.48602  1.0000
  Fe  Fe14      1.0  0.34577  0.30571  0.50035  1.0000
  S   S22       1.0  0.37235  0.27216  0.48307  1.0000
  S   S23       1.0  0.31037  0.36984  0.53213  1.0000
  S   S24       1.0  0.37968  0.34591  0.52923  1.0000
  H   H58       1.0  0.36977  0.19474  0.58371  1.0000
  C   C48       1.0  0.31713  0.13763  0.53740  1.0000
  H   H59       1.0  0.36258  0.10244  0.50317  1.0000
  H   H60       1.0  0.30454  0.20440  0.43188  1.0000
  H   H61       1.0  0.33259  0.43028  0.49540  1.0000
  C   C49       1.0  0.39033  0.16167  0.51642  1.0000
  Fe  Fe15      1.0  0.31253  0.04616  0.45135  1.0000
  S   S25       1.0  0.29039  0.08598  0.46554  1.0000
  S   S26       1.0  0.35313  0.05578  0.42159  1.0000
  H   H62       1.0  0.29670  0.16440  0.57637  1.0000
  C   C50       1.0  0.27203  0.19249  0.37753  1.0000
  H   H63       1.0  0.28765  0.13570  0.42692  1.0000
  H   H64       1.0  0.12164  0.25344  0.59180  1.0000
  C   C51       1.0  0.17703  0.23308  0.54150  1.0000
  H   H65       1.0  0.28788  0.12639  0.54463  1.0000
  Fe  Fe16      1.0  0.05155  0.36172  0.45939  1.0000
  S   S27       1.0  0.10791  0.38294  0.48045  1.0000
  S   S28       1.0  0.04840  0.40074  0.43182  1.0000
  H   H66       1.0  0.33464  0.36963  0.64088  1.0000
  C   C52       1.0  0.34885  0.22040  0.47789  1.0000
  C   C53       1.0  0.30890  0.19444  0.48344  1.0000
  C   C54       1.0  0.29170  0.15344  0.47956  1.0000
  C   C55       1.0  0.31405  0.13793  0.46999  1.0000
  C   C56       1.0  0.35376  0.16394  0.46400  1.0000
  C   C57       1.0  0.37106  0.20496  0.46803  1.0000
  H   H67       1.0  0.29121  0.20590  0.49063  1.0000
  H   H68       1.0  0.26083  0.13357  0.48400  1.0000
  H   H69       1.0  0.37122  0.15247  0.45647  1.0000
  H   H70       1.0  0.40192  0.22485  0.46354  1.0000
  C   C58       1.0  0.19124  0.33118  0.48442  1.0000
  C   C59       1.0  0.15761  0.31362  0.47043  1.0000
  C   C60       1.0  0.13182  0.32906  0.46899  1.0000
  C   C61       1.0  0.13936  0.36225  0.48161  1.0000
  C   C62       1.0  0.17276  0.37953  0.49582  1.0000
  C   C63       1.0  0.19850  0.36401  0.49732  1.0000
  H   H71       1.0  0.15146  0.28791  0.46058  1.0000
  H   H72       1.0  0.10617  0.31537  0.45807  1.0000
  H   H73       1.0  0.17863  0.40504  0.50578  1.0000
  H   H74       1.0  0.22352  0.37716  0.50865  1.0000
  H   H75       1.0  0.10048  0.29733  0.51639  1.0000
  H   H76       1.0  0.32229  0.05546  0.35075  1.0000
  C   C64       1.0  0.08056  0.28257  0.55105  1.0000
  H   H77       1.0  0.19186  0.37427  0.43259  1.0000
  C   C65       1.0  0.25006  0.40946  0.44707  1.0000
  C   C66       1.0  0.26843  0.47680  0.45675  1.0000
  C   C67       1.0  0.34855  0.17737  0.54046  1.0000
  C   C68       1.0  0.29690  0.03817  0.34008  1.0000
  C   C69       1.0  0.17989  0.24405  0.58156  1.0000
  C   C70       1.0  0.35905  0.12295  0.51387  1.0000
  C   C71       1.0  0.30404  0.19001  0.56479  1.0000
  C   C72       1.0  0.03658  0.30951  0.33368  1.0000
  C   C73       1.0  0.23160  0.46987  0.44890  1.0000
  H   H78       1.0  0.46066  0.44106  0.47677  1.0000
  C   C74       1.0  0.27405  0.25511  0.62277  1.0000
  C   C75       1.0  0.28047  0.28488  0.60671  1.0000
  C   C76       1.0  0.26585  0.31030  0.61150  1.0000
  C   C77       1.0  0.24543  0.30608  0.63217  1.0000
  H   H79       1.0  0.28525  0.23529  0.61939  1.0000
  H   H80       1.0  0.27094  0.33370  0.59955  1.0000
  S   S29       1.0  0.43667  0.03133  0.44221  1.0000
  H   H81       1.0  0.23469  0.32620  0.63582  1.0000
  H   H82       1.0  0.15250  0.21500  0.58506  1.0000
  C   C78       1.0  0.28707  0.21089  0.39821  1.0000
  C   C79       1.0  0.38527  0.18858  0.52945  1.0000
  H   H83       1.0  0.06848  0.32594  0.33574  1.0000
  H   H84       1.0  0.34202  0.45448  0.43336  1.0000
  C   C80       1.0  0.45665  0.48904  0.49169  1.0000
  N   N4        1.0  0.34420  0.20638  0.55441  1.0000
  H   H85       1.0  0.20106  0.22587  0.54392  1.0000
  H   H86       1.0  0.14803  0.20474  0.54193  1.0000
  C   C81       1.0  0.10522  0.28723  0.53273  1.0000
  S   S30       1.0  0.03459  0.34048  0.37529  1.0000
  H   H87       1.0  0.21699  0.32156  0.56831  1.0000
  H   H88       1.0  0.26826  0.20902  0.36377  1.0000
  C   C82       1.0  0.21364  0.40313  0.43899  1.0000
  H   H89       1.0  0.22085  0.03157  0.40520  1.0000
  H   H90       1.0  0.31912  0.40615  0.44681  1.0000
  H   H91       1.0  0.21786  0.31228  0.53862  1.0000
  C   C83       1.0  0.11816  0.26248  0.57497  1.0000
  H   H92       1.0  0.42742  0.00195  0.48974  1.0000
  H   H93       1.0  0.28948  0.05712  0.38924  1.0000
  H   H94       1.0  0.21174  0.07228  0.36435  1.0000
  C   C84       1.0  0.35231  0.32761  0.65059  1.0000
  C   C85       1.0  0.22949  0.06329  0.40738  1.0000
  H   H95       1.0  0.30869  0.09746  0.40848  1.0000
  H   H96       1.0  0.24234  0.07111  0.42467  1.0000
  H   H97       1.0  0.20549  0.23885  0.58269  1.0000
  C   C86       1.0  0.29493  0.08777  0.39150  1.0000
  H   H98       1.0  0.23216  0.04037  0.36595  1.0000
  H   H99       1.0  0.20197  0.06523  0.40728  1.0000
  H   H100      1.0  0.26067  0.08788  0.35274  1.0000
  N   N5        1.0  0.25778  0.08919  0.38939  1.0000
  C   C87       1.0  0.23980  0.07195  0.36714  1.0000
  H   H101      1.0  0.31735  0.10725  0.37851  1.0000
  C   C88       1.0  0.25369  0.25092  0.64342  1.0000
  H   H102      1.0  0.05664  0.28889  0.54889  1.0000
  C   C89       1.0  0.27874  0.44659  0.45612  1.0000
  H   H103      1.0  0.49297  0.11794  0.45790  1.0000
  C   C90       1.0  0.26698  0.13071  0.39211  1.0000
  C   C91       1.0  0.14385  0.26689  0.55656  1.0000
  C   C92       1.0  0.28252  0.15052  0.41287  1.0000
  C   C93       1.0  0.26218  0.15302  0.37437  1.0000
  H   H104      1.0  0.41021  0.21849  0.53050  1.0000
  N   N6        1.0  0.17824  0.26075  0.55903  1.0000
  H   H105      1.0  0.38221  0.25709  0.53268  1.0000
  H   H106      1.0  0.33073  0.23202  0.52581  1.0000
  H   H107      1.0  0.25121  0.14082  0.35782  1.0000
  C   C94       1.0  0.00252  0.21009  0.34690  1.0000
  C   C95       1.0  0.35179  0.24118  0.54019  1.0000
  H   H108      1.0  0.36994  0.24107  0.58442  1.0000
  C   C96       1.0  0.29238  0.18995  0.41584  1.0000
  H   H109      1.0  0.40457  0.23660  0.56672  1.0000
  H   H110      1.0  0.34843  0.26346  0.55008  1.0000
  H   H111      1.0  0.28075  0.18060  0.55156  1.0000
  C   C97       1.0  0.33633  0.43857  0.44999  1.0000
  Fe  Fe17      1.0  0.01430  0.34432  0.41160  1.0000
  H   H112      1.0  0.06776  0.26675  0.58636  1.0000
  S   S31       1.0  0.33342  0.01137  0.47236  1.0000
  H   H113      1.0  0.29797  0.08121  0.52146  1.0000
  C   C98       1.0  0.21541  0.29944  0.55594  1.0000
  H   H114      1.0  0.15480  0.28392  0.52075  1.0000
  H   H115      1.0  0.17522  0.42743  0.43471  1.0000
  H   H116      1.0  0.18411  0.26474  0.59556  1.0000
  H   H117      1.0  0.24217  0.29653  0.55842  1.0000
  C   C99       1.0  0.20422  0.43309  0.44013  1.0000
  C   C100      1.0  0.37340  0.22024  0.57311  1.0000
  H   H118      1.0  0.03996  0.48807  0.47532  1.0000
  H   H119      1.0  0.29492  0.24155  0.40056  1.0000
  H   H120      1.0  0.30184  0.21258  0.57516  1.0000
  H   H121      1.0  0.18159  0.24581  0.52399  1.0000
  H   H122      1.0  0.41831  0.17113  0.50772  1.0000
  S   S32       1.0  0.02155  0.30689  0.43844  1.0000
  C   C101      1.0  0.30560  0.42691  0.48699  1.0000
  C   C102      1.0  0.13631  0.27946  0.53539  1.0000
  C   C103      1.0  0.32255  0.11102  0.52426  1.0000
  H   H123      1.0  0.28602  0.39479  0.48346  1.0000
  C   C104      1.0  0.23942  0.27655  0.64835  1.0000
  C   C105      1.0  0.08695  0.27014  0.57211  1.0000
  C   C106      1.0  0.47435  0.47297  0.47801  1.0000
  Fe  Fe18      1.0  0.37129  0.01715  0.44187  1.0000
  N   N7        1.0  0.31588  0.45164  0.46607  1.0000
  C   C107      1.0  0.01206  0.31100  0.35081  1.0000
  H   H124      1.0  0.25473  0.38437  0.44702  1.0000
  C   C108      1.0  0.46645  0.01992  0.46067  1.0000
  H   H125      1.0  0.03450  0.39643  0.33584  1.0000
  H   H126      1.0  0.35943  0.32378  0.63334  1.0000
  C   C109      1.0  0.34491  0.49329  0.47223  1.0000
  C   C110      1.0  0.48174  0.00174  0.49763  1.0000
  H   H127      1.0  0.37315  0.49620  0.47878  1.0000
  H   H128      1.0  0.03270  0.22845  0.34061  1.0000
  H   H129      1.0  0.28976  0.43540  0.49944  1.0000
  H   H130      1.0  0.01515  0.24040  0.37816  1.0000
  C   C111      1.0  0.45561  0.00705  0.48323  1.0000
  C   C112      1.0  0.29398  0.05366  0.31878  1.0000
  H   H131      1.0  0.36549  0.44424  0.45672  1.0000
  H   H132      1.0  0.00134  0.22868  0.41460  1.0000
  C   C113      1.0  0.03066  0.38934  0.31792  1.0000
  H   H133      1.0  0.22377  0.49286  0.45000  1.0000
  C   C114      1.0  0.26735  0.00018  0.34724  1.0000
  H   H134      1.0  0.99866  0.45413  0.53067  1.0000
  Fe  Fe19      1.0  0.19282  0.14949  0.71802  1.0000
  S   S33       1.0  0.17869  0.15405  0.75432  1.0000
  S   S34       1.0  0.19278  0.09804  0.70074  1.0000
  Fe  Fe20      1.0  0.20010  0.22833  0.70382  1.0000
  S   S35       1.0  0.18423  0.23869  0.73931  1.0000
  S   S36       1.0  0.21480  0.27351  0.67455  1.0000
  Fe  Fe21      1.0  0.22590  0.21865  0.75205  1.0000
  S   S37       1.0  0.27537  0.25189  0.77826  1.0000
  Fe  Fe22      1.0  0.13775  0.17343  0.73955  1.0000
  S   S38       1.0  0.07705  0.13833  0.75637  1.0000
  S   S39       1.0  0.24447  0.21220  0.71655  1.0000
  S   S40       1.0  0.14938  0.16514  0.70329  1.0000
  Fe  Fe23      1.0  0.31458  0.33130  0.91173  1.0000
  S   S41       1.0  0.29012  0.28962  0.94192  1.0000
  S   S42       1.0  0.27304  0.30477  0.88101  1.0000
  Fe  Fe24      1.0  0.38152  0.39734  0.94146  1.0000
  S   S43       1.0  0.43710  0.46051  0.93968  1.0000
  Fe  Fe25      1.0  0.35311  0.30939  0.95064  1.0000
  H   H135      1.0  0.26780  0.34187  0.70825  1.0000
  Fe  Fe26      1.0  0.29821  0.34243  0.96142  1.0000
  H   H136      1.0  0.26768  0.32822  0.73753  1.0000
  S   S44       1.0  0.37796  0.34837  0.91934  1.0000
  S   S45       1.0  0.31960  0.38357  0.93105  1.0000
  H   H137      1.0  0.26104  0.29439  0.71537  1.0000
  C   C115      1.0  0.35545  0.30544  0.66834  1.0000
  H   H138      1.0  0.01648  0.46328  0.96387  1.0000
  H   H139      1.0  0.14580  0.28369  0.88109  1.0000
  C   C116      1.0  0.15961  0.27370  0.89410  1.0000
  C   C117      1.0  0.28959  0.15489  0.97188  1.0000
  S   S46       1.0  0.32382  0.00514  0.97776  1.0000
  H   H140      1.0  0.18942  0.35192  0.89295  1.0000
  C   C118      1.0  0.19137  0.39024  0.96582  1.0000
  H   H141      1.0  0.24493  0.38992  0.95622  1.0000
  C   C119      1.0  0.21945  0.37761  0.96751  1.0000
  C   C120      1.0  0.00855  0.02788  0.71429  1.0000
  H   H142      1.0  0.33232  0.40194  0.71393  1.0000
  H   H143      1.0  0.31561  0.37684  0.67921  1.0000
  H   H144      1.0  0.40451  0.21472  0.97116  1.0000
  C   C121      1.0  0.20195  0.34111  0.90626  1.0000
  H   H145      1.0  0.19523  0.41198  0.95297  1.0000
  C   C122      1.0  0.27485  0.29061  0.85243  1.0000
  C   C123      1.0  0.23934  0.27163  0.83994  1.0000
  C   C124      1.0  0.23890  0.25979  0.81730  1.0000
  C   C125      1.0  0.27410  0.26681  0.80672  1.0000
  C   C126      1.0  0.30965  0.28589  0.81918  1.0000
  C   C127      1.0  0.31008  0.29763  0.84186  1.0000
  H   H146      1.0  0.21185  0.26599  0.84778  1.0000
  H   H147      1.0  0.21129  0.24514  0.80805  1.0000
  H   H148      1.0  0.33708  0.29139  0.81127  1.0000
  H   H149      1.0  0.33772  0.31238  0.85104  1.0000
  H   H150      1.0  0.18474  0.27302  0.88545  1.0000
  C   C128      1.0  0.03327  0.13508  0.74568  1.0000
  C   C129      1.0  0.03423  0.16462  0.73151  1.0000
  H   H151      1.0  0.22944  0.34351  0.89882  1.0000
  H   H152      1.0  0.06246  0.18996  0.72648  1.0000
  C   C130      1.0  0.30967  0.19613  0.96739  1.0000
  C   C131      1.0  0.16686  0.04980  0.71282  1.0000
  C   C132      1.0  0.31077  0.13511  0.97633  1.0000
  H   H153      1.0  0.16785  0.06870  0.74710  1.0000
  C   C133      1.0  0.47264  0.02920  0.98041  1.0000
  N   N8        1.0  0.30648  0.21014  0.89246  1.0000
  C   C134      1.0  0.31922  0.18316  0.90237  1.0000
  C   C135      1.0  0.33887  0.25179  0.89531  1.0000
  C   C136      1.0  0.27178  0.20476  0.90593  1.0000
  C   C137      1.0  0.29798  0.20191  0.86799  1.0000
  C   C138      1.0  0.26042  0.19098  0.85835  1.0000
  C   C139      1.0  0.32798  0.20504  0.85293  1.0000
  H   H154      1.0  0.34751  0.18803  0.89484  1.0000
  H   H155      1.0  0.32462  0.18768  0.92095  1.0000
  H   H156      1.0  0.29622  0.15144  0.89991  1.0000
  H   H157      1.0  0.36715  0.25791  0.88715  1.0000
  H   H158      1.0  0.34571  0.25914  0.91357  1.0000
  H   H159      1.0  0.33058  0.27300  0.88783  1.0000
  H   H160      1.0  0.24642  0.17375  0.90500  1.0000
  H   H161      1.0  0.27913  0.21082  0.92422  1.0000
  H   H162      1.0  0.26192  0.22576  0.90014  1.0000
  H   H163      1.0  0.23602  0.18884  0.86820  1.0000
  H   H164      1.0  0.35738  0.21371  0.85895  1.0000
  N   N9        1.0  0.32103  0.34187  0.71885  1.0000
  C   C140      1.0  0.33113  0.32112  0.73664  1.0000
  C   C141      1.0  0.34204  0.38469  0.72455  1.0000
  C   C142      1.0  0.27764  0.32617  0.72012  1.0000
  C   C143      1.0  0.33186  0.33649  0.69558  1.0000
  C   C144      1.0  0.47460  0.49177  0.95951  1.0000
  C   C145      1.0  0.34538  0.30961  0.69054  1.0000
  H   H165      1.0  0.17627  0.25545  0.93494  1.0000
  H   H166      1.0  0.36333  0.33093  0.73638  1.0000
  H   H167      1.0  0.32381  0.32666  0.75402  1.0000
  H   H168      1.0  0.31368  0.28827  0.73477  1.0000
  H   H169      1.0  0.37474  0.39822  0.72226  1.0000
  H   H170      1.0  0.33627  0.38935  0.74246  1.0000
  C   C146      1.0  0.32080  0.19758  0.82975  1.0000
  H   H171      1.0  0.27834  0.18186  0.80283  1.0000
  C   C147      1.0  0.25353  0.18331  0.83517  1.0000
  H   H172      1.0  0.34426  0.20072  0.81848  1.0000
  H   H173      1.0  0.16177  0.02166  0.68076  1.0000
  C   C148      1.0  0.37236  0.19812  0.97147  1.0000
  C   C149      1.0  0.28363  0.18670  0.82091  1.0000
  H   H174      1.0  0.22501  0.17588  0.82800  1.0000
  H   H175      1.0  0.12214  0.32221  0.89648  1.0000
  H   H176      1.0  0.03711  0.04055  0.75619  1.0000
  C   C150      1.0  0.19543  0.28663  0.92886  1.0000
  C   C151      1.0  0.02783  0.06726  0.70531  1.0000
  S   S47       1.0  0.35990  0.35891  0.97301  1.0000
  H   H177      1.0  0.34783  0.29096  0.70336  1.0000
  C   C152      1.0  0.15889  0.04357  0.73614  1.0000
  C   C153      1.0  0.15552  0.01700  0.69879  1.0000
  H   H178      1.0  0.21114  0.36216  0.92060  1.0000
  N   N10       1.0  0.17340  0.29996  0.91409  1.0000
  H   H179      1.0  0.13725  0.24268  0.89920  1.0000
  H   H180      1.0  0.05975  0.08615  0.70611  1.0000
  H   H181      1.0  0.20810  0.30610  0.94381  1.0000
  C   C154      1.0  0.12771  0.28532  0.94841  1.0000
  S   S48       1.0  0.37808  0.26934  0.95999  1.0000
  C   C155      1.0  0.09479  0.28443  0.95859  1.0000
  C   C156      1.0  0.32788  0.35767  0.67695  1.0000
  C   C157      1.0  0.01115  0.48613  0.97010  1.0000
  H   H182      1.0  0.06551  0.32119  0.91515  1.0000
  C   C158      1.0  0.13898  0.29886  0.92559  1.0000
  C   C159      1.0  0.11535  0.31144  0.91382  1.0000
  H   H183      1.0  0.47438  0.00566  0.92453  1.0000
  N   N11       1.0  0.03214  0.01152  0.72449  1.0000
  C   C160      1.0  0.35121  0.21784  0.96680  1.0000
  C   C161      1.0  0.08276  0.31081  0.92428  1.0000
  H   H184      1.0  0.36510  0.28436  0.66480  1.0000
  H   H185      1.0  0.24940  0.22809  0.65563  1.0000
  H   H186      1.0  0.14429  0.27612  0.95903  1.0000
  C   C162      1.0  0.05619  0.03692  0.74347  1.0000
  H   H187      1.0  0.07904  0.06731  0.73768  1.0000
  H   H188      1.0  0.22099  0.28775  0.91973  1.0000
  H   H189      1.0  0.29305  0.21109  0.96442  1.0000
  H   H190      1.0  0.99928  0.18509  0.71376  1.0000
  H   H191      1.0  0.08230  0.04138  0.70129  1.0000
  S   S49       1.0  0.12353  0.39142  0.97755  1.0000
  H   H192      1.0  0.04769  0.29755  0.95486  1.0000
  C   C163      1.0  0.35229  0.15704  0.97640  1.0000
  C   C164      1.0  0.47323  0.48154  0.98251  1.0000
  H   H193      1.0  0.07276  0.02439  0.75233  1.0000
  C   C165      1.0  0.07253  0.29736  0.94663  1.0000
  C   C166      1.0  0.14134  0.00488  0.74546  1.0000
  C   C167      1.0  0.05935  0.01098  0.70705  1.0000
  C   C168      1.0  0.33843  0.35357  0.65489  1.0000
  H   H194      1.0  0.25745  0.13818  0.97200  1.0000
  C   C169      1.0  0.00628  0.08342  0.69559  1.0000
  H   H195      1.0  0.10691  0.47576  0.96636  1.0000
  H   H196      1.0  0.08720  0.27485  0.97617  1.0000
  S   S50       1.0  0.01726  0.37273  0.97945  1.0000
  S   S51       1.0  0.28409  0.08294  0.98107  1.0000
  C   C170      1.0  0.15838  0.37499  0.98065  1.0000
  H   H197      1.0  0.02161  0.11392  0.68943  1.0000
  C   C171      1.0  0.21469  0.34933  0.98397  1.0000
  H   H198      1.0  0.36894  0.14219  0.97974  1.0000
  C   C172      1.0  0.99844  0.16183  0.72437  1.0000
  H   H199      1.0  0.13690  0.00040  0.76363  1.0000
  Fe  Fe27      1.0  0.28581  0.95837  0.00386  1.0000
  S   S52       1.0  0.33730  0.97473  0.02785  1.0000
  C   C173      1.0  0.02863  0.89100  0.21495  1.0000
  H   H200      1.0  0.99946  0.80185  0.28463  1.0000
  C   C174      1.0  0.46810  0.99285  0.98788  1.0000
  H   H201      1.0  0.09544  0.55396  0.01957  1.0000
  C   C175      1.0  0.16800  0.52316  0.99294  1.0000
  C   C176      1.0  0.23546  0.96466  0.12496  1.0000
  H   H202      1.0  0.03230  0.97020  0.23403  1.0000
  S   S53       1.0  0.18866  0.96414  0.23546  1.0000
  C   C177      1.0  0.17003  0.86978  0.99936  1.0000
  C   C178      1.0  0.02557  0.98068  0.21787  1.0000
  C   C179      1.0  0.24056  0.98956  0.14335  1.0000
  H   H203      1.0  0.00896  0.78841  0.01839  1.0000
  N   N12       1.0  0.12572  0.51106  0.99687  1.0000
  S   S54       1.0  0.20736  0.96941  0.16718  1.0000
  H   H204      1.0  0.13439  0.99682  0.14663  1.0000
  H   H205      1.0  0.44290  0.97324  0.99844  1.0000
  C   C180      1.0  0.02881  0.89510  0.23850  1.0000
  C   C181      1.0  0.12889  0.84213  0.99812  1.0000
  H   H206      1.0  0.05612  0.89975  0.20595  1.0000
  S   S55       1.0  0.07291  0.91272  0.25400  1.0000
  H   H207      1.0  0.17498  0.50066  0.99996  1.0000
  C   C182      1.0  0.48364  0.60857  0.98778  1.0000
  Fe  Fe28      1.0  0.12950  0.96120  0.23762  1.0000
  H   H208      1.0  0.18066  0.89573  0.00983  1.0000
  H   H209      1.0  0.18813  0.55211  0.00106  1.0000
  C   C183      1.0  0.00837  0.80266  0.24869  1.0000
  S   S56       1.0  0.24967  0.89567  0.98937  1.0000
  C   C184      1.0  0.46831  0.57872  0.00515  1.0000
  H   H210      1.0  0.21244  0.93371  0.12592  1.0000
  H   H211      1.0  0.25544  0.95962  0.09143  1.0000
  C   C185      1.0  0.09589  0.59076  0.99286  1.0000
  H   H212      1.0  0.04051  0.82040  0.24977  1.0000
  H   H213      1.0  0.10820  0.84721  0.00769  1.0000
  H   H214      1.0  0.13580  0.52969  0.03178  1.0000
  C   C186      1.0  0.25978  0.97932  0.10530  1.0000
  H   H215      1.0  0.48045  0.58386  0.02204  1.0000
  S   S57       1.0  0.13364  0.98346  0.20213  1.0000
  H   H216      1.0  0.01528  0.95579  0.20576  1.0000
  C   C187      1.0  0.43723  0.54027  0.00087  1.0000
  C   C188      1.0  0.10294  0.56152  0.00186  1.0000
  H   H217      1.0  0.33131  0.92495  0.98804  1.0000
  H   H218      1.0  0.08353  0.60443  0.00353  1.0000
  C   C189      1.0  0.11738  0.50274  0.02157  1.0000
  H   H219      1.0  0.19937  0.98715  0.08559  1.0000
  H   H220      1.0  0.00860  0.80112  0.21233  1.0000
  H   H221      1.0  0.42669  0.51763  0.01416  1.0000
  C   C190      1.0  0.19728  0.86323  0.98747  1.0000
  H   H222      1.0  0.47812  0.67291  0.99665  1.0000
  Fe  Fe29      1.0  0.19526  0.99227  0.20050  1.0000
  H   H223      1.0  0.20715  0.97598  0.30055  1.0000
  H   H224      1.0  0.49245  0.95373  0.98782  1.0000
  S   S58       1.0  0.06230  0.77326  0.98457  1.0000
  C   C191      1.0  0.23216  0.99350  0.31146  1.0000
  H   H225      1.0  0.37568  0.92208  0.98983  1.0000
  C   C192      1.0  0.11790  0.54221  0.98802  1.0000
  S   S59       1.0  0.26654  0.99745  0.02088  1.0000
  C   C193      1.0  0.11439  0.80794  0.98474  1.0000
  H   H226      1.0  0.18143  0.99902  0.12316  1.0000
  C   C194      1.0  0.10733  0.75674  0.44107  1.0000
  H   H227      1.0  0.28787  0.50576  0.46363  1.0000
  C   C195      1.0  0.03190  0.53772  0.48365  1.0000
  H   H228      1.0  0.13909  0.86799  0.54812  1.0000
  H   H229      1.0  0.23973  0.87418  0.42364  1.0000
  N   N13       1.0  0.02227  0.57450  0.56088  1.0000
  Fe  Fe30      1.0  0.02097  0.73167  0.49866  1.0000
  S   S60       1.0  0.05889  0.79386  0.48330  1.0000
  S   S61       1.0  0.04011  0.69868  0.52199  1.0000
  Fe  Fe31      1.0  0.28478  0.95725  0.45517  1.0000
  S   S62       1.0  0.24757  0.89748  0.47347  1.0000
  S   S63       1.0  0.32364  0.96095  0.42582  1.0000
  H   H230      1.0  0.14970  0.85837  0.37623  1.0000
  C   C196      1.0  0.08209  0.82387  0.61784  1.0000
  H   H231      1.0  0.07646  0.86159  0.64207  1.0000
  S   S64       1.0  0.26833  0.97910  0.37423  1.0000
  C   C197      1.0  0.00995  0.50914  0.54566  1.0000
  H   H232      1.0  0.10943  0.82903  0.40807  1.0000
  H   H233      1.0  0.07652  0.78660  0.53015  1.0000
  H   H234      1.0  0.03576  0.81474  0.52504  1.0000
  C   C198      1.0  0.20897  0.84350  0.38280  1.0000
  C   C199      1.0  0.11142  0.82226  0.48113  1.0000
  C   C200      1.0  0.12910  0.86040  0.47111  1.0000
  C   C201      1.0  0.17070  0.88407  0.46895  1.0000
  C   C202      1.0  0.19508  0.86964  0.47661  1.0000
  C   C203      1.0  0.17740  0.83173  0.48696  1.0000
  C   C204      1.0  0.13577  0.80817  0.48930  1.0000
  H   H235      1.0  0.11047  0.87165  0.46491  1.0000
  H   H236      1.0  0.18388  0.91344  0.46134  1.0000
  H   H237      1.0  0.19603  0.82037  0.49299  1.0000
  H   H238      1.0  0.12259  0.77888  0.49703  1.0000
  H   H239      1.0  0.07076  0.90429  0.61279  1.0000
  H   H240      1.0  0.33345  0.50398  0.48614  1.0000
  H   H241      1.0  0.06076  0.55446  0.49140  1.0000
  H   H242      1.0  0.07932  0.57843  0.55548  1.0000
  H   H243      1.0  0.06394  0.77238  0.43135  1.0000
  H   H244      1.0  0.07157  0.89052  0.57248  1.0000
  H   H245      1.0  0.15700  0.74951  0.44921  1.0000
  H   H246      1.0  0.08339  0.78859  0.59135  1.0000
  C   C205      1.0  0.00192  0.74230  0.64325  1.0000
  C   C206      1.0  0.22332  0.88667  0.41463  1.0000
  C   C207      1.0  0.07795  0.85588  0.62422  1.0000
  H   H247      1.0  0.20464  0.80658  0.42639  1.0000
  H   H248      1.0  0.47306  0.99238  0.51509  1.0000
  H   H249      1.0  0.35292  0.51372  0.45728  1.0000
  N   N14       1.0  0.19113  0.85733  0.40012  1.0000
  H   H250      1.0  0.22991  0.86833  0.37132  1.0000
  H   H251      1.0  0.18560  0.82002  0.37212  1.0000
  H   H252      1.0  0.03682  0.85100  0.54345  1.0000
  H   H253      1.0  0.22653  0.83116  0.39055  1.0000
  H   H254      1.0  0.24574  0.91270  0.40453  1.0000
  C   C208      1.0  0.16199  0.82321  0.41424  1.0000
  S   S65       1.0  0.02307  0.60157  0.49542  1.0000
  H   H255      1.0  0.16168  0.89167  0.40001  1.0000
  H   H256      1.0  0.08657  0.73190  0.45169  1.0000
  S   S66       1.0  0.26126  0.99125  0.43662  1.0000
  H   H257      1.0  0.10602  0.79513  0.55473  1.0000
  H   H258      1.0  0.10982  0.89078  0.54212  1.0000
  C   C209      1.0  0.09459  0.77959  0.42947  1.0000
  H   H259      1.0  0.19628  0.90363  0.37731  1.0000
  H   H260      1.0  0.08225  0.62480  0.56053  1.0000
  C   C210      1.0  0.17364  0.87844  0.38793  1.0000
  C   C211      1.0  0.12133  0.81239  0.41624  1.0000
  H   H261      1.0  0.21199  0.94860  0.33794  1.0000
  C   C212      1.0  0.17403  0.79954  0.42655  1.0000
  H   H262      1.0  0.21139  0.89804  0.42783  1.0000
  N   N15       1.0  0.07619  0.82917  0.55312  1.0000
  C   C213      1.0  0.07784  0.79260  0.54864  1.0000
  C   C214      1.0  0.03875  0.82356  0.54318  1.0000
  C   C215      1.0  0.11033  0.86262  0.54105  1.0000
  C   C216      1.0  0.07759  0.83820  0.57756  1.0000
  C   C217      1.0  0.08168  0.81481  0.59491  1.0000
  C   C218      1.0  0.07454  0.87127  0.58467  1.0000
  C   C219      1.0  0.14700  0.76677  0.43967  1.0000
  C   C220      1.0  0.07439  0.87967  0.60767  1.0000
  H   H263      1.0  0.08391  0.80492  0.63083  1.0000
  H   H264      1.0  0.05225  0.76597  0.55675  1.0000
  C   C221      1.0  0.06398  0.59547  0.55237  1.0000
  H   H265      1.0  0.01241  0.79988  0.55253  1.0000
  C   C222      1.0  0.47529  0.53079  0.49289  1.0000
  H   H266      1.0  0.46214  0.54379  0.50340  1.0000
  H   H267      1.0  0.11042  0.85653  0.52262  1.0000
  Fe  Fe32      1.0  0.30262  0.99862  0.40792  1.0000
  H   H268      1.0  0.03903  0.59036  0.59571  1.0000
  H   H269      1.0  0.03667  0.51321  0.55358  1.0000
  H   H270      1.0  0.03489  0.54424  0.58769  1.0000
  C   C223      1.0  0.00430  0.71853  0.62603  1.0000
  H   H271      1.0  0.06508  0.60109  0.53371  1.0000
  C   C224      1.0  0.02181  0.56358  0.58511  1.0000
  C   C225      1.0  0.00668  0.55394  0.48294  1.0000
  Fe  Fe33      1.0  0.99821  0.64322  0.50273  1.0000
  H   H272      1.0  0.02691  0.63077  0.56925  1.0000
  H   H273      1.0  0.01434  0.69797  0.63028  1.0000
  C   C226      1.0  0.23506  0.97802  0.33274  1.0000
  C   C227      1.0  0.00781  0.60321  0.55959  1.0000
  H   H274      1.0  0.00794  0.61280  0.54173  1.0000
  S   S67       1.0  0.99840  0.69095  0.58230  1.0000
  C   C228      1.0  0.99802  0.53795  0.54768  1.0000
  C   C229      1.0  0.02017  0.49993  0.47451  1.0000
  S   S68       1.0  0.04405  0.81421  0.71988  1.0000
  H   H275      1.0  0.16721  0.88418  0.78929  1.0000
  H   H276      1.0  0.10895  0.79472  0.75582  1.0000
  Fe  Fe34      1.0  0.05500  0.87398  0.73116  1.0000
  S   S69       1.0  0.11304  0.92464  0.74368  1.0000
  H   H277      1.0  0.17810  0.84447  0.78916  1.0000
  Fe  Fe35      1.0  0.02781  0.72091  0.96072  1.0000
  S   S70       1.0  0.04499  0.69810  0.93030  1.0000
  C   C230      1.0  0.18277  0.82908  0.97405  1.0000
  H   H278      1.0  0.09347  0.80177  0.87821  1.0000
  H   H279      1.0  0.29477  0.86378  0.96684  1.0000
  N   N16       1.0  0.35128  0.91391  0.95630  1.0000
  C   C231      1.0  0.42088  0.53021  0.97930  1.0000
  S   S71       1.0  0.01079  0.84862  0.75960  1.0000
  H   H280      1.0  0.04267  0.99420  0.69186  1.0000
  C   C232      1.0  0.99870  0.77178  0.81535  1.0000
  H   H281      1.0  0.32612  0.91848  0.92468  1.0000
  C   C233      1.0  0.00101  0.77002  0.83919  1.0000
  C   C234      1.0  0.01290  0.51545  0.95493  1.0000
  H   H282      1.0  0.12966  0.87983  0.82040  1.0000
  H   H283      1.0  0.16345  0.85938  0.76354  1.0000
  H   H284      1.0  0.38448  0.86547  0.94791  1.0000
  H   H285      1.0  0.44977  0.88605  0.93217  1.0000
  C   C235      1.0  0.09080  0.77473  0.84621  1.0000
  H   H286      1.0  0.05890  0.81991  0.78266  1.0000
  C   C236      1.0  0.13041  0.97214  0.73143  1.0000
  C   C237      1.0  0.46564  0.94680  0.92684  1.0000
  H   H287      1.0  0.31787  0.85458  0.94320  1.0000
  H   H288      1.0  0.12157  0.59036  0.93795  1.0000
  C   C238      1.0  0.10289  0.60125  0.96994  1.0000
  S   S72       1.0  0.01218  0.87643  0.70683  1.0000
  C   C239      1.0  0.11722  0.58273  0.95589  1.0000
  H   H289      1.0  0.08739  0.75368  0.81299  1.0000
  H   H290      1.0  0.12905  0.95326  0.69711  1.0000
  C   C240      1.0  0.38967  0.92423  0.94541  1.0000
  C   C241      1.0  0.32991  0.92921  0.94241  1.0000
  S   S73       1.0  0.99920  0.73570  0.88062  1.0000
  H   H291      1.0  0.09412  0.84641  0.76032  1.0000
  H   H292      1.0  0.07581  0.99661  0.71369  1.0000
  H   H293      1.0  0.42316  0.55019  0.94500  1.0000
  H   H294      1.0  0.34533  0.96216  0.94184  1.0000
  H   H295      1.0  0.37734  0.96531  0.97774  1.0000
  H   H296      1.0  0.41021  0.98757  0.94127  1.0000
  H   H297      1.0  0.07298  0.76573  0.77703  1.0000
  H   H298      1.0  0.11923  0.86889  0.86138  1.0000
  H   H299      1.0  0.00302  0.79869  0.80724  1.0000
  C   C242      1.0  0.45386  0.97488  0.92911  1.0000
  H   H300      1.0  0.13544  0.53992  0.95309  1.0000
  H   H301      1.0  0.20348  0.82357  0.96483  1.0000
  C   C243      1.0  0.32404  0.87046  0.95958  1.0000
  C   C244      1.0  0.12479  0.55375  0.96473  1.0000
  H   H302      1.0  0.09850  0.87006  0.78651  1.0000
  C   C245      1.0  0.09907  0.80661  0.86007  1.0000
  C   C246      1.0  0.41673  0.96404  0.93852  1.0000
  H   H303      1.0  0.33604  0.85740  0.97190  1.0000
  C   C247      1.0  0.14161  0.80176  0.97254  1.0000
  H   H304      1.0  0.00720  0.79571  0.84906  1.0000
  H   H305      1.0  0.12352  0.77548  0.77931  1.0000
  C   C248      1.0  0.40249  0.89618  0.94270  1.0000
  H   H306      1.0  0.01020  0.73996  0.66046  1.0000
  N   N17       1.0  0.11581  0.82508  0.78746  1.0000
  C   C249      1.0  0.15799  0.85447  0.78220  1.0000
  C   C250      1.0  0.10493  0.78858  0.77446  1.0000
  C   C251      1.0  0.09078  0.84105  0.77899  1.0000
  C   C252      1.0  0.11018  0.81814  0.81232  1.0000
  C   C253      1.0  0.11892  0.85012  0.82702  1.0000
  C   C254      1.0  0.09589  0.78008  0.82266  1.0000
  C   C255      1.0  0.35926  0.93238  0.97892  1.0000
  H   H307      1.0  0.13099  0.77558  0.96226  1.0000
  C   C256      1.0  0.00597  0.54572  0.96241  1.0000
  C   C257      1.0  0.13686  0.97824  0.70801  1.0000
  C   C258      1.0  0.11324  0.84427  0.85051  1.0000
  H   H308      1.0  0.07863  0.74529  0.85377  1.0000
  H   H309      1.0  0.17583  0.52621  0.97460  1.0000
  C   C259      1.0  0.43526  0.55865  0.96191  1.0000
  C   C260      1.0  0.44002  0.90755  0.93358  1.0000
  H   H310      1.0  0.47638  0.61814  0.95191  1.0000
  H   H311      1.0  0.09585  0.62283  0.96290  1.0000
  Fe  Fe36      1.0  0.99945  0.63621  0.94351  1.0000
  H   H312      1.0  0.29978  0.91962  0.94950  1.0000
  S   S74       1.0  0.00982  0.58260  0.94235  1.0000
  H   H313      1.0  0.02602  0.95891  0.74131  1.0000
  H   H314      1.0  0.49522  0.95578  0.92052  1.0000
  C   C261      1.0  0.46597  0.59734  0.96604  1.0000
  H   H315      1.0  0.01979  0.51478  0.93721  1.0000
  C   C262      1.0  0.00750  0.97030  0.73361  1.0000
  H   H316      1.0  0.49647  0.67835  0.96804  1.0000
  H   H317      1.0  0.39793  0.49991  0.97584  1.0000
  C   C263      1.0  0.49665  0.98203  0.98200  1.0000
  H   H318      1.0  0.91059  0.41969  0.99128  1.0000
  C   C264      1.0  0.85988  0.22092  0.99107  1.0000
  H   H319      1.0  0.98154  0.17867  0.31560  1.0000
  C   C265      1.0  0.87476  0.01609  0.24942  1.0000
  H   H320      1.0  0.95229  0.21424  0.16315  1.0000
  H   H321      1.0  0.98050  0.18245  0.13788  1.0000
  H   H322      1.0  0.98308  0.30195  0.22816  1.0000
  H   H323      1.0  0.92366  0.26834  0.10096  1.0000
  S   S75       1.0  0.96191  0.33455  0.02546  1.0000
  Fe  Fe37      1.0  0.97392  0.31163  0.99327  1.0000
  S   S76       1.0  0.95062  0.20967  0.22288  1.0000
  H   H324      1.0  0.80421  0.18341  0.00862  1.0000
  H   H325      1.0  0.66877  0.13288  0.03323  1.0000
  C   C266      1.0  0.55341  0.11622  0.01403  1.0000
  S   S77       1.0  0.92215  0.10223  0.20043  1.0000
  C   C267      1.0  0.89463  0.05352  0.23851  1.0000
  C   C268      1.0  0.89994  0.05612  0.21496  1.0000
  H   H326      1.0  0.51104  0.02241  0.03542  1.0000
  H   H327      1.0  0.90494  0.08029  0.24823  1.0000
  C   C269      1.0  0.91250  0.18277  0.07999  1.0000
  C   C270      1.0  0.67181  0.13449  0.01441  1.0000
  Fe  Fe38      1.0  0.96286  0.15962  0.21843  1.0000
  C   C271      1.0  0.99554  0.37662  0.23533  1.0000
  C   C272      1.0  0.91281  0.16396  0.10030  1.0000
  C   C273      1.0  0.97904  0.26514  0.31107  1.0000
  H   H328      1.0  0.54611  0.13918  0.01059  1.0000
  H   H329      1.0  0.94804  0.13301  0.12822  1.0000
  C   C274      1.0  0.88083  0.12367  0.14558  1.0000
  H   H330      1.0  0.85475  0.12810  0.14589  1.0000
  C   C275      1.0  0.92364  0.18554  0.16353  1.0000
  H   H331      1.0  0.92418  0.16935  0.17908  1.0000
  H   H332      1.0  0.95612  0.30295  0.25240  1.0000
  C   C276      1.0  0.95206  0.15454  0.14157  1.0000
  H   H333      1.0  0.67233  0.16183  0.00837  1.0000
  C   C277      1.0  0.99465  0.07405  0.25599  1.0000
  H   H334      1.0  0.89888  0.19159  0.16595  1.0000
  C   C278      1.0  0.99273  0.36974  0.30872  1.0000
  H   H335      1.0  0.92471  0.23727  0.13651  1.0000
  H   H336      1.0  0.64346  0.05923  0.02894  1.0000
  S   S78       1.0  0.95645  0.23435  0.28709  1.0000
  C   C279      1.0  0.88605  0.02118  0.20246  1.0000
  C   C280      1.0  0.92026  0.22035  0.12132  1.0000
  H   H337      1.0  0.95581  0.14193  0.15783  1.0000
  H   H338      1.0  0.91035  0.16877  0.06385  1.0000
  H   H339      1.0  0.70173  0.13893  0.01010  1.0000
  C   C281      1.0  0.59042  0.12170  0.00754  1.0000
  H   H340      1.0  0.87003  0.01423  0.26760  1.0000
  H   H341      1.0  0.87355  0.24015  0.00537  1.0000
  N   N18       1.0  0.91842  0.16217  0.14278  1.0000
  H   H342      1.0  0.99109  0.36894  0.21698  1.0000
  C   C282      1.0  0.91706  0.18233  0.12160  1.0000
  H   H343      1.0  0.91735  0.23534  0.06451  1.0000
  C   C283      1.0  0.53368  0.05046  0.02808  1.0000
  C   C284      1.0  0.52517  0.08073  0.02436  1.0000
  H   H344      1.0  0.88034  0.10820  0.16173  1.0000
  C   C285      1.0  0.64601  0.06472  0.01028  1.0000
  H   H345      1.0  0.96214  0.01039  0.19937  1.0000
  C   C286      1.0  0.91955  0.23867  0.10091  1.0000
  C   C287      1.0  0.60022  0.09156  0.01120  1.0000
  C   C288      1.0  0.57046  0.05545  0.02150  1.0000
  H   H346      1.0  0.91041  0.13520  0.09916  1.0000
  H   H347      1.0  0.88990  0.02302  0.18422  1.0000
  H   H348      1.0  0.57439  0.03020  0.02418  1.0000
  H   H349      1.0  0.87627  0.10272  0.13176  1.0000
  C   C289      1.0  0.91607  0.22013  0.08030  1.0000
  H   H350      1.0  0.91119  0.48137  0.98508  1.0000
  N   N19       1.0  0.63951  0.09802  0.00394  1.0000
  H   H351      1.0  0.97510  0.08583  0.25878  1.0000
  H   H352      1.0  0.93971  0.38070  0.98909  1.0000
  H   H353      1.0  0.88628  0.35249  0.99274  1.0000
  C   C290      1.0  0.98650  0.31267  0.24593  1.0000
  H   H354      1.0  0.62456  0.03678  0.00159  1.0000
  H   H355      1.0  0.67626  0.07110  0.00513  1.0000
  H   H356      1.0  0.96587  0.36829  0.24247  1.0000
  H   H357      1.0  0.95741  0.34364  0.27962  1.0000
  C   C291      1.0  0.82050  0.18870  0.99286  1.0000
  C   C292      1.0  0.98273  0.04145  0.24192  1.0000
  H   H358      1.0  0.61103  0.14947  0.99922  1.0000
  C   C293      1.0  0.98749  0.35931  0.28584  1.0000
  S   S79       1.0  0.99043  0.16790  0.25279  1.0000
  C   C294      1.0  0.98732  0.00460  0.19879  1.0000
  H   H359      1.0  0.95378  0.02893  0.23429  1.0000
  Fe  Fe39      1.0  0.98401  0.22204  0.25589  1.0000
  Fe  Fe40      1.0  0.96381  0.29725  0.45332  1.0000
  S   S80       1.0  0.92208  0.23174  0.46309  1.0000
  S   S81       1.0  0.95495  0.33196  0.42530  1.0000
  H   H360      1.0  0.55113  0.15180  0.43217  1.0000
  C   C295      1.0  0.55441  0.14142  0.44873  1.0000
  S   S82       1.0  0.55147  0.00318  0.50931  1.0000
  C   C296      1.0  0.59089  0.14571  0.45517  1.0000
  C   C297      1.0  0.52930  0.02037  0.46703  1.0000
  C   C298      1.0  0.97116  0.20241  0.41699  1.0000
  Fe  Fe41      1.0  0.70251  0.06953  0.50401  1.0000
  S   S83       1.0  0.74231  0.13659  0.49890  1.0000
  S   S84       1.0  0.65992  0.05126  0.53367  1.0000
  C   C299      1.0  0.87168  0.20608  0.47236  1.0000
  C   C300      1.0  0.85126  0.22581  0.47797  1.0000
  C   C301      1.0  0.81159  0.20404  0.48588  1.0000
  C   C302      1.0  0.79177  0.16237  0.48805  1.0000
  C   C303      1.0  0.81202  0.14259  0.48214  1.0000
  C   C304      1.0  0.85182  0.16438  0.47451  1.0000
  H   H361      1.0  0.86616  0.25786  0.47645  1.0000
  H   H362      1.0  0.79626  0.21969  0.49041  1.0000
  H   H363      1.0  0.79715  0.11055  0.48363  1.0000
  H   H364      1.0  0.86735  0.14881  0.47027  1.0000
  C   C305      1.0  0.56144  0.11197  0.49087  1.0000
  C   C306      1.0  0.97372  0.18203  0.33278  1.0000
  H   H365      1.0  0.65852  0.19438  0.49390  1.0000
  C   C307      1.0  0.66586  0.17686  0.48210  1.0000
  H   H366      1.0  0.91393  0.48992  0.51525  1.0000
  H   H367      1.0  0.91204  0.13902  0.32893  1.0000
  H   H368      1.0  0.92267  0.25094  0.32587  1.0000
  C   C308      1.0  0.59550  0.13084  0.47639  1.0000
  C   C309      1.0  0.86596  0.18011  0.61208  1.0000
  C   C310      1.0  0.69303  0.02156  0.61243  1.0000
  H   H369      1.0  0.89829  0.14019  0.40775  1.0000
  H   H370      1.0  0.97362  0.17522  0.41634  1.0000
  H   H371      1.0  0.80410  0.09791  0.64344  1.0000
  C   C311      1.0  0.64440  0.11292  0.46564  1.0000
  C   C312      1.0  0.97091  0.29022  0.34759  1.0000
  H   H372      1.0  0.96233  0.20493  0.43461  1.0000
  H   H373      1.0  0.89292  0.14745  0.36677  1.0000
  H   H374      1.0  0.92279  0.24001  0.38701  1.0000
  C   C313      1.0  0.94402  0.23981  0.39953  1.0000
  H   H375      1.0  0.96721  0.36175  0.31958  1.0000
  Fe  Fe42      1.0  0.98967  0.38598  0.44774  1.0000
  C   C314      1.0  0.98286  0.47755  0.46444  1.0000
  H   H376      1.0  0.61524  0.15996  0.44316  1.0000
  H   H377      1.0  0.95173  0.29248  0.36000  1.0000
  C   C315      1.0  0.52165  0.12266  0.46327  1.0000
  N   N20       1.0  0.63408  0.13444  0.48240  1.0000
  C   C316      1.0  0.95456  0.26722  0.32798  1.0000
  C   C317      1.0  0.84940  0.15538  0.63110  1.0000
  C   C318      1.0  0.70809  0.00011  0.60153  1.0000
  H   H378      1.0  0.62091  0.08102  0.46515  1.0000
  H   H379      1.0  0.62686  0.13286  0.51882  1.0000
  C   C319      1.0  0.95350  0.46793  0.52207  1.0000
  S   S85       1.0  0.96553  0.42893  0.45311  1.0000
  C   C320      1.0  0.95774  0.49388  0.46364  1.0000
  C   C321      1.0  0.95269  0.19350  0.37707  1.0000
  H   H380      1.0  0.89601  0.17591  0.42563  1.0000
  H   H381      1.0  0.67077  0.19074  0.46494  1.0000
  H   H382      1.0  0.67468  0.03028  0.60311  1.0000
  N   N21       1.0  0.94238  0.20105  0.39997  1.0000
  H   H383      1.0  0.68941  0.04778  0.64383  1.0000
  H   H384      1.0  0.93630  0.24688  0.41633  1.0000
  H   H385      1.0  0.67295  0.11432  0.46986  1.0000
  C   C322      1.0  0.63401  0.11783  0.50524  1.0000
  H   H386      1.0  0.64799  0.12529  0.44816  1.0000
  H   H387      1.0  0.69503  0.18047  0.48733  1.0000
  N   N22       1.0  0.80046  0.11208  0.56480  1.0000
  C   C323      1.0  0.82114  0.14053  0.54571  1.0000
  C   C324      1.0  0.80230  0.07564  0.56027  1.0000
  C   C325      1.0  0.75831  0.10193  0.56456  1.0000
  C   C326      1.0  0.81768  0.12771  0.58734  1.0000
  C   C327      1.0  0.85045  0.16669  0.59045  1.0000
  C   C328      1.0  0.80152  0.10355  0.60712  1.0000
  S   S86       1.0  0.65560  0.02940  0.47936  1.0000
  H   H388      1.0  0.56136  0.09836  0.50697  1.0000
  H   H389      1.0  0.97413  0.26467  0.39489  1.0000
  H   H390      1.0  0.81911  0.16791  0.54728  1.0000
  H   H391      1.0  0.85291  0.14887  0.54438  1.0000
  H   H392      1.0  0.80742  0.12753  0.52910  1.0000
  H   H393      1.0  0.83329  0.08151  0.56145  1.0000
  H   H394      1.0  0.79095  0.06378  0.54311  1.0000
  H   H395      1.0  0.78374  0.05096  0.57238  1.0000
  H   H396      1.0  0.73946  0.07723  0.57656  1.0000
  H   H397      1.0  0.75535  0.12794  0.56914  1.0000
  H   H398      1.0  0.74496  0.09206  0.54750  1.0000
  H   H399      1.0  0.86462  0.18738  0.57649  1.0000
  H   H400      1.0  0.77658  0.07375  0.60611  1.0000
  H   H401      1.0  0.87831  0.17072  0.39753  1.0000
  C   C329      1.0  0.81715  0.11720  0.62862  1.0000
  H   H402      1.0  0.92886  0.47710  0.45589  1.0000
  C   C330      1.0  0.52528  0.10834  0.48435  1.0000
  C   C331      1.0  0.92392  0.16518  0.36218  1.0000
  H   H403      1.0  0.66354  0.12153  0.50939  1.0000
  C   C332      1.0  0.99217  0.21637  0.36854  1.0000
  H   H404      1.0  0.61235  0.08532  0.50628  1.0000
  C   C333      1.0  0.90198  0.17041  0.40791  1.0000
  S   S87       1.0  0.72085  0.02505  0.51259  1.0000
  C   C334      1.0  0.70142  0.03141  0.63557  1.0000
  H   H405      1.0  0.89101  0.20987  0.61414  1.0000
  H   H406      1.0  0.52314  0.48520  0.45538  1.0000
  C   C335      1.0  0.93449  0.15979  0.34035  1.0000
  H   H407      1.0  0.55719  0.02499  0.46043  1.0000
  H   H408      1.0  0.93752  0.44215  0.51140  1.0000
  C   C336      1.0  0.51000  0.49822  0.46588  1.0000
  C   C337      1.0  0.94028  0.49492  0.52425  1.0000
  C   C338      1.0  0.51893  0.00854  0.48977  1.0000
  H   H409      1.0  0.51239  0.03631  0.43539  1.0000
  C   C339      1.0  0.50350  0.02638  0.45274  1.0000
  Fe  Fe43      1.0  0.67551  0.00390  0.54092  1.0000
  C   C340      1.0  0.72516  0.02028  0.64809  1.0000
  Fe  Fe44      1.0  0.61351  0.00861  0.50924  1.0000
  H   H410      1.0  0.86151  0.16576  0.64783  1.0000
  S   S88       1.0  0.99450  0.34971  0.47649  1.0000
  H   H411      1.0  0.49928  0.09251  0.49524  1.0000
  C   C341      1.0  0.98815  0.47491  0.53284  1.0000
  H   H412      1.0  0.84309  0.32912  0.95867  1.0000
  S   S89       1.0  0.80193  0.06392  0.73115  1.0000
  H   H413      1.0  0.92407  0.15151  0.80339  1.0000
  H   H414      1.0  0.87895  0.20836  0.93649  1.0000
  Fe  Fe45      1.0  0.85994  0.06770  0.72221  1.0000
  S   S90       1.0  0.91726  0.12688  0.72209  1.0000
  Fe  Fe46      1.0  0.71670  0.07191  0.95331  1.0000
  C   C342      1.0  0.88123  0.22829  0.97073  1.0000
  S   S91       1.0  0.67095  0.07027  0.92923  1.0000
  H   H415      1.0  0.83137  0.15262  0.84984  1.0000
  C   C343      1.0  0.63600  0.02195  0.80074  1.0000
  H   H416      1.0  0.91301  0.00476  0.70213  1.0000
  C   C344      1.0  0.81546  0.09440  0.86205  1.0000
  C   C345      1.0  0.74705  0.00860  0.80927  1.0000
  S   S92       1.0  0.83692  0.03389  0.68993  1.0000
  H   H417      1.0  0.69852  0.04226  0.74288  1.0000
  N   N23       1.0  0.87885  0.08919  0.80309  1.0000
  H   H418      1.0  0.84779  0.02556  0.79895  1.0000
  C   C346      1.0  0.83382  0.12652  0.84695  1.0000
  H   H419      1.0  0.79847  0.09534  0.87643  1.0000
  H   H420      1.0  0.93722  0.37167  0.92605  1.0000
  H   H421      1.0  0.67285  0.10859  0.97289  1.0000
  C   C347      1.0  0.80216  0.16316  0.97448  1.0000
  H   H422      1.0  0.56047  0.06358  0.95086  1.0000
  S   S93       1.0  0.73699  0.04111  0.92936  1.0000
  C   C348      1.0  0.72141  0.00087  0.84834  1.0000
  C   C349      1.0  0.96164  0.12904  0.73082  1.0000
  C   C350      1.0  0.96080  0.09919  0.74461  1.0000
  C   C351      1.0  0.73298  0.05760  0.82547  1.0000
  H   H423      1.0  0.93276  0.07363  0.74944  1.0000
  C   C352      1.0  0.86052  0.09473  0.78237  1.0000
  H   H424      1.0  0.62037  0.07562  0.97042  1.0000
  H   H425      1.0  0.80255  0.03518  0.86983  1.0000
  S   S94       1.0  0.70179  0.05365  0.86829  1.0000
  C   C353      1.0  0.53519  0.04384  0.96137  1.0000
  H   H426      1.0  0.80997  0.15117  0.93991  1.0000
  H   H427      1.0  0.93840  0.12075  0.78904  1.0000
  C   C354      1.0  0.64478  0.01592  0.77862  1.0000
  C   C355      1.0  0.94063  0.36938  0.94461  1.0000
  C   C356      1.0  0.72027  0.03608  0.84617  1.0000
  H   H428      1.0  0.73215  0.08480  0.82354  1.0000
  Fe  Fe47      1.0  0.78830  0.00839  0.75059  1.0000
  H   H429      1.0  0.89553  0.05128  0.78554  1.0000
  Fe  Fe48      1.0  0.62751  0.01169  0.94590  1.0000
  H   H430      1.0  0.75585  0.06101  0.79145  1.0000
  C   C357      1.0  0.92098  0.12157  0.80387  1.0000
  C   C358      1.0  0.96501  0.06096  0.69453  1.0000
  H   H431      1.0  0.86926  0.30351  0.95160  1.0000
  C   C359      1.0  0.85456  0.12478  0.82800  1.0000
  C   C360      1.0  0.85716  0.09043  0.82347  1.0000
  C   C361      1.0  0.86279  0.20295  0.95232  1.0000
  C   C362      1.0  0.87862  0.05113  0.80083  1.0000
  C   C363      1.0  0.50659  0.05461  0.96721  1.0000
  Fe  Fe49      1.0  0.68859  0.03523  0.90611  1.0000
  C   C364      1.0  0.94516  0.02214  0.70300  1.0000
  S   S95       1.0  0.75203  0.12367  0.97749  1.0000
  H   H432      1.0  0.87564  0.09324  0.76665  1.0000
  H   H433      1.0  0.83713  0.03026  0.83700  1.0000
  H   H434      1.0  0.72393  0.01913  0.75525  1.0000
  C   C365      1.0  0.74646  0.04413  0.80718  1.0000
  Fe  Fe50      1.0  0.77753  0.02498  0.70029  1.0000
  C   C366      1.0  0.86940  0.33211  0.94939  1.0000
  C   C367      1.0  0.82363  0.17042  0.95420  1.0000
  H   H435      1.0  0.90068  0.40075  0.91830  1.0000
  H   H436      1.0  0.94397  0.34284  0.94721  1.0000
  H   H437      1.0  0.63203  0.04692  0.80443  1.0000
  H   H438      1.0  0.89271  0.04532  0.81565  1.0000
  C   C368      1.0  0.90693  0.47650  0.94885  1.0000
  S   S96       1.0  0.84828  0.01480  0.74353  1.0000
  C   C369      1.0  0.96641  0.00561  0.71270  1.0000
  H   H439      1.0  0.86229  0.12406  0.78163  1.0000
  H   H440      1.0  0.86810  0.15037  0.81672  1.0000
  H   H441      1.0  0.90315  0.46433  0.91328  1.0000
  C   C370      1.0  0.83793  0.05810  0.83922  1.0000
  C   C371      1.0  0.53048  0.00733  0.96869  1.0000
  H   H442      1.0  0.93556  0.11926  0.81959  1.0000
  H   H443      1.0  0.64017  0.12812  0.97264  1.0000
  H   H444      1.0  0.94827  0.07388  0.68752  1.0000
  H   H445      1.0  0.64720  0.03686  0.76565  1.0000
  S   S97       1.0  0.67265  0.01471  0.97098  1.0000
  S   S98       1.0  0.93016  0.26964  0.96699  1.0000
  N   N24       1.0  0.90671  0.36616  0.95790  1.0000
  H   H446      1.0  0.70955  0.01155  0.72585  1.0000
  H   H447      1.0  0.96899  0.39599  0.94964  1.0000
  H   H448      1.0  0.51073  0.08287  0.96135  1.0000
  C   C372      1.0  0.56018  0.47850  0.96578  1.0000
  C   C373      1.0  0.90548  0.40340  0.95525  1.0000
  H   H449      1.0  0.82856  0.07145  0.78144  1.0000
  C   C374      1.0  0.81776  0.06043  0.85827  1.0000
  C   C375      1.0  0.90393  0.45355  0.93022  1.0000
  C   C376      1.0  0.64333  0.10291  0.97892  1.0000
  C   C377      1.0  0.70004  0.01456  0.74322  1.0000
  C   C378      1.0  0.90283  0.41735  0.93330  1.0000
  H   H450      1.0  0.99555  0.07950  0.76315  1.0000
  H   H451      1.0  0.86502  0.33513  0.93101  1.0000
  S   S99       1.0  0.73490  0.03350  0.67727  1.0000
  H   H452      1.0  0.62809  0.00218  0.83564  1.0000
  H   H453      1.0  0.62812  0.00232  0.73314  1.0000
  C   C379      1.0  0.90780  0.42724  0.97394  1.0000
  C   C380      1.0  0.57817  0.48757  0.92611  1.0000
  C   C381      1.0  0.90826  0.46307  0.97065  1.0000
  H   H454      1.0  0.57012  0.47891  0.90863  1.0000
  H   H455      1.0  0.52070  0.44351  0.93925  1.0000
  C   C382      1.0  0.55032  0.46737  0.94332  1.0000
  C   C383      1.0  0.99646  0.10252  0.75229  1.0000
  H   H456      1.0  0.53817  0.46314  0.97908  1.0000
  C   C384      1.0  0.91150  0.35681  0.98180  1.0000
  H   H457      1.0  0.91247  0.32878  0.98321  1.0000
  Fe  Fe51      1.0  0.69446  0.70257  0.04140  1.0000
  S   S100      1.0  0.71970  0.74667  0.01230  1.0000
  S   S101      1.0  0.73311  0.72319  0.07334  1.0000
  Fe  Fe52      1.0  0.62720  0.63935  0.01069  1.0000
  H   H458      1.0  0.64021  0.58833  0.98473  1.0000
  S   S102      1.0  0.57112  0.57683  0.01010  1.0000
  C   C385      1.0  0.86671  0.98377  0.21341  1.0000
  H   H459      1.0  0.80784  0.72702  0.04956  1.0000
  Fe  Fe53      1.0  0.65643  0.72808  0.00414  1.0000
  N   N25       1.0  0.88019  0.73742  0.24467  1.0000
  S   S103      1.0  0.68846  0.65128  0.02066  1.0000
  S   S104      1.0  0.63136  0.68656  0.03441  1.0000
  Fe  Fe54      1.0  0.77129  0.80764  0.20137  1.0000
  S   S105      1.0  0.79825  0.77310  0.21619  1.0000
  S   S106      1.0  0.72484  0.78435  0.17295  1.0000
  Fe  Fe55      1.0  0.81818  0.87730  0.23359  1.0000
  S   S107      1.0  0.84890  0.84795  0.24976  1.0000
  S   S108      1.0  0.83433  0.93484  0.25115  1.0000
  Fe  Fe56      1.0  0.85550  0.83167  0.21454  1.0000
  S   S109      1.0  0.91183  0.83801  0.19956  1.0000
  Fe  Fe57      1.0  0.78896  0.79230  0.25075  1.0000
  S   S110      1.0  0.77819  0.75583  0.28373  1.0000
  S   S111      1.0  0.82941  0.86541  0.19792  1.0000
  S   S112      1.0  0.75742  0.82250  0.23627  1.0000
  C   C386      1.0  0.86392  0.69997  0.25818  1.0000
  H   H460      1.0  0.87056  0.70541  0.27655  1.0000
  C   C387      1.0  0.92418  0.75948  0.24566  1.0000
  H   H461      1.0  0.94825  0.93172  0.21831  1.0000
  C   C388      1.0  0.95659  0.86137  0.21479  1.0000
  H   H462      1.0  0.60285  0.51908  0.98872  1.0000
  C   C389      1.0  0.95696  0.86672  0.23824  1.0000
  S   S113      1.0  0.62709  0.76549  0.99872  1.0000
  H   H463      1.0  0.92959  0.85749  0.24737  1.0000
  H   H464      1.0  0.66834  0.54699  0.99433  1.0000
  H   H465      1.0  0.87435  0.70769  0.21300  1.0000
  C   C390      1.0  0.95088  0.75718  0.98955  1.0000
  H   H466      1.0  0.92251  0.68575  0.01092  1.0000
  H   H467      1.0  0.85564  0.95699  0.20362  1.0000
  H   H468      1.0  0.75981  0.82365  0.03753  1.0000
  C   C391      1.0  0.98512  0.79234  0.26831  1.0000
  C   C392      1.0  0.86051  0.98113  0.23689  1.0000
  H   H469      1.0  0.98105  0.77681  0.04410  1.0000
  H   H470      1.0  0.87384  0.75379  0.21043  1.0000
  H   H471      1.0  0.87637  0.68146  0.25217  1.0000
  C   C393      1.0  0.78811  0.65938  0.98567  1.0000
  C   C394      1.0  0.80045  0.86336  0.29681  1.0000
  H   H472      1.0  0.85757  0.72457  0.07444  1.0000
  H   H473      1.0  0.94935  0.78420  0.98512  1.0000
  C   C395      1.0  0.74635  0.74677  0.30771  1.0000
  C   C396      1.0  0.72963  0.73968  0.10100  1.0000
  C   C397      1.0  0.76304  0.75498  0.11521  1.0000
  C   C398      1.0  0.76212  0.76865  0.13720  1.0000
  C   C399      1.0  0.72767  0.76727  0.14535  1.0000
  C   C400      1.0  0.69428  0.75213  0.13108  1.0000
  C   C401      1.0  0.69514  0.73830  0.10911  1.0000
  H   H474      1.0  0.78988  0.75615  0.10923  1.0000
  H   H475      1.0  0.78805  0.78015  0.14788  1.0000
  H   H476      1.0  0.66737  0.75065  0.13723  1.0000
  H   H477      1.0  0.66894  0.72609  0.09865  1.0000
  C   C402      1.0  0.99029  0.79177  0.22758  1.0000
  H   H478      1.0  0.83091  0.68193  0.25702  1.0000
  C   C403      1.0  0.94366  0.77099  0.26691  1.0000
  C   C404      1.0  0.86361  0.73007  0.05638  1.0000
  H   H479      1.0  0.59887  0.81991  0.99027  1.0000
  C   C405      1.0  0.94838  0.71222  0.01843  1.0000
  C   C406      1.0  0.83553  0.73144  0.04239  1.0000
  N   N26       1.0  0.94589  0.74853  0.01433  1.0000
  N   N27       1.0  0.72079  0.83214  0.05984  1.0000
  C   C407      1.0  0.71973  0.83988  0.08437  1.0000
  C   C408      1.0  0.71787  0.86265  0.04608  1.0000
  C   C409      1.0  0.68393  0.86699  0.04813  1.0000
  C   C410      1.0  0.74749  0.88794  0.03001  1.0000
  C   C411      1.0  0.67978  0.89467  0.03486  1.0000
  C   C412      1.0  0.74306  0.91563  0.01690  1.0000
  C   C413      1.0  0.70931  0.91894  0.01929  1.0000
  H   H480      1.0  0.74385  0.87029  0.08871  1.0000
  H   H481      1.0  0.69106  0.83708  0.08972  1.0000
  H   H482      1.0  0.72364  0.81846  0.09522  1.0000
  H   H483      1.0  0.65783  0.78850  0.06057  1.0000
  H   H484      1.0  0.77401  0.88648  0.02686  1.0000
  C   C414      1.0  0.71477  0.75424  0.30714  1.0000
  C   C415      1.0  0.50439  0.67877  0.98617  1.0000
  H   H485      1.0  0.99238  0.86949  0.18506  1.0000
  C   C416      1.0  0.87825  0.74332  0.00974  1.0000
  C   C417      1.0  0.94884  0.77071  0.22593  1.0000
  H   H486      1.0  0.81291  0.62590  0.00066  1.0000
  H   H487      1.0  0.79417  0.92870  0.29317  1.0000
  C   C418      1.0  0.80857  0.92555  0.30878  1.0000
  C   C419      1.0  0.99553  0.51679  0.00064  1.0000
  H   H488      1.0  0.73516  0.87060  0.30233  1.0000
  H   H489      1.0  0.92696  0.76423  0.28261  1.0000
  C   C420      1.0  0.84287  0.73808  0.01915  1.0000
  H   H490      1.0  0.65315  0.89675  0.03623  1.0000
  H   H491      1.0  0.78756  0.83102  0.30001  1.0000
  H   H492      1.0  0.83301  0.87634  0.29424  1.0000
  C   C421      1.0  0.89921  0.73549  0.04718  1.0000
  C   C422      1.0  0.99294  0.88304  0.25009  1.0000
  H   H493      1.0  0.65993  0.84839  0.05970  1.0000
  H   H494      1.0  0.93700  0.76473  0.20897  1.0000
  C   C423      1.0  0.68667  0.79232  0.05470  1.0000
  H   H495      1.0  0.78473  0.85966  0.05969  1.0000
  H   H496      1.0  0.68417  0.78724  0.03608  1.0000
  H   H497      1.0  0.68961  0.76806  0.06293  1.0000
  H   H498      1.0  0.83170  0.74646  0.25379  1.0000
  C   C424      1.0  0.86475  0.76201  0.25430  1.0000
  H   H499      1.0  0.88136  0.74733  0.99154  1.0000
  H   H500      1.0  0.83133  0.71019  0.22112  1.0000
  C   C425      1.0  0.86445  0.72679  0.22126  1.0000
  C   C426      1.0  0.75779  0.83098  0.05550  1.0000
  H   H501      1.0  0.99176  0.56898  0.99158  1.0000
  H   H502      1.0  0.94889  0.70567  0.03677  1.0000
  H   H503      1.0  0.87289  0.76953  0.27235  1.0000
  H   H504      1.0  0.76527  0.93386  0.00420  1.0000
  H   H505      1.0  0.75901  0.80770  0.06609  1.0000
  H   H506      1.0  0.93317  0.96300  0.23142  1.0000
  H   H507      1.0  0.96313  0.94787  0.24690  1.0000
  H   H508      1.0  0.91989  0.73381  0.05869  1.0000
  H   H509      1.0  0.52867  0.70978  0.98950  1.0000
  H   H510      1.0  0.97583  0.71493  0.01069  1.0000
  H   H511      1.0  0.50841  0.65186  0.02752  1.0000
  H   H512      1.0  0.78800  0.86649  0.28044  1.0000
  C   C427      1.0  0.65041  0.81363  0.98588  1.0000
  H   H513      1.0  0.82067  0.73860  0.00825  1.0000
  C   C428      1.0  0.90781  0.74259  0.02358  1.0000
  H   H514      1.0  0.87641  0.79037  0.24454  1.0000
  H   H515      1.0  0.70868  0.76524  0.29161  1.0000
  H   H516      1.0  0.70560  0.93964  0.00852  1.0000
  C   C429      1.0  0.95841  0.95743  0.22987  1.0000
  H   H517      1.0  0.76472  0.64983  0.99827  1.0000
  H   H518      1.0  0.55697  0.68750  0.01731  1.0000
  H   H519      1.0  0.97931  0.98097  0.18602  1.0000
  C   C430      1.0  0.81555  0.64595  0.98702  1.0000
  C   C431      1.0  0.99251  0.87372  0.20318  1.0000
  C   C432      1.0  0.53466  0.54483  0.98999  1.0000
  N   N28       1.0  0.51699  0.64945  0.99148  1.0000
  C   C433      1.0  0.53198  0.65646  0.01513  1.0000
  C   C434      1.0  0.50290  0.50790  0.99758  1.0000
  H   H520      1.0  0.84080  0.94015  0.30440  1.0000
  H   H521      1.0  0.99300  0.88599  0.26833  1.0000
  H   H522      1.0  0.54377  0.63658  0.01991  1.0000
  H   H523      1.0  0.97839  0.81003  0.02368  1.0000
  H   H524      1.0  0.98877  0.51761  0.01838  1.0000
  Fe  Fe58      1.0  0.71053  0.69480  0.99144  1.0000
  C   C435      1.0  0.97989  0.78238  0.02568  1.0000
  H   H525      1.0  0.50109  0.49959  0.01531  1.0000
  N   N29       1.0  0.79200  0.88317  0.31550  1.0000
  N   N30       1.0  0.99534  0.99274  0.22130  1.0000
  C   C436      1.0  0.99711  0.54603  0.98544  1.0000
  Fe  Fe59      1.0  0.66445  0.70295  0.40800  1.0000
  S   S114      1.0  0.70023  0.74874  0.43419  1.0000
  S   S115      1.0  0.66600  0.72373  0.37095  1.0000
  Fe  Fe60      1.0  0.61841  0.63716  0.44497  1.0000
  S   S116      1.0  0.65172  0.67916  0.47315  1.0000
  S   S117      1.0  0.57406  0.57015  0.45141  1.0000
  Fe  Fe61      1.0  0.64340  0.72462  0.45391  1.0000
  S   S118      1.0  0.62401  0.76153  0.47419  1.0000
  Fe  Fe62      1.0  0.70672  0.70046  0.45166  1.0000
  S   S119      1.0  0.76376  0.72100  0.47178  1.0000
  S   S120      1.0  0.60619  0.68125  0.42701  1.0000
  S   S121      1.0  0.67465  0.65585  0.42408  1.0000
  Fe  Fe63      1.0  0.93375  0.66704  0.50194  1.0000
  S   S122      1.0  0.87093  0.64168  0.48787  1.0000
  S   S123      1.0  0.94683  0.62952  0.52613  1.0000
  Fe  Fe64      1.0  0.67041  0.98265  0.49066  1.0000
  S   S124      1.0  0.68397  0.94679  0.46558  1.0000
  S   S125      1.0  0.62555  0.95900  0.51914  1.0000
  H   H526      1.0  0.62559  0.77300  0.42640  1.0000
  C   C437      1.0  0.76540  0.62416  0.51925  1.0000
  C   C438      1.0  0.52863  0.53997  0.46707  1.0000
  C   C439      1.0  0.96209  0.52953  0.53678  1.0000
  C   C440      1.0  0.97870  0.77181  0.61548  1.0000
  C   C441      1.0  0.64254  0.81352  0.47215  1.0000
  C   C442      1.0  0.67209  0.83799  0.45644  1.0000
  C   C443      1.0  0.68453  0.87871  0.45473  1.0000
  C   C444      1.0  0.66811  0.89561  0.46891  1.0000
  C   C445      1.0  0.63906  0.87132  0.48487  1.0000
  C   C446      1.0  0.62622  0.83046  0.48637  1.0000
  H   H527      1.0  0.68525  0.82565  0.44549  1.0000
  H   H528      1.0  0.70700  0.89732  0.44234  1.0000
  H   H529      1.0  0.62610  0.88390  0.49585  1.0000
  H   H530      1.0  0.60337  0.81187  0.49859  1.0000
  C   C447      1.0  0.79524  0.70028  0.47428  1.0000
  C   C448      1.0  0.78731  0.66555  0.46319  1.0000
  C   C449      1.0  0.81132  0.64853  0.46714  1.0000
  C   C450      1.0  0.84422  0.66658  0.48170  1.0000
  C   C451      1.0  0.85306  0.70217  0.49210  1.0000
  C   C452      1.0  0.82852  0.71871  0.48853  1.0000
  H   H531      1.0  0.76257  0.65159  0.45172  1.0000
  H   H532      1.0  0.80427  0.62104  0.45900  1.0000
  H   H533      1.0  0.87814  0.71631  0.50340  1.0000
  H   H534      1.0  0.83516  0.74573  0.49709  1.0000
  C   C453      1.0  0.67723  0.85198  0.53566  1.0000
  C   C454      1.0  0.72917  0.72462  0.34754  1.0000
  C   C455      1.0  0.69749  0.73191  0.34693  1.0000
  H   H535      1.0  0.77741  0.72571  0.32872  1.0000
  H   H536      1.0  0.73495  0.71309  0.36296  1.0000
  H   H537      1.0  0.95092  0.54985  0.53688  1.0000
  C   C456      1.0  0.63096  0.77972  0.40795  1.0000
  H   H538      1.0  0.80399  0.94254  0.32230  1.0000
  H   H539      1.0  0.74924  0.93474  0.50904  1.0000
  C   C457      1.0  0.77628  0.59521  0.52010  1.0000
  C   C458      1.0  0.75116  0.55780  0.51124  1.0000
  H   H540      1.0  0.56422  0.71351  0.39376  1.0000
  C   C459      1.0  0.59411  0.84162  0.39189  1.0000
  C   C460      1.0  0.57579  0.83950  0.43794  1.0000
  C   C461      1.0  0.58999  0.87218  0.40131  1.0000
  C   C462      1.0  0.58114  0.87126  0.42431  1.0000
  C   C463      1.0  0.51091  0.55605  0.48074  1.0000
  H   H541      1.0  0.99082  0.54719  0.59191  1.0000
  H   H542      1.0  0.63105  0.50922  0.49655  1.0000
  H   H543      1.0  0.97212  0.74991  0.58119  1.0000
  H   H544      1.0  0.65767  0.80980  0.40590  1.0000
  C   C464      1.0  0.96949  0.53171  0.47273  1.0000
  H   H545      1.0  0.78575  0.65366  0.52545  1.0000
  H   H546      1.0  0.65318  0.59053  0.45656  1.0000
  H   H547      1.0  0.96887  0.79254  0.61122  1.0000
  S   S126      1.0  0.98316  0.67772  0.47760  1.0000
  H   H548      1.0  0.55580  0.73069  0.41978  1.0000
  C   C465      1.0  0.67932  0.59592  0.46679  1.0000
  H   H549      1.0  0.79656  0.80260  0.37332  1.0000
  H   H550      1.0  0.57881  0.89539  0.43169  1.0000
  C   C466      1.0  0.75323  0.73180  0.32803  1.0000
  H   H551      1.0  0.56930  0.83910  0.45589  1.0000
  H   H552      1.0  0.85209  0.85927  0.39283  1.0000
  C   C467      1.0  0.85620  0.90269  0.36830  1.0000
  H   H553      1.0  0.76993  0.81312  0.33839  1.0000
  H   H554      1.0  0.65090  0.84239  0.54610  1.0000
  H   H555      1.0  0.72408  0.64050  0.50759  1.0000
  H   H556      1.0  0.52463  0.58795  0.48198  1.0000
  H   H557      1.0  0.94967  0.54354  0.47190  1.0000
  H   H558      1.0  0.59416  0.89708  0.39082  1.0000
  C   C468      1.0  0.57999  0.80891  0.42876  1.0000
  H   H559      1.0  0.69833  0.58896  0.45588  1.0000
  C   C469      1.0  0.84098  0.90937  0.34828  1.0000
  H   H560      1.0  0.74057  0.87764  0.33260  1.0000
  C   C470      1.0  0.80888  0.83254  0.36643  1.0000
  H   H561      1.0  0.75862  0.99019  0.64646  1.0000
  C   C471      1.0  0.56082  0.73777  0.40130  1.0000
  N   N31       1.0  0.59608  0.77746  0.39654  1.0000
  H   H562      1.0  0.63848  0.75795  0.40103  1.0000
  C   C472      1.0  0.79356  0.83891  0.34643  1.0000
  H   H563      1.0  0.69040  0.91265  0.53374  1.0000
  C   C473      1.0  0.80876  0.87752  0.33683  1.0000
  C   C474      1.0  0.64041  0.52942  0.48143  1.0000
  C   C475      1.0  0.70337  0.57832  0.49991  1.0000
  H   H564      1.0  0.69756  0.51992  0.49439  1.0000
  H   H565      1.0  0.88082  0.92733  0.37675  1.0000
  H   H566      1.0  0.76035  0.53576  0.51151  1.0000
  C   C476      1.0  0.60388  0.78058  0.37167  1.0000
  H   H567      1.0  0.69652  0.62828  0.47031  1.0000
  H   H568      1.0  0.65906  0.61571  0.50531  1.0000
  C   C477      1.0  0.72976  0.61613  0.50912  1.0000
  H   H569      1.0  0.53338  0.73578  0.39428  1.0000
  H   H570      1.0  0.57682  0.78565  0.44030  1.0000
  C   C478      1.0  0.74038  0.99907  0.63714  1.0000
  H   H571      1.0  0.80492  0.60227  0.52694  1.0000
  Fe  Fe65      1.0  0.98762  0.68719  0.54377  1.0000
  N   N32       1.0  0.66714  0.57147  0.48788  1.0000
  H   H572      1.0  0.66587  0.75210  0.32576  1.0000
  S   S127      1.0  0.97050  0.72331  0.52142  1.0000
  N   N33       1.0  0.73580  0.80844  0.50799  1.0000
  C   C479      1.0  0.74004  0.80905  0.48294  1.0000
  C   C480      1.0  0.77495  0.82069  0.51827  1.0000
  C   C481      1.0  0.70808  0.76651  0.51501  1.0000
  C   C482      1.0  0.72234  0.83629  0.51489  1.0000
  C   C483      1.0  0.74436  0.87701  0.50821  1.0000
  C   C484      1.0  0.68819  0.82451  0.52882  1.0000
  C   C485      1.0  0.73272  0.90403  0.51485  1.0000
  C   C486      1.0  0.69942  0.89161  0.52871  1.0000
  H   H573      1.0  0.76240  0.83860  0.47600  1.0000
  H   H574      1.0  0.74962  0.78794  0.47729  1.0000
  H   H575      1.0  0.71125  0.80030  0.47469  1.0000
  H   H576      1.0  0.79824  0.85073  0.51232  1.0000
  H   H577      1.0  0.78566  0.79986  0.51387  1.0000
  H   H578      1.0  0.77329  0.82144  0.53712  1.0000
  H   H579      1.0  0.67796  0.75549  0.50773  1.0000
  H   H580      1.0  0.71844  0.74622  0.50889  1.0000
  H   H581      1.0  0.70536  0.76294  0.53380  1.0000
  H   H582      1.0  0.77071  0.88835  0.49773  1.0000
  H   H583      1.0  0.66907  0.79419  0.53446  1.0000
  H   H584      1.0  0.61492  0.57620  0.49406  1.0000
  H   H585      1.0  0.63171  0.80851  0.36702  1.0000
  H   H586      1.0  0.74352  0.97228  0.60592  1.0000
  C   C487      1.0  0.64351  0.58327  0.50224  1.0000
  C   C488      1.0  0.84011  0.86439  0.37738  1.0000
  H   H587      1.0  0.60136  0.84447  0.37403  1.0000
  H   H588      1.0  0.60819  0.75594  0.36560  1.0000
  C   C489      1.0  0.71512  0.54921  0.50132  1.0000
  C   C490      1.0  0.58949  0.80907  0.40547  1.0000
  H   H589      1.0  0.85516  0.93964  0.34202  1.0000
  H   H590      1.0  0.73271  0.83245  0.32010  1.0000
  H   H591      1.0  0.61271  0.52520  0.47326  1.0000
  H   H592      1.0  0.63624  0.56756  0.51899  1.0000
  C   C491      1.0  0.73168  0.98888  0.61409  1.0000
  H   H593      1.0  0.57863  0.77893  0.36196  1.0000
  H   H594      1.0  0.97733  0.59063  0.56682  1.0000
  S   S128      1.0  0.69985  0.98764  0.57221  1.0000
  C   C492      1.0  0.69049  0.74671  0.32658  1.0000
  H   H595      1.0  0.65462  0.51951  0.46871  1.0000
  C   C493      1.0  0.98080  0.74784  0.59832  1.0000
  C   C494      1.0  0.98928  0.76935  0.63808  1.0000
  C   C495      1.0  0.99387  0.72114  0.60343  1.0000
  C   C496      1.0  0.74828  0.86523  0.31782  1.0000
  H   H596      1.0  0.90171  0.67745  0.85231  1.0000
  C   C497      1.0  0.73456  0.98723  0.82999  1.0000
  S   S129      1.0  0.92905  0.86821  0.75133  1.0000
  H   H597      1.0  0.71168  0.98386  0.86405  1.0000
  H   H598      1.0  0.82162  0.72850  0.79988  1.0000
  S   S130      1.0  0.94852  0.78425  0.72365  1.0000
  C   C498      1.0  0.65856  0.59792  0.96894  1.0000
  S   S131      1.0  0.83410  0.93495  0.69687  1.0000
  C   C499      1.0  0.87639  0.71651  0.77807  1.0000
  C   C500      1.0  0.63350  0.99663  0.81835  1.0000
  S   S132      1.0  0.75974  0.96884  0.72043  1.0000
  C   C501      1.0  0.89746  0.77107  0.83409  1.0000
  Fe  Fe66      1.0  0.93852  0.66166  0.95443  1.0000
  S   S133      1.0  0.94904  0.63478  0.92339  1.0000
  C   C502      1.0  0.53645  0.55476  0.96689  1.0000
  H   H599      1.0  0.98321  0.67570  0.84573  1.0000
  C   C503      1.0  0.79108  0.68510  0.96803  1.0000
  C   C504      1.0  0.50657  0.52857  0.95189  1.0000
  C   C505      1.0  0.68501  0.55527  0.97795  1.0000
  N   N34       1.0  0.66180  0.97919  0.75003  1.0000
  Fe  Fe67      1.0  0.82104  0.98028  0.71198  1.0000
  C   C506      1.0  0.65144  0.98420  0.77350  1.0000
  H   H600      1.0  0.71527  0.58031  0.98187  1.0000
  H   H601      1.0  0.89074  0.91060  0.76554  1.0000
  H   H602      1.0  0.70624  0.81691  0.97897  1.0000
  C   C507      1.0  0.82204  0.69760  0.95197  1.0000
  N   N35       1.0  0.66547  0.56652  0.96009  1.0000
  H   H603      1.0  0.68817  0.52972  0.97254  1.0000
  H   H604      1.0  0.50824  0.53685  0.93416  1.0000
  H   H605      1.0  0.98660  0.96847  0.74713  1.0000
  C   C508      1.0  0.68945  0.83204  0.97763  1.0000
  N   N36       1.0  0.88349  0.74938  0.79345  1.0000
  C   C509      1.0  0.84651  0.65844  0.97097  1.0000
  H   H606      1.0  0.56088  0.58242  0.96048  1.0000
  S   S134      1.0  0.71023  0.93941  0.95368  1.0000
  H   H607      1.0  0.70039  0.56185  0.93310  1.0000
  S   S135      1.0  0.64142  0.97609  0.92088  1.0000
  H   H608      1.0  0.68264  0.59617  0.92731  1.0000
  S   S136      1.0  0.76192  0.98875  0.78656  1.0000
  H   H609      1.0  0.94552  0.78325  0.78518  1.0000
  Fe  Fe68      1.0  0.99736  0.81414  0.69706  1.0000
  H   H610      1.0  0.54304  0.65516  0.95811  1.0000
  H   H611      1.0  0.87342  0.69434  0.94100  1.0000
  H   H612      1.0  0.82452  0.71743  0.93823  1.0000
  H   H613      1.0  0.84131  0.75838  0.77436  1.0000
  H   H614      1.0  0.73482  0.95971  0.83188  1.0000
  S   S137      1.0  0.64925  0.68025  0.98030  1.0000
  H   H615      1.0  0.84988  0.68800  0.78349  1.0000
  S   S138      1.0  0.98781  0.73932  0.77201  1.0000
  C   C510      1.0  0.89210  0.70826  0.82456  1.0000
  H   H616      1.0  0.98996  0.94906  0.72001  1.0000
  C   C511      1.0  0.69387  0.58399  0.94068  1.0000
  Fe  Fe69      1.0  0.96667  0.84634  0.73450  1.0000
  C   C512      1.0  0.89955  0.70314  0.84720  1.0000
  H   H617      1.0  0.65513  0.93519  0.79002  1.0000
  C   C513      1.0  0.90403  0.88774  0.73572  1.0000
  C   C514      1.0  0.89982  0.88370  0.71219  1.0000
  C   C515      1.0  0.87832  0.89837  0.70047  1.0000
  C   C516      1.0  0.86158  0.91776  0.71210  1.0000
  C   C517      1.0  0.86667  0.92264  0.73556  1.0000
  C   C518      1.0  0.88757  0.90738  0.74734  1.0000
  H   H618      1.0  0.91236  0.86857  0.70309  1.0000
  H   H619      1.0  0.87449  0.89455  0.68231  1.0000
  H   H620      1.0  0.85374  0.93734  0.74468  1.0000
  C   C519      1.0  0.90524  0.76576  0.85664  1.0000
  S   S139      1.0  0.98752  0.80184  0.65870  1.0000
  C   C520      1.0  0.91849  0.78594  0.78447  1.0000
  S   S140      1.0  0.87962  0.63986  0.97324  1.0000
  H   H621      1.0  0.89747  0.79812  0.82981  1.0000
  H   H622      1.0  0.57644  0.68801  0.97869  1.0000
  H   H623      1.0  0.87120  0.72271  0.76027  1.0000
  H   H624      1.0  0.63848  0.91588  0.75225  1.0000
  C   C521      1.0  0.99086  0.73889  0.80227  1.0000
  C   C522      1.0  0.90636  0.73189  0.86316  1.0000
  H   H625      1.0  0.67304  0.94025  0.72941  1.0000
  H   H626      1.0  0.68701  0.62523  0.97301  1.0000
  H   H627      1.0  0.85308  0.78156  0.80119  1.0000
  H   H628      1.0  0.91112  0.78831  0.86908  1.0000
  H   H629      1.0  0.73713  0.88421  0.96120  1.0000
  H   H630      1.0  0.64274  0.60633  0.95632  1.0000
  C   C523      1.0  0.55074  0.65747  0.97636  1.0000
  Fe  Fe70      1.0  0.68924  0.98345  0.94529  1.0000
  C   C524      1.0  0.84984  0.68462  0.95351  1.0000
  C   C525      1.0  0.89073  0.74251  0.81731  1.0000
  C   C526      1.0  0.84832  0.75457  0.79224  1.0000
  C   C527      1.0  0.64892  0.95906  0.79193  1.0000
  C   C528      1.0  0.70686  0.87019  0.96748  1.0000
  C   C529      1.0  0.64654  0.87207  0.97379  1.0000
  H   H631      1.0  0.92468  0.81298  0.79389  1.0000
  H   H632      1.0  0.91426  0.79191  0.76649  1.0000
  H   H633      1.0  0.88860  0.68544  0.81302  1.0000
  H   H634      1.0  0.90904  0.50516  0.94641  1.0000
  S   S141      1.0  0.97898  0.72384  0.94225  1.0000
  C   C530      1.0  0.68564  0.89051  0.96554  1.0000
  S   S142      1.0  0.75618  0.70132  0.96492  1.0000
  H   H635      1.0  0.69123  0.94601  0.75764  1.0000
  H   H636      1.0  0.91363  0.72835  0.88049  1.0000
  H   H637      1.0  0.60101  0.94979  0.73910  1.0000
  H   H638      1.0  0.63717  0.97016  0.71634  1.0000
  H   H639      1.0  0.92810  0.73160  0.97970  1.0000
  H   H640      1.0  0.97915  0.67859  0.80364  1.0000
  H   H641      1.0  0.62992  0.88739  0.97249  1.0000
  C   C531      1.0  0.63061  0.97518  0.73405  1.0000
  H   H642      1.0  0.90270  0.71240  0.77726  1.0000
  H   H643      1.0  0.63924  0.94651  0.82789  1.0000
  C   C532      1.0  0.66620  0.94371  0.74733  1.0000
  H   H644      1.0  0.94903  0.97537  0.71884  1.0000
  C   C533      1.0  0.63980  0.96522  0.81394  1.0000
  H   H645      1.0  0.72293  0.60963  0.94604  1.0000
  S   S143      1.0  0.56497  0.99117  0.96144  1.0000
  C   C534      1.0  0.62673  0.53174  0.95404  1.0000
  C   C535      1.0  0.98752  0.70250  0.83740  1.0000
  Fe  Fe71      1.0  0.99643  0.78911  0.74726  1.0000
  C   C536      1.0  0.98526  0.70427  0.81349  1.0000
  C   C537      1.0  0.61594  0.51925  0.93126  1.0000
  H   H646      1.0  0.56104  0.63605  0.97998  1.0000
  C   C538      1.0  0.59756  0.51043  0.97112  1.0000
  S   S144      1.0  0.98616  0.65959  0.97501  1.0000
  Fe  Fe72      1.0  0.99352  0.69786  0.91233  1.0000
  H   H647      1.0  0.63586  0.53380  0.91709  1.0000
  C   C539      1.0  0.99543  0.73544  0.85043  1.0000
  H   H648      1.0  0.98040  0.76293  0.98337  1.0000
  C   C540      1.0  0.62907  0.83384  0.98391  1.0000
