data_image0
_chemical_formula_structural       FeS2FeS2Fe2S3FeS2FeS2FeSFeS3FeS2FeS2FeSFeS3C2H4C5HCH2C2H3C6H4C2H6CH2C2H2C2HCH2C6H4NC9H11CHCNC9H14C2H3CHNC3HNHC3H8CHCHCHC4H3C3H2CH3C3NC2HCHC3H2CH4C2HCHCHCH2C2HC3NCHCHCFeS2FeS2Fe2S3FeS2FeS2FeSFeS3FeS2FeS2FeHFeS3C2H5C4HC3HC2HC7H4C4NHNCHCHC4HCHNHC7H4NH2C4HCHCHCH2C3H7CH3C4HCH5C3H3C2NC9H15CHC2H5CHNH2CHSH2C3HCH2CH4CH3C3H5CH4CH2C2H2CH3CH2C2H3CH2CH3FeS2FeS2FeSFeS3FeS2FeS2FeSFeS4C2HC6H4CH2C2HCHCHC9H4C6H4CH2C3N2H5CNCH3CH2C2HNH2CH3C3H2CH5C2HCH2C4HCHCHC3HNC9H10C2HCH8CH4C2H3C2H4C2H2C2FeS2FeSHFeSFeS3FeS2FeS2FeSFeS3HCHC7H7CH2C2H5C6H4C6H4CHCHCH3C3HCHNC9H15CH4CHC3SCHCNC2H2CH5C5H2CH4CH3CHCHCSH2CHC2H2CNH2CHCFeS2FeS2FeSFeS3FeSHFeSHFeSFeS3FeS2FeS2FeSFeS3C2HCH2C3HCHC5H3C6H4C4H2CH5C6H5CHSH4C2NH4C2HC2H2NC9H15SHNC9H14C3HCHCH2NCHCHC3HCH2C2H3CH2C2HNC2H2CH3CHC2H9CFeS2FeS2FeCFeS3FeSNFeSHFeSFeS3FeS2FeS2FeSFeS3C2HCH2CH3CNC3HCH2C7H4C4H3C4HC6H7C2H4CHCH2CHNSH3C3HC2H10SH2C3H3NC9H16CH2CH2NCH3C6H3C2H2C2HCHCH2CHC2HCHC3H2C2HCH6C2H2NCHC3HCHSHC2FeS2FeSFeSFeS3FeS2FeS2FeSFeS3FeS2FeS2FeSFeS3HCH2CNCHC2H3CHC6H4C3HC2HCH2C6H4C2H2C4H2NH2C2HC2HC2H3NCH2CH4C2H3CHC4HC2HCH2CH2C2H5C2H3C4NHCHCNC3H2C2HC2HCH4CHCH5CH2CHCH7C2H8CHCH3C7FeS2FeSFeSFeS3FeS2FeS2FeHFeS3FeS2FeS2FeCFeS3NHC2HC4HCHCH2C6H4C2H2C3H3C6H4NH3C3H2NHC4H5CH4SH6SCH2CH8CH3CHCH2CHC2H2CH3NC9H14NC7H2CH7C3H2CHC2H2CH5CHCFeS2FeS2FeSFeS3FeSHFeS2FeSFeS3HC6H4C2HC3HCH2C6H4C6H4C3HCH2C6H2C2HCH2CH2CNSHCNHCHCHC2H4C4NHNHC2H2CH2CHCH4CH3NCH2C2HCH5CNC9H15C3HCH2SH3CH2C2H5CH2SH2FeS2FeS2FeSFeS3FeS2FeSHFeSFeS4C6H4C2H3CHCH2C6H4C6H4C5H2NHC3H2NC9H14C3H2CHCH2CHCH2C2HCH3CHNC5H11C4H2C2H6CH2CH2C6H2NC2H4CHSHCH2CH2CH5CHC2HCHCH3C3NFeS2FeS2FeSFeS3FeSHFeSHFeSFeS3FeS2FeS2FeSFeS3HC3HC2H2C7H5CH2C3H8CHCHC6H5CHCNC8H11C4H5CH2NCNC9H14NC6H2CH3CH6C2NCH3CH5C2H4C2HCH3CH2C2H3CHC2HCH2C2HC3H3C2H4CHC3HCSHNCSH2FeS2FeSHFeSFeS3FeSCFeSCFeSFeS3FeS2FeS2FeSFeS3C5H3CHC6H8C4H5CHCHC8H5NH2NC6HCH12C3NC8HCH6CH5CHSCHCHCHC2H3SH2C3H2CNHC3HC2H2CHCHCH6NHNCHC2H7C5H4CH2CH4
_chemical_formula_sum              "Fe128 S256 C960 H1152 N64"
_cell_length_a       39.9919
_cell_length_b       80.443
_cell_length_c       44.3322
_cell_angle_alpha    89.2909
_cell_angle_beta     86.7797
_cell_angle_gamma    89.8736

_space_group_name_H-M_alt    "P 1"
_space_group_IT_number       1

loop_
  _space_group_symop_operation_xyz
  'x, y, z'

loop_
  _atom_site_type_symbol
  _atom_site_label
  _atom_site_symmetry_multiplicity
  _atom_site_fract_x
  _atom_site_fract_y
  _atom_site_fract_z
  _atom_site_occupancy
  Fe  Fe1       1.0  0.10117  0.29152  0.34577  1.0000
  S   S1        1.0  0.12200  0.30405  0.30315  1.0000
  S   S2        1.0  0.04585  0.29279  0.36252  1.0000
  Fe  Fe2       1.0  0.17152  0.28034  0.36519  1.0000
  S   S3        1.0  0.19654  0.29274  0.32377  1.0000
  S   S4        1.0  0.20572  0.26285  0.39201  1.0000
  Fe  Fe3       1.0  0.16094  0.31433  0.33244  1.0000
  Fe  Fe4       1.0  0.15597  0.28166  0.29744  1.0000
  S   S5        1.0  0.16167  0.26848  0.25159  1.0000
  S   S6        1.0  0.13905  0.30287  0.37582  1.0000
  S   S7        1.0  0.13197  0.26829  0.33812  1.0000
  Fe  Fe5       1.0  0.29118  0.22902  0.11741  1.0000
  S   S8        1.0  0.30757  0.24105  0.07240  1.0000
  S   S9        1.0  0.28273  0.24422  0.16112  1.0000
  Fe  Fe6       1.0  0.30460  0.19328  0.09288  1.0000
  S   S10       1.0  0.32041  0.20321  0.04676  1.0000
  S   S11       1.0  0.31595  0.16659  0.10916  1.0000
  Fe  Fe7       1.0  0.35006  0.22234  0.07063  1.0000
  S   S12       1.0  0.40377  0.22551  0.05025  1.0000
  Fe  Fe8       1.0  0.27675  0.22112  0.05176  1.0000
  S   S13       1.0  0.24064  0.22383  0.01285  1.0000
  S   S14       1.0  0.33596  0.21184  0.11653  1.0000
  S   S15       1.0  0.25847  0.20974  0.09710  1.0000
  Fe  Fe9       1.0  0.32278  0.03771  0.11907  1.0000
  S   S16       1.0  0.34602  0.02142  0.08274  1.0000
  S   S17       1.0  0.32537  0.03319  0.17014  1.0000
  Fe  Fe10      1.0  0.31075  0.06669  0.07420  1.0000
  S   S18       1.0  0.33286  0.05240  0.03435  1.0000
  S   S19       1.0  0.28662  0.09233  0.06699  1.0000
  Fe  Fe11      1.0  0.30506  0.03020  0.05353  1.0000
  S   S20       1.0  0.27907  0.01191  0.02347  1.0000
  Fe  Fe12      1.0  0.37228  0.04448  0.06554  1.0000
  S   S21       1.0  0.42521  0.04120  0.04720  1.0000
  S   S22       1.0  0.27909  0.04490  0.09148  1.0000
  S   S23       1.0  0.35287  0.06039  0.10379  1.0000
  C   C1        1.0  0.45632  0.04608  0.07179  1.0000
  C   C2        1.0  0.44914  0.05546  0.09775  1.0000
  H   H1        1.0  0.27947  0.00462  0.16597  1.0000
  H   H2        1.0  0.40438  0.14984  0.04383  1.0000
  H   H3        1.0  0.42425  0.06028  0.10245  1.0000
  H   H4        1.0  0.39230  0.15034  0.08395  1.0000
  C   C3        1.0  0.24743  0.24147  0.46566  1.0000
  C   C4        1.0  0.31287  0.01655  0.19532  1.0000
  C   C5        1.0  0.40050  0.18304  0.09012  1.0000
  C   C6        1.0  0.00838  0.28907  0.34359  1.0000
  C   C7        1.0  0.48879  0.04013  0.06549  1.0000
  H   H5        1.0  0.29298  0.29955  0.17060  1.0000
  C   C8        1.0  0.43516  0.00109  0.43517  1.0000
  H   H6        1.0  0.17612  0.24025  0.04087  1.0000
  H   H7        1.0  0.26301  0.23077  0.46966  1.0000
  C   C9        1.0  0.31515  0.02461  0.45456  1.0000
  C   C10       1.0  0.15956  0.24540  0.02455  1.0000
  H   H8        1.0  0.45138  0.00057  0.12440  1.0000
  H   H9        1.0  0.31194  0.03700  0.44539  1.0000
  H   H10       1.0  0.41264  0.19536  0.09195  1.0000
  C   C11       1.0  0.30988  0.14626  0.09467  1.0000
  C   C12       1.0  0.28737  0.14305  0.07243  1.0000
  C   C13       1.0  0.28122  0.12652  0.06380  1.0000
  C   C14       1.0  0.29792  0.11298  0.07676  1.0000
  C   C15       1.0  0.32137  0.11625  0.09822  1.0000
  C   C16       1.0  0.32702  0.13275  0.10728  1.0000
  H   H11       1.0  0.27388  0.15324  0.06254  1.0000
  H   H12       1.0  0.26302  0.12419  0.04720  1.0000
  H   H13       1.0  0.33453  0.10607  0.10841  1.0000
  H   H14       1.0  0.34435  0.13503  0.12463  1.0000
  C   C17       1.0  0.44315  0.22622  0.06718  1.0000
  C   C18       1.0  0.44576  0.22805  0.09830  1.0000
  H   H15       1.0  0.49098  0.02634  0.16262  1.0000
  H   H16       1.0  0.26259  0.31608  0.20911  1.0000
  H   H17       1.0  0.42330  0.22934  0.11286  1.0000
  H   H18       1.0  0.37797  0.00798  0.14355  1.0000
  H   H19       1.0  0.23336  0.31451  0.25521  1.0000
  H   H20       1.0  0.47928  0.23051  0.13455  1.0000
  C   C19       1.0  0.24886  0.28852  0.15429  1.0000
  H   H21       1.0  0.03231  0.28451  0.29981  1.0000
  H   H22       1.0  0.14712  0.31881  0.20252  1.0000
  C   C20       1.0  0.21653  0.25876  0.43019  1.0000
  C   C21       1.0  0.20646  0.26904  0.45431  1.0000
  H   H23       1.0  0.32688  0.00310  0.26730  1.0000
  H   H24       1.0  0.24154  0.01062  0.46135  1.0000
  C   C22       1.0  0.31431  0.01081  0.43518  1.0000
  C   C23       1.0  0.23705  0.24494  0.43620  1.0000
  H   H25       1.0  0.19073  0.27971  0.45029  1.0000
  C   C24       1.0  0.21412  0.28735  0.15760  1.0000
  H   H26       1.0  0.25781  0.15104  0.15174  1.0000
  H   H27       1.0  0.24509  0.23686  0.41788  1.0000
  C   C25       1.0  0.19590  0.26164  0.22707  1.0000
  C   C26       1.0  0.22933  0.26518  0.23230  1.0000
  C   C27       1.0  0.25535  0.25966  0.21195  1.0000
  C   C28       1.0  0.24851  0.25056  0.18604  1.0000
  C   C29       1.0  0.21510  0.24698  0.18084  1.0000
  C   C30       1.0  0.18904  0.25249  0.20122  1.0000
  H   H28       1.0  0.23531  0.27225  0.25182  1.0000
  H   H29       1.0  0.28106  0.26253  0.21620  1.0000
  H   H30       1.0  0.20935  0.24003  0.16105  1.0000
  H   H31       1.0  0.16333  0.24968  0.19682  1.0000
  N   N1        1.0  0.25613  0.08391  0.15915  1.0000
  C   C31       1.0  0.24572  0.07812  0.19019  1.0000
  C   C32       1.0  0.23377  0.07577  0.13810  1.0000
  C   C33       1.0  0.29070  0.07803  0.15167  1.0000
  C   C34       1.0  0.25537  0.10231  0.15733  1.0000
  C   C35       1.0  0.27400  0.11191  0.17718  1.0000
  C   C36       1.0  0.23752  0.11121  0.13541  1.0000
  C   C37       1.0  0.27445  0.12928  0.17538  1.0000
  C   C38       1.0  0.23799  0.12859  0.13397  1.0000
  C   C39       1.0  0.25644  0.13760  0.15384  1.0000
  H   H32       1.0  0.22042  0.08297  0.19726  1.0000
  H   H33       1.0  0.24490  0.06427  0.19183  1.0000
  H   H34       1.0  0.26338  0.08206  0.20718  1.0000
  H   H35       1.0  0.20730  0.07980  0.14219  1.0000
  H   H36       1.0  0.23424  0.06197  0.14055  1.0000
  H   H37       1.0  0.24178  0.07848  0.11404  1.0000
  H   H38       1.0  0.30885  0.08250  0.16780  1.0000
  H   H39       1.0  0.29231  0.06421  0.15196  1.0000
  H   H40       1.0  0.29959  0.08249  0.12875  1.0000
  H   H41       1.0  0.28907  0.10603  0.19375  1.0000
  H   H42       1.0  0.22398  0.10507  0.11834  1.0000
  C   C40       1.0  0.13660  0.23519  0.01132  1.0000
  H   H43       1.0  0.22516  0.13512  0.11644  1.0000
  C   C41       1.0  0.00867  0.28547  0.31277  1.0000
  N   N2        1.0  0.20754  0.23063  0.30682  1.0000
  C   C42       1.0  0.21414  0.24829  0.31343  1.0000
  C   C43       1.0  0.17094  0.22890  0.30344  1.0000
  C   C44       1.0  0.21618  0.22034  0.33331  1.0000
  C   C45       1.0  0.22829  0.22561  0.27969  1.0000
  C   C46       1.0  0.26378  0.22658  0.27944  1.0000
  C   C47       1.0  0.21430  0.22001  0.25281  1.0000
  C   C48       1.0  0.28392  0.22237  0.25384  1.0000
  C   C49       1.0  0.23475  0.21566  0.22747  1.0000
  C   C50       1.0  0.26942  0.21695  0.22790  1.0000
  H   H44       1.0  0.19808  0.25266  0.33300  1.0000
  H   H45       1.0  0.24036  0.25055  0.31929  1.0000
  H   H46       1.0  0.20890  0.25641  0.29382  1.0000
  H   H47       1.0  0.16231  0.23704  0.28487  1.0000
  H   H48       1.0  0.15609  0.23268  0.32427  1.0000
  H   H49       1.0  0.16395  0.21582  0.29897  1.0000
  H   H50       1.0  0.21245  0.20689  0.32901  1.0000
  H   H51       1.0  0.24255  0.22209  0.33923  1.0000
  H   H52       1.0  0.20048  0.22370  0.35397  1.0000
  H   H53       1.0  0.27619  0.23090  0.29887  1.0000
  H   H54       1.0  0.18765  0.21929  0.25037  1.0000
  H   H55       1.0  0.31091  0.22361  0.25378  1.0000
  H   H56       1.0  0.22365  0.21189  0.20685  1.0000
  H   H57       1.0  0.28499  0.21422  0.20770  1.0000
  C   C51       1.0  0.20633  0.31201  0.25296  1.0000
  C   C52       1.0  0.31755  0.26458  0.41018  1.0000
  H   H58       1.0  0.39793  0.26744  0.47305  1.0000
  H   H59       1.0  0.48602  0.01616  0.98886  1.0000
  H   H60       1.0  0.31026  0.01266  0.41145  1.0000
  C   C53       1.0  0.21273  0.30737  0.19910  1.0000
  H   H61       1.0  0.16946  0.29445  0.18171  1.0000
  N   N3        1.0  0.19472  0.31714  0.22308  1.0000
  C   C54       1.0  0.45058  0.01048  0.18198  1.0000
  C   C55       1.0  0.47759  0.22867  0.11056  1.0000
  C   C56       1.0  0.33363  0.26181  0.46276  1.0000
  H   H62       1.0  0.20119  0.27876  0.14362  1.0000
  N   N4        1.0  0.42610  0.01505  0.15935  1.0000
  H   H63       1.0  0.39305  0.18606  0.03100  1.0000
  C   C57       1.0  0.32607  0.01592  0.22410  1.0000
  C   C58       1.0  0.47278  0.22463  0.04867  1.0000
  C   C59       1.0  0.31927  0.02251  0.48572  1.0000
  H   H64       1.0  0.32009  0.26064  0.38688  1.0000
  H   H65       1.0  0.43745  0.04116  0.16229  1.0000
  H   H66       1.0  0.28954  0.13637  0.19018  1.0000
  H   H67       1.0  0.38058  0.00647  0.18312  1.0000
  H   H68       1.0  0.37408  0.18582  0.08527  1.0000
  H   H69       1.0  0.42994  0.17451  0.01860  1.0000
  H   H70       1.0  0.35449  0.24763  0.42443  1.0000
  H   H71       1.0  0.25805  0.25942  0.00428  1.0000
  C   C60       1.0  0.19616  0.29651  0.17973  1.0000
  H   H72       1.0  0.13527  0.22215  0.01772  1.0000
  C   C61       1.0  0.45133  0.01828  0.48661  1.0000
  H   H73       1.0  0.15056  0.30180  0.22931  1.0000
  C   C62       1.0  0.26586  0.29899  0.17293  1.0000
  H   H74       1.0  0.40270  0.03424  0.18654  1.0000
  C   C63       1.0  0.39501  0.15788  0.06271  1.0000
  C   C64       1.0  0.44133  0.01333  0.12817  1.0000
  C   C65       1.0  0.23881  0.00230  0.48078  1.0000
  C   C66       1.0  0.47452  0.05884  0.11740  1.0000
  H   H75       1.0  0.26272  0.28087  0.13788  1.0000
  H   H76       1.0  0.40016  0.17675  0.11264  1.0000
  H   H77       1.0  0.43345  0.19357  0.03852  1.0000
  C   C67       1.0  0.28996  0.00432  0.18794  1.0000
  C   C68       1.0  0.41843  0.18202  0.03735  1.0000
  C   C69       1.0  0.16260  0.26199  0.01554  1.0000
  H   H78       1.0  0.14501  0.32252  0.24232  1.0000
  H   H79       1.0  0.46911  0.06624  0.13730  1.0000
  C   C70       1.0  0.45142  0.16822  0.07430  1.0000
  H   H80       1.0  0.36912  0.16168  0.05737  1.0000
  H   H81       1.0  0.42290  0.01595  0.11071  1.0000
  H   H82       1.0  0.46207  0.02222  0.12300  1.0000
  C   C71       1.0  0.28988  0.28147  0.44856  1.0000
  C   C72       1.0  0.41011  0.00909  0.45260  1.0000
  C   C73       1.0  0.29390  0.27664  0.41853  1.0000
  N   N5        1.0  0.41695  0.17254  0.06630  1.0000
  C   C74       1.0  0.46348  0.15158  0.07526  1.0000
  C   C75       1.0  0.33716  0.25725  0.43188  1.0000
  H   H83       1.0  0.00295  0.32056  0.29131  1.0000
  C   C76       1.0  0.43755  0.00584  0.98905  1.0000
  H   H84       1.0  0.27059  0.29042  0.45512  1.0000
  C   C77       1.0  0.39539  0.00462  0.16144  1.0000
  C   C78       1.0  0.24818  0.30833  0.19496  1.0000
  C   C79       1.0  0.41573  0.03256  0.16390  1.0000
  H   H85       1.0  0.27783  0.28188  0.40192  1.0000
  H   H86       1.0  0.18161  0.26965  0.02496  1.0000
  C   C80       1.0  0.21712  0.26567  0.48371  1.0000
  H   H87       1.0  0.38443  0.00868  0.44608  1.0000
  H   H88       1.0  0.47113  0.22325  0.02455  1.0000
  H   H89       1.0  0.34372  0.02530  0.23021  1.0000
  H   H90       1.0  0.34779  0.22905  0.46576  1.0000
  C   C81       1.0  0.31658  0.00329  0.24525  1.0000
  C   C82       1.0  0.15777  0.31495  0.22418  1.0000
  H   H91       1.0  0.44787  0.14105  0.07083  1.0000
  C   C83       1.0  0.30920  0.27416  0.47049  1.0000
  H   H92       1.0  0.39808  0.03674  0.14673  1.0000
  C   C84       1.0  0.38991  0.25428  0.47657  1.0000
  H   H93       1.0  0.20230  0.29846  0.25690  1.0000
  C   C85       1.0  0.48327  0.01747  0.18019  1.0000
  H   H94       1.0  0.39666  0.24740  0.45555  1.0000
  H   H95       1.0  0.19267  0.31875  0.27173  1.0000
  C   C86       1.0  0.47450  0.18095  0.08054  1.0000
  C   C87       1.0  0.46843  0.00155  0.44337  1.0000
  H   H96       1.0  0.46729  0.19387  0.08006  1.0000
  C   C88       1.0  0.47753  0.01008  0.46961  1.0000
  C   C89       1.0  0.14281  0.26848  0.99316  1.0000
  C   C90       1.0  0.44244  0.99974  0.20710  1.0000
  N   N6        1.0  0.35361  0.25328  0.48550  1.0000
  C   C91       1.0  0.41814  0.01769  0.47825  1.0000
  H   H97       1.0  0.42967  0.01182  0.01009  1.0000
  C   C92       1.0  0.11646  0.24157  0.98910  1.0000
  H   H98       1.0  0.49442  0.03287  0.04545  1.0000
  C   C93       1.0  0.29729  0.00485  0.98830  1.0000
  Fe  Fe13      1.0  0.09530  0.28320  0.85299  1.0000
  S   S24       1.0  0.11202  0.29299  0.80716  1.0000
  S   S25       1.0  0.04205  0.28207  0.87501  1.0000
  Fe  Fe14      1.0  0.16737  0.28283  0.87409  1.0000
  S   S26       1.0  0.18900  0.29338  0.82930  1.0000
  S   S27       1.0  0.19759  0.27972  0.91676  1.0000
  Fe  Fe15      1.0  0.14458  0.31096  0.83071  1.0000
  Fe  Fe16      1.0  0.15528  0.27495  0.80800  1.0000
  S   S28       1.0  0.16428  0.26040  0.76375  1.0000
  S   S29       1.0  0.12581  0.30198  0.87661  1.0000
  S   S30       1.0  0.13583  0.26352  0.85265  1.0000
  Fe  Fe17      1.0  0.29527  0.22828  0.62557  1.0000
  S   S31       1.0  0.31805  0.24307  0.58607  1.0000
  S   S32       1.0  0.28798  0.24018  0.67247  1.0000
  Fe  Fe18      1.0  0.29335  0.19653  0.58848  1.0000
  S   S33       1.0  0.31452  0.20919  0.54599  1.0000
  S   S34       1.0  0.27487  0.16951  0.59024  1.0000
  Fe  Fe19      1.0  0.35125  0.22092  0.57635  1.0000
  S   S35       1.0  0.40446  0.22324  0.55440  1.0000
  Fe  Fe20      1.0  0.28032  0.23076  0.55760  1.0000
  S   S36       1.0  0.25159  0.24885  0.52726  1.0000
  S   S37       1.0  0.33189  0.20693  0.61811  1.0000
  S   S38       1.0  0.25568  0.21723  0.59800  1.0000
  Fe  Fe21      1.0  0.30300  0.03786  0.62607  1.0000
  S   S39       1.0  0.33554  0.02327  0.59304  1.0000
  S   S40       1.0  0.26323  0.02410  0.65562  1.0000
  Fe  Fe22      1.0  0.33454  0.07186  0.60614  1.0000
  S   S41       1.0  0.36985  0.05922  0.57226  1.0000
  S   S42       1.0  0.34605  0.09943  0.61526  1.0000
  Fe  Fe23      1.0  0.32614  0.04367  0.55957  1.0000
  H   H99       1.0  0.20216  0.22239  0.95999  1.0000
  Fe  Fe24      1.0  0.37624  0.03970  0.60816  1.0000
  S   S43       1.0  0.42396  0.02802  0.62272  1.0000
  S   S44       1.0  0.28987  0.05753  0.59139  1.0000
  S   S45       1.0  0.34446  0.05316  0.64320  1.0000
  C   C94       1.0  0.45811  0.03290  0.59787  1.0000
  C   C95       1.0  0.45301  0.04016  0.56970  1.0000
  H   H100      1.0  0.33232  0.01309  0.85091  1.0000
  H   H101      1.0  0.40546  0.24867  0.49424  1.0000
  H   H102      1.0  0.42807  0.04136  0.56196  1.0000
  H   H103      1.0  0.43849  0.13405  0.57737  1.0000
  H   H104      1.0  0.01504  0.31594  0.87542  1.0000
  C   C96       1.0  0.26625  0.01063  0.68772  1.0000
  C   C97       1.0  0.27199  0.00081  0.84285  1.0000
  C   C98       1.0  0.31993  0.01835  0.83104  1.0000
  C   C99       1.0  0.22954  0.27790  0.65409  1.0000
  H   H105      1.0  0.27801  0.01376  0.78750  1.0000
  C   C100      1.0  0.32629  0.01210  0.97485  1.0000
  C   C101      1.0  0.48242  0.14932  0.58123  1.0000
  C   C102      1.0  0.15034  0.30603  0.73280  1.0000
  H   H106      1.0  0.27669  0.28815  0.66506  1.0000
  C   C103      1.0  0.02457  0.32848  0.86830  1.0000
  C   C104      1.0  0.06191  0.26166  0.96337  1.0000
  H   H107      1.0  0.03689  0.30667  0.82520  1.0000
  C   C105      1.0  0.23899  0.05280  0.88070  1.0000
  C   C106      1.0  0.29595  0.15021  0.59594  1.0000
  C   C107      1.0  0.32831  0.14934  0.60640  1.0000
  C   C108      1.0  0.34323  0.13372  0.61192  1.0000
  C   C109      1.0  0.32624  0.11875  0.60682  1.0000
  C   C110      1.0  0.29404  0.11964  0.59607  1.0000
  C   C111      1.0  0.27898  0.13526  0.59090  1.0000
  H   H108      1.0  0.34164  0.16068  0.61061  1.0000
  H   H109      1.0  0.36806  0.13322  0.62037  1.0000
  H   H110      1.0  0.28056  0.10831  0.59208  1.0000
  H   H111      1.0  0.25393  0.13574  0.58287  1.0000
  C   C112      1.0  0.44398  0.22408  0.57104  1.0000
  C   C113      1.0  0.47348  0.22400  0.55210  1.0000
  C   C114      1.0  0.48520  0.07617  0.63704  1.0000
  C   C115      1.0  0.44683  0.22487  0.60231  1.0000
  N   N7        1.0  0.45599  0.08465  0.62427  1.0000
  H   H112      1.0  0.42445  0.22497  0.61720  1.0000
  N   N8        1.0  0.18682  0.30850  0.72600  1.0000
  C   C116      1.0  0.20951  0.00030  0.58513  1.0000
  H   H113      1.0  0.22603  0.02944  0.55919  1.0000
  C   C117      1.0  0.23200  0.26787  0.96520  1.0000
  H   H114      1.0  0.02439  0.26959  0.81587  1.0000
  C   C118      1.0  0.21111  0.26363  0.94186  1.0000
  C   C119      1.0  0.20094  0.24703  0.93996  1.0000
  C   C120      1.0  0.21074  0.23508  0.96148  1.0000
  C   C121      1.0  0.27245  0.03654  0.91375  1.0000
  H   H115      1.0  0.31666  0.23431  0.49475  1.0000
  C   C122      1.0  0.23841  0.99786  0.53576  1.0000
  H   H116      1.0  0.18544  0.24335  0.92203  1.0000
  N   N9        1.0  0.24095  0.00396  0.56696  1.0000
  H   H117      1.0  0.24236  0.05742  0.92824  1.0000
  C   C123      1.0  0.00322  0.27942  0.85765  1.0000
  C   C124      1.0  0.19925  0.25485  0.73892  1.0000
  C   C125      1.0  0.23227  0.25906  0.74450  1.0000
  C   C126      1.0  0.25890  0.25451  0.72389  1.0000
  C   C127      1.0  0.25306  0.24577  0.69733  1.0000
  C   C128      1.0  0.22006  0.24147  0.69183  1.0000
  C   C129      1.0  0.19345  0.24594  0.71253  1.0000
  H   H118      1.0  0.23738  0.26569  0.76479  1.0000
  H   H119      1.0  0.28430  0.25778  0.72859  1.0000
  H   H120      1.0  0.21499  0.23477  0.67162  1.0000
  H   H121      1.0  0.16808  0.24256  0.70794  1.0000
  N   N10       1.0  0.28284  0.01803  0.83517  1.0000
  H   H122      1.0  0.48038  0.19179  0.58229  1.0000
  H   H123      1.0  0.47165  0.22338  0.52789  1.0000
  C   C130      1.0  0.32345  0.00639  0.49718  1.0000
  C   C131      1.0  0.27170  0.02920  0.86010  1.0000
  C   C132      1.0  0.23619  0.00444  0.70106  1.0000
  C   C133      1.0  0.49189  0.08583  0.57482  1.0000
  H   H124      1.0  0.24900  0.02632  0.59206  1.0000
  C   C134      1.0  0.10711  0.25596  0.92672  1.0000
  H   H125      1.0  0.09968  0.23303  0.97900  1.0000
  C   C135      1.0  0.24930  0.04274  0.85631  1.0000
  H   H126      1.0  0.49104  0.06429  0.62522  1.0000
  C   C136      1.0  0.18097  0.28710  0.68459  1.0000
  H   H127      1.0  0.36196  0.01228  0.93649  1.0000
  H   H128      1.0  0.42581  0.10636  0.63492  1.0000
  C   C137      1.0  0.47006  0.00824  0.97642  1.0000
  C   C138      1.0  0.19519  0.27742  0.66117  1.0000
  C   C139      1.0  0.43484  0.09604  0.57578  1.0000
  H   H129      1.0  0.32690  0.00454  0.52097  1.0000
  H   H130      1.0  0.20098  0.29167  0.76102  1.0000
  H   H131      1.0  0.03922  0.32120  0.79361  1.0000
  H   H132      1.0  0.06893  0.32197  0.82228  1.0000
  H   H133      1.0  0.12787  0.28593  0.94044  1.0000
  H   H134      1.0  0.27718  0.03516  0.79788  1.0000
  H   H135      1.0  0.32000  0.01047  0.69008  1.0000
  C   C140      1.0  0.44922  0.10008  0.64154  1.0000
  H   H136      1.0  0.24132  0.02177  0.80667  1.0000
  H   H137      1.0  0.48052  0.22658  0.63855  1.0000
  H   H138      1.0  0.32929  0.03127  0.82734  1.0000
  C   C141      1.0  0.20378  0.30500  0.75429  1.0000
  C   C142      1.0  0.33972  0.00642  0.94673  1.0000
  C   C143      1.0  0.48026  0.04605  0.55154  1.0000
  C   C144      1.0  0.47874  0.22580  0.61435  1.0000
  H   H139      1.0  0.47016  0.10908  0.63784  1.0000
  C   C145      1.0  0.42599  0.15999  0.57763  1.0000
  H   H140      1.0  0.44577  0.09744  0.66624  1.0000
  H   H141      1.0  0.35558  0.27377  0.51632  1.0000
  H   H142      1.0  0.42092  0.18663  0.57779  1.0000
  H   H143      1.0  0.15440  0.28562  0.68949  1.0000
  H   H144      1.0  0.47608  0.05220  0.53024  1.0000
  C   C146      1.0  0.34373  0.23555  0.48760  1.0000
  C   C147      1.0  0.23586  0.29815  0.69328  1.0000
  C   C148      1.0  0.42673  0.07344  0.62912  1.0000
  H   H145      1.0  0.13553  0.30929  0.71307  1.0000
  H   H146      1.0  0.24436  0.00011  0.84726  1.0000
  H   H147      1.0  0.17965  0.26904  0.64908  1.0000
  C   C149      1.0  0.24984  0.28820  0.67017  1.0000
  C   C150      1.0  0.45100  0.99908  0.69446  1.0000
  N   N11       1.0  0.24736  0.18087  0.68126  1.0000
  C   C151      1.0  0.22980  0.19137  0.65941  1.0000
  C   C152      1.0  0.28404  0.18292  0.67540  1.0000
  C   C153      1.0  0.23922  0.16323  0.67524  1.0000
  C   C154      1.0  0.23734  0.18621  0.71233  1.0000
  C   C155      1.0  0.21930  0.17581  0.73370  1.0000
  C   C156      1.0  0.24452  0.20259  0.72161  1.0000
  C   C157      1.0  0.20895  0.18165  0.76237  1.0000
  C   C158      1.0  0.23387  0.20832  0.75018  1.0000
  C   C159      1.0  0.21607  0.19789  0.77052  1.0000
  H   H148      1.0  0.23724  0.20466  0.66038  1.0000
  H   H149      1.0  0.23535  0.18732  0.63572  1.0000
  H   H150      1.0  0.20215  0.19079  0.66391  1.0000
  H   H151      1.0  0.29197  0.19615  0.67589  1.0000
  H   H152      1.0  0.29254  0.17828  0.65263  1.0000
  H   H153      1.0  0.29814  0.17596  0.69244  1.0000
  H   H154      1.0  0.21175  0.16095  0.67728  1.0000
  H   H155      1.0  0.24759  0.15963  0.65175  1.0000
  H   H156      1.0  0.25202  0.15459  0.69067  1.0000
  H   H157      1.0  0.21264  0.16318  0.72878  1.0000
  H   H158      1.0  0.25805  0.21121  0.70660  1.0000
  H   H159      1.0  0.19504  0.17359  0.77833  1.0000
  H   H160      1.0  0.23916  0.22103  0.75641  1.0000
  H   H161      1.0  0.20767  0.20246  0.79259  1.0000
  H   H162      1.0  0.24061  0.26989  0.63670  1.0000
  C   C160      1.0  0.34887  0.26036  0.51624  1.0000
  H   H163      1.0  0.27068  0.02570  0.55568  1.0000
  C   C161      1.0  0.44809  0.14660  0.57873  1.0000
  C   C162      1.0  0.28302  0.02651  0.88954  1.0000
  H   H164      1.0  0.23934  0.04580  0.83481  1.0000
  H   H165      1.0  0.24027  0.28059  0.96697  1.0000
  H   H166      1.0  0.44484  0.00636  0.67470  1.0000
  H   H167      1.0  0.36477  0.25389  0.53265  1.0000
  H   H168      1.0  0.18765  0.00625  0.57483  1.0000
  C   C163      1.0  0.46118  0.08881  0.59168  1.0000
  H   H169      1.0  0.10380  0.24229  0.92890  1.0000
  N   N12       1.0  0.09789  0.26474  0.95516  1.0000
  H   H170      1.0  0.13387  0.25826  0.91956  1.0000
  H   H171      1.0  0.30009  0.01652  0.89409  1.0000
  C   C164      1.0  0.00158  0.27300  0.82859  1.0000
  H   H172      1.0  0.48037  0.07287  0.66136  1.0000
  S   S46       1.0  0.31692  0.04029  0.50942  1.0000
  H   H173      1.0  0.09153  0.26021  0.90802  1.0000
  H   H174      1.0  0.28130  0.03403  0.93611  1.0000
  C   C165      1.0  0.19210  0.32623  0.71757  1.0000
  C   C166      1.0  0.43808  0.17617  0.57899  1.0000
  C   C167      1.0  0.20098  0.29782  0.70141  1.0000
  H   H175      1.0  0.42879  0.06278  0.61352  1.0000
  C   C168      1.0  0.26916  0.02250  0.80563  1.0000
  H   H176      1.0  0.42418  0.06827  0.65254  1.0000
  H   H177      1.0  0.24361  0.02187  0.51143  1.0000
  C   C169      1.0  0.10183  0.28285  0.94896  1.0000
  H   H178      1.0  0.25272  0.30593  0.70500  1.0000
  H   H179      1.0  0.40265  0.07974  0.62513  1.0000
  H   H180      1.0  0.23098  0.30775  0.75237  1.0000
  H   H181      1.0  0.33828  0.02217  0.98604  1.0000
  C   C170      1.0  0.25048  0.04968  0.90935  1.0000
  H   H182      1.0  0.08519  0.28723  0.93112  1.0000
  H   H183      1.0  0.29289  0.99704  0.56727  1.0000
  H   H184      1.0  0.47173  0.09907  0.50491  1.0000
  C   C171      1.0  0.11885  0.25844  0.97937  1.0000
  C   C172      1.0  0.49066  0.03073  0.60722  1.0000
  C   C173      1.0  0.43869  0.09972  0.54489  1.0000
  H   H185      1.0  0.19312  0.31266  0.77331  1.0000
  H   H186      1.0  0.39944  0.15784  0.57548  1.0000
  H   H187      1.0  0.41780  0.10484  0.53320  1.0000
  H   H188      1.0  0.20934  0.27384  0.50200  1.0000
  H   H189      1.0  0.04553  0.26700  0.94608  1.0000
  C   C174      1.0  0.24690  0.02214  0.56838  1.0000
  H   H190      1.0  0.14474  0.29292  0.73982  1.0000
  H   H191      1.0  0.22188  0.06306  0.87743  1.0000
  H   H192      1.0  0.32254  0.25889  0.52546  1.0000
  H   H193      1.0  0.09550  0.29027  0.96951  1.0000
  C   C175      1.0  0.48091  0.00065  0.94871  1.0000
  H   H194      1.0  0.05582  0.24821  0.96486  1.0000
  H   H195      1.0  0.41076  0.09861  0.58703  1.0000
  C   C176      1.0  0.23136  0.23934  0.98501  1.0000
  C   C177      1.0  0.46897  0.09648  0.52897  1.0000
  H   H196      1.0  0.30354  0.27797  0.49349  1.0000
  H   H197      1.0  0.21268  0.00804  0.69191  1.0000
  C   C178      1.0  0.47227  0.17901  0.58160  1.0000
  H   H198      1.0  0.45629  0.02533  0.50640  1.0000
  H   H199      1.0  0.21057  0.00502  0.60865  1.0000
  H   H200      1.0  0.14067  0.31399  0.75180  1.0000
  C   C179      1.0  0.23775  0.25189  0.48970  1.0000
  H   H201      1.0  0.32913  0.01080  0.81136  1.0000
  H   H202      1.0  0.05438  0.26732  0.98552  1.0000
  C   C180      1.0  0.04201  0.31982  0.81834  1.0000
  C   C181      1.0  0.29654  0.00582  0.70015  1.0000
  H   H203      1.0  0.35844  0.22863  0.50432  1.0000
  H   H204      1.0  0.39846  0.02401  0.49160  1.0000
  H   H205      1.0  0.27320  0.00059  0.60415  1.0000
  C   C182      1.0  0.24004  0.00860  0.50995  1.0000
  H   H206      1.0  0.49470  0.02511  0.62903  1.0000
  H   H207      1.0  0.05151  0.32897  0.87348  1.0000
  C   C183      1.0  0.24224  0.25585  0.98646  1.0000
  H   H208      1.0  0.21912  0.32943  0.71467  1.0000
  H   H209      1.0  0.18045  0.32928  0.69595  1.0000
  H   H210      1.0  0.14774  0.28120  0.98633  1.0000
  Fe  Fe25      1.0  0.14705  0.56802  0.09422  1.0000
  S   S47       1.0  0.09883  0.56685  0.12247  1.0000
  S   S48       1.0  0.18067  0.59101  0.09102  1.0000
  Fe  Fe26      1.0  0.13260  0.53485  0.06250  1.0000
  S   S49       1.0  0.08291  0.53194  0.08810  1.0000
  S   S50       1.0  0.15388  0.51612  0.02813  1.0000
  Fe  Fe27      1.0  0.07711  0.55930  0.07938  1.0000
  S   S51       1.0  0.03307  0.57372  0.06420  1.0000
  Fe  Fe28      1.0  0.10964  0.53950  0.12926  1.0000
  S   S52       1.0  0.09073  0.52600  0.17286  1.0000
  S   S53       1.0  0.12442  0.56162  0.05070  1.0000
  S   S54       1.0  0.16030  0.54108  0.10414  1.0000
  Fe  Fe29      1.0  0.14732  0.46612  0.38152  1.0000
  S   S55       1.0  0.16784  0.45126  0.34148  1.0000
  S   S56       1.0  0.16920  0.46786  0.42779  1.0000
  Fe  Fe30      1.0  0.08054  0.47103  0.35423  1.0000
  S   S57       1.0  0.09413  0.45625  0.31270  1.0000
  S   S58       1.0  0.03080  0.48193  0.36854  1.0000
  Fe  Fe31      1.0  0.11825  0.43786  0.34372  1.0000
  S   S59       1.0  0.10380  0.41013  0.34588  1.0000
  Fe  Fe32      1.0  0.14223  0.47065  0.31285  1.0000
  S   S60       1.0  0.16621  0.48138  0.26883  1.0000
  S   S61       1.0  0.09953  0.45164  0.38509  1.0000
  S   S62       1.0  0.12681  0.48657  0.35290  1.0000
  S   S63       1.0  0.18105  0.34085  0.32458  1.0000
  C   C184      1.0  0.20104  0.39805  0.40444  1.0000
  C   C185      1.0  0.21207  0.36437  0.38804  1.0000
  H   H211      1.0  0.04404  0.48262  0.30406  1.0000
  C   C186      1.0  0.12612  0.39110  0.33987  1.0000
  C   C187      1.0  0.15957  0.39058  0.32879  1.0000
  C   C188      1.0  0.17581  0.37513  0.32399  1.0000
  C   C189      1.0  0.15904  0.36000  0.33046  1.0000
  C   C190      1.0  0.12563  0.36053  0.34164  1.0000
  C   C191      1.0  0.10932  0.37597  0.34621  1.0000
  H   H212      1.0  0.17288  0.40205  0.32364  1.0000
  H   H213      1.0  0.20166  0.37491  0.31539  1.0000
  H   H214      1.0  0.11237  0.34905  0.34680  1.0000
  H   H215      1.0  0.08348  0.37617  0.35481  1.0000
  C   C192      1.0  0.06711  0.52445  0.43746  1.0000
  H   H216      1.0  0.03981  0.54047  0.04043  1.0000
  H   H217      1.0  0.06871  0.51118  0.39535  1.0000
  C   C193      1.0  0.99670  0.47708  0.28560  1.0000
  C   C194      1.0  0.01443  0.54472  0.03817  1.0000
  H   H218      1.0  0.02346  0.50197  0.19665  1.0000
  C   C195      1.0  0.16522  0.48635  0.44933  1.0000
  H   H219      1.0  0.04875  0.40308  0.29814  1.0000
  C   C196      1.0  0.01297  0.53572  0.45393  1.0000
  H   H220      1.0  0.08641  0.51982  0.00568  1.0000
  C   C197      1.0  0.23597  0.37640  0.37977  1.0000
  C   C198      1.0  0.14191  0.62766  0.00286  1.0000
  C   C199      1.0  0.18285  0.36887  0.40447  1.0000
  C   C200      1.0  0.11281  0.51445  0.20007  1.0000
  C   C201      1.0  0.09478  0.50762  0.22545  1.0000
  C   C202      1.0  0.11076  0.49764  0.24679  1.0000
  C   C203      1.0  0.14509  0.49430  0.24299  1.0000
  C   C204      1.0  0.16318  0.50120  0.21768  1.0000
  C   C205      1.0  0.14724  0.51128  0.19645  1.0000
  H   H221      1.0  0.06827  0.51011  0.22880  1.0000
  H   H222      1.0  0.09649  0.49252  0.26616  1.0000
  H   H223      1.0  0.18977  0.49879  0.21461  1.0000
  H   H224      1.0  0.16159  0.51653  0.17724  1.0000
  C   C206      1.0  0.16592  0.61165  0.09734  1.0000
  C   C207      1.0  0.13437  0.61479  0.11134  1.0000
  C   C208      1.0  0.12306  0.63127  0.11529  1.0000
  C   C209      1.0  0.14282  0.64486  0.10497  1.0000
  C   C210      1.0  0.17455  0.64177  0.09121  1.0000
  C   C211      1.0  0.18602  0.62524  0.08750  1.0000
  H   H225      1.0  0.11878  0.60451  0.11939  1.0000
  H   H226      1.0  0.09879  0.63347  0.12655  1.0000
  H   H227      1.0  0.19014  0.65206  0.08322  1.0000
  H   H228      1.0  0.21055  0.62297  0.07677  1.0000
  C   C212      1.0  0.09194  0.55122  0.47608  1.0000
  H   H229      1.0  0.17451  0.60337  0.03035  1.0000
  H   H230      1.0  0.16269  0.50285  0.41099  1.0000
  C   C213      1.0  0.05326  0.51817  0.41169  1.0000
  C   C214      1.0  0.03841  0.48473  0.47924  1.0000
  C   C215      1.0  0.13439  0.63930  0.02617  1.0000
  N   N13       1.0  0.19413  0.41556  0.41276  1.0000
  N   N14       1.0  0.00956  0.41995  0.31411  1.0000
  H   H231      1.0  0.05807  0.48825  0.02513  1.0000
  H   H232      1.0  0.21420  0.44047  0.40755  1.0000
  H   H233      1.0  0.11124  0.48198  0.04683  1.0000
  H   H234      1.0  0.25838  0.37283  0.36651  1.0000
  H   H235      1.0  0.16268  0.52850  0.44143  1.0000
  C   C216      1.0  0.17739  0.38541  0.41274  1.0000
  N   N15       1.0  0.13173  0.60997  0.00536  1.0000
  C   C217      1.0  0.99888  0.50438  0.18834  1.0000
  H   H236      1.0  0.06498  0.48472  0.48303  1.0000
  H   H237      1.0  0.08421  0.56140  0.46074  1.0000
  H   H238      1.0  0.01238  0.49718  0.11321  1.0000
  C   C218      1.0  0.23072  0.39302  0.38777  1.0000
  H   H239      1.0  0.21576  0.35160  0.38099  1.0000
  H   H240      1.0  0.14018  0.41393  0.40974  1.0000
  C   C219      1.0  0.22049  0.42739  0.40120  1.0000
  C   C220      1.0  0.10071  0.51151  0.99091  1.0000
  H   H241      1.0  0.00382  0.38594  0.31608  1.0000
  N   N16       1.0  0.06309  0.54048  0.48591  1.0000
  H   H242      1.0  0.03543  0.42447  0.35471  1.0000
  H   H243      1.0  0.22860  0.33815  0.22015  1.0000
  C   C221      1.0  0.01077  0.33227  0.33354  1.0000
  H   H244      1.0  0.15584  0.58626  0.01204  1.0000
  H   H245      1.0  0.04615  0.48180  0.43130  1.0000
  H   H246      1.0  0.03598  0.41813  0.27064  1.0000
  C   C222      1.0  0.16225  0.42099  0.40027  1.0000
  C   C223      1.0  0.16296  0.50195  0.43534  1.0000
  C   C224      1.0  0.01757  0.48057  0.30902  1.0000
  H   H247      1.0  0.08461  0.61455  0.03014  1.0000
  H   H248      1.0  0.18087  0.60095  0.99037  1.0000
  C   C225      1.0  0.10716  0.60648  0.03109  1.0000
  H   H249      1.0  0.16314  0.41941  0.37535  1.0000
  H   H250      1.0  0.18646  0.43022  0.45300  1.0000
  H   H251      1.0  0.99593  0.54224  0.46940  1.0000
  H   H252      1.0  0.16969  0.40969  0.45635  1.0000
  H   H253      1.0  0.00833  0.49593  0.05779  1.0000
  C   C226      1.0  0.13405  0.50789  0.99660  1.0000
  C   C227      1.0  0.19099  0.41705  0.44610  1.0000
  H   H254      1.0  0.24507  0.42462  0.41072  1.0000
  C   C228      1.0  0.00430  0.48089  0.33885  1.0000
  H   H255      1.0  0.21419  0.41270  0.45651  1.0000
  H   H256      1.0  0.15694  0.43429  0.40520  1.0000
  C   C229      1.0  0.02776  0.48305  0.45010  1.0000
  C   C230      1.0  0.01951  0.52066  0.40693  1.0000
  C   C231      1.0  0.20170  0.33512  0.21836  1.0000
  C   C232      1.0  0.16409  0.51568  0.48436  1.0000
  H   H257      1.0  0.00678  0.53271  0.10909  1.0000
  C   C233      1.0  0.00334  0.43810  0.31171  1.0000
  H   H258      1.0  0.01111  0.34362  0.37700  1.0000
  C   C234      1.0  0.03759  0.62519  0.08239  1.0000
  H   H259      1.0  0.11844  0.60805  0.05321  1.0000
  C   C235      1.0  0.16197  0.59970  0.00961  1.0000
  C   C236      1.0  0.04018  0.41612  0.29502  1.0000
  C   C237      1.0  0.04443  0.64219  0.07922  1.0000
  H   H260      1.0  0.09803  0.59340  0.03129  1.0000
  N   N17       1.0  0.12608  0.48170  0.10675  1.0000
  C   C238      1.0  0.13331  0.46383  0.10187  1.0000
  C   C239      1.0  0.15358  0.49166  0.09171  1.0000
  C   C240      1.0  0.12649  0.48484  0.13966  1.0000
  C   C241      1.0  0.09371  0.48598  0.09381  1.0000
  C   C242      1.0  0.06461  0.49044  0.11195  1.0000
  C   C243      1.0  0.09028  0.48521  0.06214  1.0000
  C   C244      1.0  0.03420  0.49386  0.09896  1.0000
  C   C245      1.0  0.05982  0.48878  0.04943  1.0000
  C   C246      1.0  0.03185  0.49311  0.06778  1.0000
  H   H261      1.0  0.13561  0.46079  0.07742  1.0000
  H   H262      1.0  0.15728  0.46005  0.11165  1.0000
  H   H263      1.0  0.11296  0.45593  0.11251  1.0000
  H   H264      1.0  0.17769  0.49006  0.10279  1.0000
  H   H265      1.0  0.14735  0.50515  0.09205  1.0000
  H   H266      1.0  0.15889  0.48823  0.06771  1.0000
  H   H267      1.0  0.10816  0.47696  0.15309  1.0000
  H   H268      1.0  0.15140  0.48220  0.14874  1.0000
  H   H269      1.0  0.12092  0.49812  0.14443  1.0000
  H   H270      1.0  0.06473  0.49160  0.13621  1.0000
  C   C247      1.0  0.16296  0.51651  0.45271  1.0000
  C   C248      1.0  0.16546  0.66098  0.99855  1.0000
  H   H271      1.0  0.09337  0.52200  0.44021  1.0000
  C   C249      1.0  0.04753  0.53365  0.45918  1.0000
  H   H272      1.0  0.22336  0.42734  0.37606  1.0000
  H   H273      1.0  0.02541  0.40334  0.34951  1.0000
  H   H274      1.0  0.01749  0.52317  0.15834  1.0000
  H   H275      1.0  0.11245  0.54418  0.46405  1.0000
  H   H276      1.0  0.06883  0.64644  0.08500  1.0000
  H   H277      1.0  0.05646  0.61672  0.09032  1.0000
  H   H278      1.0  0.19440  0.33936  0.19564  1.0000
  H   H279      1.0  0.00720  0.47613  0.26266  1.0000
  C   C250      1.0  0.00530  0.56094  0.04624  1.0000
  H   H280      1.0  0.25006  0.40169  0.38023  1.0000
  H   H281      1.0  0.12043  0.63592  0.04687  1.0000
  H   H282      1.0  0.16397  0.35950  0.41014  1.0000
  H   H283      1.0  0.18776  0.34282  0.23567  1.0000
  C   C251      1.0  0.01585  0.41617  0.34616  1.0000
  C   C252      1.0  0.14618  0.65566  0.02393  1.0000
  H   H284      1.0  0.02416  0.44550  0.32035  1.0000
  H   H285      1.0  0.15414  0.38827  0.42519  1.0000
  H   H286      1.0  0.06157  0.42411  0.30067  1.0000
  C   C253      1.0  0.02014  0.65358  0.06915  1.0000
  C   C254      1.0  0.16611  0.48548  0.48103  1.0000
  H   H287      1.0  0.00099  0.44218  0.28782  1.0000
  H   H288      1.0  0.00194  0.54795  0.13880  1.0000
  H   H289      1.0  0.99722  0.52117  0.02232  1.0000
  H   H290      1.0  0.00124  0.60583  0.07802  1.0000
  C   C255      1.0  0.00641  0.61904  0.07563  1.0000
  C   C256      1.0  0.99937  0.52934  0.42805  1.0000
  H   H291      1.0  0.00898  0.51571  0.38688  1.0000
  H   H292      1.0  0.03772  0.33055  0.33162  1.0000
  C   C257      1.0  0.99498  0.51664  0.16616  1.0000
  C   C258      1.0  0.99565  0.33951  0.35921  1.0000
  Fe  Fe33      1.0  0.16599  0.56736  0.60227  1.0000
  S   S64       1.0  0.12524  0.55717  0.63451  1.0000
  S   S65       1.0  0.19296  0.59136  0.61376  1.0000
  Fe  Fe34      1.0  0.15557  0.54028  0.55493  1.0000
  S   S66       1.0  0.11414  0.52861  0.58359  1.0000
  H   H293      1.0  0.00471  0.50862  0.56750  1.0000
  Fe  Fe35      1.0  0.09652  0.55450  0.59308  1.0000
  S   S67       1.0  0.04386  0.56417  0.59249  1.0000
  Fe  Fe36      1.0  0.14613  0.53183  0.62343  1.0000
  S   S68       1.0  0.13640  0.50922  0.65465  1.0000
  S   S69       1.0  0.13538  0.56622  0.56170  1.0000
  S   S70       1.0  0.18980  0.54198  0.59376  1.0000
  Fe  Fe37      1.0  0.10656  0.46896  0.87671  1.0000
  S   S71       1.0  0.15848  0.46032  0.86159  1.0000
  S   S72       1.0  0.08367  0.48428  0.91616  1.0000
  Fe  Fe38      1.0  0.07747  0.45471  0.81990  1.0000
  S   S73       1.0  0.12650  0.44507  0.80046  1.0000
  S   S74       1.0  0.03240  0.45463  0.79185  1.0000
  Fe  Fe39      1.0  0.13417  0.43621  0.84795  1.0000
  S   S75       1.0  0.15724  0.41091  0.85986  1.0000
  Fe  Fe40      1.0  0.14659  0.46959  0.81492  1.0000
  S   S76       1.0  0.18117  0.48575  0.78453  1.0000
  S   S77       1.0  0.08320  0.44429  0.86658  1.0000
  S   S78       1.0  0.09692  0.47977  0.83096  1.0000
  H   H294      1.0  0.08795  0.53132  0.52458  1.0000
  C   C259      1.0  0.22426  0.62718  0.53680  1.0000
  H   H295      1.0  0.02163  0.47202  0.85215  1.0000
  C   C260      1.0  0.99762  0.48402  0.72629  1.0000
  C   C261      1.0  0.14979  0.39043  0.84643  1.0000
  C   C262      1.0  0.13333  0.38756  0.81991  1.0000
  C   C263      1.0  0.12990  0.37117  0.80924  1.0000
  C   C264      1.0  0.14233  0.35738  0.82510  1.0000
  C   C265      1.0  0.15820  0.36023  0.85190  1.0000
  C   C266      1.0  0.16216  0.37664  0.86226  1.0000
  H   H296      1.0  0.12372  0.39797  0.80737  1.0000
  H   H297      1.0  0.11765  0.36919  0.78845  1.0000
  H   H298      1.0  0.16811  0.34985  0.86434  1.0000
  H   H299      1.0  0.17506  0.37865  0.88272  1.0000
  H   H300      1.0  0.01845  0.54325  0.51526  1.0000
  H   H301      1.0  0.04727  0.52870  0.58212  1.0000
  H   H302      1.0  0.03014  0.56155  0.49290  1.0000
  C   C267      1.0  0.15220  0.49703  0.97713  1.0000
  H   H303      1.0  0.02139  0.50605  0.91095  1.0000
  H   H304      1.0  0.05922  0.35000  0.82991  1.0000
  C   C268      1.0  0.10401  0.49339  0.94662  1.0000
  C   C269      1.0  0.13738  0.48989  0.95221  1.0000
  H   H305      1.0  0.00487  0.54053  0.67451  1.0000
  H   H306      1.0  0.03559  0.49929  0.82614  1.0000
  H   H307      1.0  0.06410  0.49682  0.65817  1.0000
  H   H308      1.0  0.15174  0.48158  0.93746  1.0000
  H   H309      1.0  0.16604  0.49922  0.52283  1.0000
  C   C270      1.0  0.14838  0.50386  0.69155  1.0000
  C   C271      1.0  0.13092  0.49101  0.70737  1.0000
  C   C272      1.0  0.13988  0.48585  0.73631  1.0000
  C   C273      1.0  0.16718  0.49314  0.74944  1.0000
  C   C274      1.0  0.18472  0.50598  0.73363  1.0000
  C   C275      1.0  0.17513  0.51148  0.70497  1.0000
  H   H310      1.0  0.11051  0.48485  0.69708  1.0000
  H   H311      1.0  0.12638  0.47583  0.74805  1.0000
  H   H312      1.0  0.20591  0.51168  0.74355  1.0000
  H   H313      1.0  0.18893  0.52132  0.69301  1.0000
  C   C276      1.0  0.17785  0.61150  0.60429  1.0000
  C   C277      1.0  0.15396  0.61372  0.58273  1.0000
  C   C278      1.0  0.14396  0.62985  0.57431  1.0000
  C   C279      1.0  0.15714  0.64400  0.58767  1.0000
  C   C280      1.0  0.18090  0.64184  0.60938  1.0000
  C   C281      1.0  0.19127  0.62566  0.61753  1.0000
  H   H314      1.0  0.14363  0.60301  0.57212  1.0000
  H   H315      1.0  0.12587  0.63132  0.55723  1.0000
  H   H316      1.0  0.19135  0.65258  0.61984  1.0000
  H   H317      1.0  0.20990  0.62409  0.63412  1.0000
  C   C282      1.0  0.01486  0.48637  0.50339  1.0000
  H   H318      1.0  0.05425  0.51845  0.51317  1.0000
  C   C283      1.0  0.00624  0.47858  0.87003  1.0000
  H   H319      1.0  0.08120  0.64559  0.59131  1.0000
  C   C284      1.0  0.02771  0.64888  0.58586  1.0000
  H   H320      1.0  0.07865  0.61576  0.60179  1.0000
  H   H321      1.0  0.17799  0.49414  0.98128  1.0000
  H   H322      1.0  0.01693  0.51777  0.84210  1.0000
  C   C285      1.0  0.24429  0.65607  0.53487  1.0000
  C   C286      1.0  0.07524  0.52661  0.50472  1.0000
  C   C287      1.0  0.01809  0.53230  0.65773  1.0000
  H   H323      1.0  0.00025  0.52846  0.64073  1.0000
  C   C288      1.0  0.99825  0.52160  0.57023  1.0000
  H   H324      1.0  0.02223  0.47966  0.88957  1.0000
  N   N18       1.0  0.22615  0.43492  0.78000  1.0000
  C   C289      1.0  0.22414  0.44811  0.80315  1.0000
  C   C290      1.0  0.21058  0.41969  0.79394  1.0000
  C   C291      1.0  0.26191  0.43117  0.77234  1.0000
  C   C292      1.0  0.20993  0.44080  0.75254  1.0000
  C   C293      1.0  0.22132  0.45551  0.73722  1.0000
  C   C294      1.0  0.18255  0.43238  0.74038  1.0000
  C   C295      1.0  0.20605  0.46154  0.71167  1.0000
  C   C296      1.0  0.16736  0.43858  0.71486  1.0000
  C   C297      1.0  0.17904  0.45314  0.70059  1.0000
  H   H325      1.0  0.23361  0.44382  0.82508  1.0000
  H   H326      1.0  0.23859  0.45944  0.79613  1.0000
  H   H327      1.0  0.19785  0.45221  0.80756  1.0000
  H   H328      1.0  0.18374  0.42176  0.80084  1.0000
  H   H329      1.0  0.22262  0.41581  0.81501  1.0000
  H   H330      1.0  0.21252  0.40893  0.77844  1.0000
  H   H331      1.0  0.27608  0.44238  0.76419  1.0000
  H   H332      1.0  0.27468  0.42629  0.79234  1.0000
  H   H333      1.0  0.26450  0.42169  0.75425  1.0000
  H   H334      1.0  0.24143  0.46283  0.74547  1.0000
  H   H335      1.0  0.17182  0.42121  0.75057  1.0000
  H   H336      1.0  0.21435  0.47317  0.70110  1.0000
  H   H337      1.0  0.14594  0.43225  0.70645  1.0000
  H   H338      1.0  0.16670  0.45818  0.68131  1.0000
  H   H339      1.0  0.04433  0.50496  0.86346  1.0000
  C   C298      1.0  0.01400  0.54972  0.58246  1.0000
  H   H340      1.0  0.06790  0.51459  0.63398  1.0000
  H   H341      1.0  0.02653  0.35180  0.80381  1.0000
  H   H342      1.0  0.20526  0.64579  0.50801  1.0000
  H   H343      1.0  0.04853  0.53133  0.71119  1.0000
  C   C299      1.0  0.99775  0.43965  0.83979  1.0000
  H   H344      1.0  0.13406  0.60446  0.95744  1.0000
  C   C300      1.0  0.05582  0.62254  0.59759  1.0000
  C   C301      1.0  0.11610  0.60462  0.97745  1.0000
  C   C302      1.0  0.05972  0.52423  0.69176  1.0000
  S   S79       1.0  0.13866  0.33705  0.80966  1.0000
  C   C303      1.0  0.22321  0.64332  0.52482  1.0000
  H   H345      1.0  0.10622  0.59167  0.97973  1.0000
  C   C304      1.0  0.99604  0.62280  0.59308  1.0000
  N   N19       1.0  0.03344  0.51773  0.67264  1.0000
  C   C305      1.0  0.02242  0.53298  0.57846  1.0000
  C   C306      1.0  0.02400  0.50470  0.84727  1.0000
  H   H346      1.0  0.03730  0.54011  0.64508  1.0000
  H   H347      1.0  0.07761  0.53257  0.67866  1.0000
  C   C307      1.0  0.26644  0.65162  0.55769  1.0000
  H   H348      1.0  0.00686  0.47393  0.74008  1.0000
  H   H349      1.0  0.03081  0.50196  0.63398  1.0000
  H   H350      1.0  0.07571  0.51425  0.70083  1.0000
  H   H351      1.0  0.28315  0.66043  0.56709  1.0000
  H   H352      1.0  0.09402  0.51874  0.49215  1.0000
  C   C308      1.0  0.08575  0.50421  0.96618  1.0000
  C   C309      1.0  0.24619  0.62323  0.55910  1.0000
  C   C310      1.0  0.04964  0.50730  0.64867  1.0000
  C   C311      1.0  0.99696  0.63994  0.58708  1.0000
  C   C312      1.0  0.05701  0.63964  0.59155  1.0000
  H   H353      1.0  0.05992  0.50702  0.96213  1.0000
  H   H354      1.0  0.02161  0.43610  0.84789  1.0000
  C   C313      1.0  0.00901  0.50745  0.69102  1.0000
  H   H355      1.0  0.01104  0.33772  0.88288  1.0000
  H   H356      1.0  0.05271  0.55580  0.52509  1.0000
  H   H357      1.0  0.18095  0.33464  0.73530  1.0000
  H   H358      1.0  0.02470  0.60081  0.60269  1.0000
  C   C314      1.0  0.26718  0.63542  0.56955  1.0000
  H   H359      1.0  0.20732  0.61772  0.52943  1.0000
  H   H360      1.0  0.04656  0.49130  0.71036  1.0000
  H   H361      1.0  0.00633  0.47720  0.96551  1.0000
  C   C315      1.0  0.16501  0.50006  0.49853  1.0000
  H   H362      1.0  0.24619  0.61079  0.56892  1.0000
  C   C316      1.0  0.99602  0.44781  0.81191  1.0000
  H   H363      1.0  0.02313  0.48764  0.52611  1.0000
  C   C317      1.0  0.03168  0.34863  0.82763  1.0000
  S   S80       1.0  0.16455  0.53460  0.50469  1.0000
  H   H364      1.0  0.09478  0.61290  0.97223  1.0000
  H   H365      1.0  0.01971  0.35828  0.84233  1.0000
  C   C318      1.0  0.03993  0.55070  0.50547  1.0000
  H   H366      1.0  0.28370  0.63229  0.58736  1.0000
  C   C319      1.0  0.02542  0.61411  0.59819  1.0000
  C   C320      1.0  0.02021  0.49416  0.70932  1.0000
  H   H367      1.0  0.16804  0.47348  0.49209  1.0000
  H   H368      1.0  0.10370  0.55695  0.49566  1.0000
  C   C321      1.0  0.16199  0.63346  0.97744  1.0000
  N   N20       1.0  0.01991  0.33156  0.83577  1.0000
  H   H369      1.0  0.16994  0.62520  0.95938  1.0000
  H   H370      1.0  0.04109  0.66279  0.53117  1.0000
  C   C322      1.0  0.99510  0.50904  0.90947  1.0000
  H   H371      1.0  0.18893  0.65400  0.95584  1.0000
  C   C323      1.0  0.17330  0.64991  0.97530  1.0000
  Fe  Fe41      1.0  0.37734  0.96460  0.32617  1.0000
  S   S81       1.0  0.36168  0.95071  0.36876  1.0000
  S   S82       1.0  0.42919  0.97051  0.30708  1.0000
  Fe  Fe42      1.0  0.30760  0.96879  0.30647  1.0000
  S   S83       1.0  0.28522  0.95556  0.34835  1.0000
  S   S84       1.0  0.27830  0.97596  0.26528  1.0000
  Fe  Fe43      1.0  0.32170  0.97035  0.37460  1.0000
  S   S85       1.0  0.31052  0.97673  0.42464  1.0000
  Fe  Fe44      1.0  0.32638  0.93662  0.34089  1.0000
  S   S86       1.0  0.31756  0.90923  0.35472  1.0000
  S   S87       1.0  0.34006  0.98526  0.33333  1.0000
  S   S88       1.0  0.34616  0.94879  0.29757  1.0000
  Fe  Fe45      1.0  0.14179  0.69195  0.09669  1.0000
  S   S89       1.0  0.11094  0.71069  0.12379  1.0000
  H   H372      1.0  0.26381  0.74880  0.03616  1.0000
  Fe  Fe46      1.0  0.17409  0.71964  0.05539  1.0000
  S   S90       1.0  0.14435  0.73967  0.07956  1.0000
  H   H373      1.0  0.17092  0.74998  0.99193  1.0000
  Fe  Fe47      1.0  0.15782  0.72651  0.12272  1.0000
  S   S91       1.0  0.17066  0.74277  0.16330  1.0000
  Fe  Fe48      1.0  0.10011  0.72215  0.07907  1.0000
  S   S92       1.0  0.04883  0.72907  0.06160  1.0000
  S   S93       1.0  0.18941  0.70693  0.09868  1.0000
  S   S94       1.0  0.12927  0.70299  0.05182  1.0000
  Fe  Fe49      1.0  0.30581  0.80967  0.31846  1.0000
  S   S95       1.0  0.31913  0.80002  0.36419  1.0000
  S   S96       1.0  0.30667  0.83640  0.29934  1.0000
  Fe  Fe50      1.0  0.29947  0.77430  0.29255  1.0000
  S   S97       1.0  0.31455  0.76232  0.33627  1.0000
  S   S98       1.0  0.28972  0.75776  0.25152  1.0000
  Fe  Fe51      1.0  0.27926  0.78042  0.35969  1.0000
  S   S99       1.0  0.23698  0.77189  0.39407  1.0000
  Fe  Fe52      1.0  0.35383  0.78245  0.33800  1.0000
  S   S100      1.0  0.40539  0.77862  0.35761  1.0000
  S   S101      1.0  0.26265  0.79171  0.31571  1.0000
  S   S102      1.0  0.34205  0.79281  0.29253  1.0000
  C   C324      1.0  0.44811  0.78041  0.34390  1.0000
  C   C325      1.0  0.45738  0.78463  0.31387  1.0000
  H   H374      1.0  0.40152  0.99119  0.15906  1.0000
  C   C326      1.0  0.19893  0.74774  0.47049  1.0000
  H   H375      1.0  0.43824  0.78651  0.29790  1.0000
  H   H376      1.0  0.46679  0.77434  0.38738  1.0000
  C   C327      1.0  0.05900  0.67357  0.04531  1.0000
  C   C328      1.0  0.31704  0.99465  0.44685  1.0000
  C   C329      1.0  0.99921  0.71809  0.10409  1.0000
  H   H377      1.0  0.01898  0.71605  0.11942  1.0000
  C   C330      1.0  0.44891  0.90210  0.35326  1.0000
  H   H378      1.0  0.21771  0.76748  0.13398  1.0000
  C   C331      1.0  0.20253  0.75701  0.44314  1.0000
  C   C332      1.0  0.23432  0.76013  0.42878  1.0000
  C   C333      1.0  0.26254  0.75376  0.44229  1.0000
  C   C334      1.0  0.25897  0.74460  0.46977  1.0000
  C   C335      1.0  0.03480  0.67857  0.09536  1.0000
  H   H379      1.0  0.18045  0.76187  0.43306  1.0000
  H   H380      1.0  0.28719  0.75599  0.43170  1.0000
  H   H381      1.0  0.04325  0.69173  0.09313  1.0000
  C   C336      1.0  0.20414  0.74652  0.18770  1.0000
  C   C337      1.0  0.23513  0.73840  0.18455  1.0000
  C   C338      1.0  0.26092  0.74216  0.20401  1.0000
  C   C339      1.0  0.25636  0.75410  0.22692  1.0000
  C   C340      1.0  0.22536  0.76222  0.23009  1.0000
  C   C341      1.0  0.19954  0.75843  0.21068  1.0000
  H   H382      1.0  0.23927  0.72920  0.16714  1.0000
  H   H383      1.0  0.28465  0.73571  0.20129  1.0000
  H   H384      1.0  0.22127  0.77151  0.24734  1.0000
  H   H385      1.0  0.17582  0.76490  0.21333  1.0000
  C   C342      1.0  0.45811  0.97215  0.33503  1.0000
  C   C343      1.0  0.21930  0.76579  0.06943  1.0000
  C   C344      1.0  0.47359  0.77767  0.36413  1.0000
  C   C345      1.0  0.44844  0.96910  0.36539  1.0000
  H   H386      1.0  0.17495  0.67362  0.99726  1.0000
  H   H387      1.0  0.42263  0.96661  0.37204  1.0000
  C   C346      1.0  0.45976  0.92629  0.32109  1.0000
  H   H388      1.0  0.41244  0.85917  0.34217  1.0000
  H   H389      1.0  0.38964  0.81425  0.34993  1.0000
  H   H390      1.0  0.28083  0.76879  0.04296  1.0000
  H   H391      1.0  0.26144  0.98279  0.20372  1.0000
  H   H392      1.0  0.23912  0.78328  0.17520  1.0000
  C   C347      1.0  0.31657  0.88905  0.33864  1.0000
  C   C348      1.0  0.31938  0.88648  0.30744  1.0000
  C   C349      1.0  0.31618  0.87030  0.29592  1.0000
  C   C350      1.0  0.31073  0.85645  0.31535  1.0000
  C   C351      1.0  0.30894  0.85897  0.34655  1.0000
  C   C352      1.0  0.31167  0.87517  0.35805  1.0000
  H   H393      1.0  0.32323  0.89696  0.29217  1.0000
  H   H394      1.0  0.31767  0.86851  0.27173  1.0000
  H   H395      1.0  0.30470  0.84850  0.36184  1.0000
  H   H396      1.0  0.30941  0.87701  0.38223  1.0000
  H   H397      1.0  0.39778  0.89315  0.35494  1.0000
  C   C353      1.0  0.42667  0.92596  0.31265  1.0000
  H   H398      1.0  0.37882  0.91395  0.31839  1.0000
  S   S103      1.0  0.12538  0.66520  0.10824  1.0000
  H   H399      1.0  0.45565  0.89275  0.36949  1.0000
  H   H400      1.0  0.26543  0.73619  0.10345  1.0000
  H   H401      1.0  0.08173  0.66878  0.05585  1.0000
  H   H402      1.0  0.22348  0.77872  0.06086  1.0000
  C   C354      1.0  0.44733  0.83130  0.33025  1.0000
  C   C355      1.0  0.25499  0.78130  0.15491  1.0000
  N   N21       1.0  0.41195  0.83457  0.32377  1.0000
  H   H403      1.0  0.37752  0.82845  0.28975  1.0000
  H   H404      1.0  0.39089  0.83377  0.36975  1.0000
  H   H405      1.0  0.43874  0.81771  0.37341  1.0000
  H   H406      1.0  0.42146  0.85850  0.30200  1.0000
  C   C356      1.0  0.40628  0.85275  0.32110  1.0000
  C   C357      1.0  0.40427  0.82666  0.29490  1.0000
  H   H407      1.0  0.41939  0.83183  0.27524  1.0000
  C   C358      1.0  0.29634  0.77567  0.10312  1.0000
  C   C359      1.0  0.00692  0.72480  0.07527  1.0000
  H   H408      1.0  0.20969  0.75838  0.05063  1.0000
  H   H409      1.0  0.42870  0.99453  0.41506  1.0000
  N   N22       1.0  0.23978  0.92564  0.27761  1.0000
  C   C360      1.0  0.22316  0.93615  0.30137  1.0000
  C   C361      1.0  0.27647  0.92788  0.27814  1.0000
  C   C362      1.0  0.22931  0.93204  0.24797  1.0000
  C   C363      1.0  0.23179  0.90788  0.28338  1.0000
  C   C364      1.0  0.23867  0.90030  0.31148  1.0000
  C   C365      1.0  0.21920  0.89737  0.26106  1.0000
  C   C366      1.0  0.23363  0.88331  0.31680  1.0000
  C   C367      1.0  0.21437  0.88035  0.26662  1.0000
  C   C368      1.0  0.22181  0.87332  0.29434  1.0000
  H   H410      1.0  0.23211  0.93344  0.32419  1.0000
  H   H411      1.0  0.22833  0.94964  0.29710  1.0000
  H   H412      1.0  0.19554  0.93436  0.30251  1.0000
  H   H413      1.0  0.28593  0.92494  0.30073  1.0000
  H   H414      1.0  0.28383  0.94093  0.27250  1.0000
  H   H415      1.0  0.29008  0.91972  0.26149  1.0000
  H   H416      1.0  0.20185  0.93065  0.24594  1.0000
  H   H417      1.0  0.23509  0.94557  0.24490  1.0000
  H   H418      1.0  0.24295  0.92571  0.22877  1.0000
  H   H419      1.0  0.24927  0.90732  0.32928  1.0000
  H   H420      1.0  0.21341  0.90193  0.23896  1.0000
  H   H421      1.0  0.24002  0.87776  0.33817  1.0000
  H   H422      1.0  0.20532  0.87247  0.24916  1.0000
  H   H423      1.0  0.21892  0.86005  0.29832  1.0000
  H   H424      1.0  0.29691  0.79417  0.17185  1.0000
  S   S104      1.0  0.21486  0.72435  0.01730  1.0000
  H   H425      1.0  0.33347  0.78953  0.12580  1.0000
  N   N23       1.0  0.21678  0.73561  0.31742  1.0000
  C   C369      1.0  0.21444  0.75384  0.31293  1.0000
  C   C370      1.0  0.24856  0.73175  0.33190  1.0000
  C   C371      1.0  0.21883  0.72781  0.28712  1.0000
  C   C372      1.0  0.18775  0.72990  0.33703  1.0000
  C   C373      1.0  0.18427  0.73483  0.36769  1.0000
  C   C374      1.0  0.16176  0.71986  0.32634  1.0000
  C   C375      1.0  0.15704  0.72972  0.38667  1.0000
  C   C376      1.0  0.13455  0.71483  0.34552  1.0000
  C   C377      1.0  0.13225  0.71971  0.37563  1.0000
  H   H426      1.0  0.21494  0.76067  0.33460  1.0000
  H   H427      1.0  0.23575  0.75862  0.29811  1.0000
  H   H428      1.0  0.19089  0.75736  0.30222  1.0000
  H   H429      1.0  0.27087  0.73470  0.31654  1.0000
  H   H430      1.0  0.24997  0.71835  0.33826  1.0000
  H   H431      1.0  0.25171  0.73917  0.35258  1.0000
  H   H432      1.0  0.19764  0.73166  0.27332  1.0000
  H   H433      1.0  0.24196  0.73161  0.27364  1.0000
  H   H434      1.0  0.21960  0.71401  0.28893  1.0000
  H   H435      1.0  0.20245  0.74285  0.37719  1.0000
  H   H436      1.0  0.16175  0.71580  0.30321  1.0000
  H   H437      1.0  0.15514  0.73368  0.41002  1.0000
  H   H438      1.0  0.11502  0.70717  0.33693  1.0000
  H   H439      1.0  0.11109  0.71585  0.39040  1.0000
  C   C378      1.0  0.30811  0.78473  0.12713  1.0000
  C   C379      1.0  0.26333  0.76903  0.10454  1.0000
  C   C380      1.0  0.46600  0.99587  0.22832  1.0000
  H   H440      1.0  0.41796  0.99424  0.21111  1.0000
  C   C381      1.0  0.38753  0.82801  0.34745  1.0000
  H   H441      1.0  0.31370  0.77390  0.08390  1.0000
  C   C382      1.0  0.47243  0.96888  0.38721  1.0000
  H   H442      1.0  0.40901  0.81303  0.29590  1.0000
  H   H443      1.0  0.36119  0.83061  0.34181  1.0000
  N   N24       1.0  0.25055  0.75853  0.08052  1.0000
  C   C383      1.0  0.24296  0.77227  0.13109  1.0000
  H   H444      1.0  0.37968  0.85564  0.31694  1.0000
  C   C384      1.0  0.28756  0.78743  0.15304  1.0000
  H   H445      1.0  0.23542  0.73306  0.07545  1.0000
  C   C385      1.0  0.40465  0.91390  0.32454  1.0000
  C   C386      1.0  0.41560  0.90208  0.34500  1.0000
  C   C387      1.0  0.49052  0.81988  0.36198  1.0000
  H   H446      1.0  0.29789  0.75020  0.06012  1.0000
  C   C388      1.0  0.24313  0.74171  0.09316  1.0000
  H   H447      1.0  0.22241  0.74182  0.11100  1.0000
  H   H448      1.0  0.41791  0.93543  0.29733  1.0000
  C   C389      1.0  0.47213  0.91420  0.34126  1.0000
  C   C390      1.0  0.23614  0.98527  0.47634  1.0000
  H   H449      1.0  0.19864  0.76614  0.08727  1.0000
  H   H450      1.0  0.27613  0.66710  0.48391  1.0000
  H   H451      1.0  0.45918  0.98772  0.24744  1.0000
  C   C391      1.0  0.29297  0.99132  0.23826  1.0000
  H   H452      1.0  0.25077  0.68533  0.47842  1.0000
  H   H453      1.0  0.46508  0.96577  0.41046  1.0000
  C   C392      1.0  0.49157  0.78626  0.30440  1.0000
  C   C393      1.0  0.27451  0.75658  0.05391  1.0000
  H   H454      1.0  0.32379  0.98015  0.48728  1.0000
  N   N25       1.0  0.02837  0.67148  0.06552  1.0000
  C   C394      1.0  0.49156  0.97577  0.32669  1.0000
  C   C395      1.0  0.27977  0.99192  0.20944  1.0000
  H   H455      1.0  0.49426  0.93167  0.38606  1.0000
  H   H456      1.0  0.47535  0.93638  0.31212  1.0000
  C   C396      1.0  0.47365  0.83669  0.30957  1.0000
  H   H457      1.0  0.06422  0.68694  0.04004  1.0000
  H   H458      1.0  0.23687  0.98043  0.45356  1.0000
  H   H459      1.0  0.05491  0.67182  0.10681  1.0000
  C   C397      1.0  0.45682  0.82276  0.35674  1.0000
  H   H460      1.0  0.01194  0.67818  0.11087  1.0000
  C   C398      1.0  0.22720  0.74156  0.48420  1.0000
  C   C399      1.0  0.32187  0.99258  0.47793  1.0000
  H   H461      1.0  0.23259  0.66516  0.47673  1.0000
  H   H462      1.0  0.05658  0.66707  0.02355  1.0000
  H   H463      1.0  0.46840  0.84316  0.28886  1.0000
  H   H464      1.0  0.28110  0.73991  0.47997  1.0000
  H   H465      1.0  0.14133  0.66414  0.04250  1.0000
  H   H466      1.0  0.17429  0.74555  0.48112  1.0000
  H   H467      1.0  0.48653  0.99516  0.42870  1.0000
  H   H468      1.0  0.00906  0.69468  0.04860  1.0000
  H   H469      1.0  0.99505  0.67674  0.02990  1.0000
  C   C400      1.0  0.00138  0.68149  0.05233  1.0000
  Fe  Fe53      1.0  0.36741  0.94813  0.81150  1.0000
  S   S105      1.0  0.35517  0.94180  0.86014  1.0000
  S   S106      1.0  0.41712  0.94064  0.79036  1.0000
  Fe  Fe54      1.0  0.29919  0.96255  0.80108  1.0000
  S   S107      1.0  0.28067  0.95682  0.84926  1.0000
  S   S108      1.0  0.26209  0.97479  0.77046  1.0000
  Fe  Fe55      1.0  0.33020  0.96691  0.86248  1.0000
  C   C401      1.0  0.01254  0.72205  0.57173  1.0000
  Fe  Fe56      1.0  0.30712  0.93207  0.84309  1.0000
  S   S109      1.0  0.28565  0.90764  0.86271  1.0000
  S   S110      1.0  0.34687  0.97404  0.81451  1.0000
  S   S111      1.0  0.32118  0.93699  0.79405  1.0000
  Fe  Fe57      1.0  0.15145  0.69138  0.58607  1.0000
  S   S112      1.0  0.11659  0.70639  0.61694  1.0000
  N   N26       1.0  0.23314  0.76873  0.60403  1.0000
  Fe  Fe58      1.0  0.18082  0.72293  0.55308  1.0000
  S   S113      1.0  0.14706  0.73981  0.58132  1.0000
  H   H470      1.0  0.21137  0.74459  0.61145  1.0000
  Fe  Fe59      1.0  0.16079  0.72385  0.62125  1.0000
  S   S114      1.0  0.17007  0.73778  0.66549  1.0000
  Fe  Fe60      1.0  0.10554  0.72121  0.57544  1.0000
  S   S115      1.0  0.05405  0.72646  0.55697  1.0000
  S   S116      1.0  0.19643  0.70763  0.59322  1.0000
  S   S117      1.0  0.13867  0.70567  0.54432  1.0000
  Fe  Fe61      1.0  0.29427  0.80925  0.82071  1.0000
  S   S118      1.0  0.30974  0.80088  0.86630  1.0000
  S   S119      1.0  0.29269  0.83594  0.80225  1.0000
  Fe  Fe62      1.0  0.29238  0.77331  0.79671  1.0000
  S   S120      1.0  0.30981  0.76263  0.84086  1.0000
  S   S121      1.0  0.28475  0.75587  0.75636  1.0000
  Fe  Fe63      1.0  0.27237  0.78002  0.86364  1.0000
  S   S122      1.0  0.23209  0.77311  0.90112  1.0000
  Fe  Fe64      1.0  0.34643  0.78414  0.84050  1.0000
  S   S123      1.0  0.39889  0.78512  0.85924  1.0000
  S   S124      1.0  0.25351  0.78989  0.81942  1.0000
  S   S125      1.0  0.33223  0.79331  0.79494  1.0000
  C   C402      1.0  0.44106  0.78402  0.84373  1.0000
  C   C403      1.0  0.44897  0.78190  0.81287  1.0000
  H   H471      1.0  0.16354  0.71016  0.82327  1.0000
  C   C404      1.0  0.23557  0.75035  0.60347  1.0000
  H   H472      1.0  0.42904  0.78074  0.79752  1.0000
  H   H473      1.0  0.18966  0.72637  0.92687  1.0000
  C   C405      1.0  0.23596  0.99362  0.72611  1.0000
  H   H474      1.0  0.12961  0.69984  0.86650  1.0000
  H   H475      1.0  0.31961  0.99107  0.73496  1.0000
  H   H476      1.0  0.02540  0.71677  0.61735  1.0000
  C   C406      1.0  0.37829  0.88596  0.84427  1.0000
  N   N27       1.0  0.03002  0.66690  0.57855  1.0000
  C   C407      1.0  0.25395  0.74887  0.94174  1.0000
  C   C408      1.0  0.22863  0.75995  0.93409  1.0000
  C   C409      1.0  0.19875  0.76021  0.95258  1.0000
  H   H477      1.0  0.36089  0.89438  0.85600  1.0000
  C   C410      1.0  0.23463  0.98061  0.53044  1.0000
  H   H478      1.0  0.27706  0.74842  0.92786  1.0000
  H   H479      1.0  0.17886  0.76864  0.94692  1.0000
  C   C411      1.0  0.40248  0.89235  0.82351  1.0000
  C   C412      1.0  0.20270  0.74274  0.69010  1.0000
  C   C413      1.0  0.23486  0.73582  0.68699  1.0000
  C   C414      1.0  0.25960  0.74019  0.70713  1.0000
  C   C415      1.0  0.25289  0.75169  0.73049  1.0000
  C   C416      1.0  0.22087  0.75880  0.73331  1.0000
  C   C417      1.0  0.19604  0.75429  0.71339  1.0000
  H   H480      1.0  0.24054  0.72687  0.66943  1.0000
  H   H481      1.0  0.28413  0.73449  0.70474  1.0000
  H   H482      1.0  0.21510  0.76767  0.75098  1.0000
  H   H483      1.0  0.17138  0.75983  0.71604  1.0000
  C   C418      1.0  0.44885  0.95019  0.80937  1.0000
  C   C419      1.0  0.42466  0.88162  0.80815  1.0000
  C   C420      1.0  0.46816  0.97295  0.83920  1.0000
  C   C421      1.0  0.44207  0.96454  0.82614  1.0000
  H   H484      1.0  0.36571  0.83503  0.80345  1.0000
  H   H485      1.0  0.41689  0.96940  0.82849  1.0000
  H   H486      1.0  0.25492  0.74558  0.61849  1.0000
  C   C422      1.0  0.37152  0.83410  0.86380  1.0000
  C   C423      1.0  0.26579  0.98862  0.73861  1.0000
  C   C424      1.0  0.29569  0.98601  0.94516  1.0000
  C   C425      1.0  0.28197  0.99185  0.97316  1.0000
  H   H487      1.0  0.19103  0.77501  0.50836  1.0000
  C   C426      1.0  0.29058  0.88768  0.84615  1.0000
  C   C427      1.0  0.30027  0.88577  0.81558  1.0000
  C   C428      1.0  0.30152  0.86980  0.80279  1.0000
  C   C429      1.0  0.29369  0.85552  0.82042  1.0000
  C   C430      1.0  0.28506  0.85736  0.85123  1.0000
  C   C431      1.0  0.28329  0.87338  0.86393  1.0000
  H   H488      1.0  0.30625  0.89658  0.80162  1.0000
  H   H489      1.0  0.30823  0.86852  0.77895  1.0000
  H   H490      1.0  0.27864  0.84653  0.86503  1.0000
  H   H491      1.0  0.27572  0.87472  0.88759  1.0000
  H   H492      1.0  0.13814  0.78766  0.52851  1.0000
  H   H493      1.0  0.12830  0.79163  0.58352  1.0000
  H   H494      1.0  0.20614  0.69283  0.51850  1.0000
  C   C432      1.0  0.48147  0.94391  0.80661  1.0000
  C   C433      1.0  0.43025  0.83333  0.85014  1.0000
  H   H495      1.0  0.44047  0.85664  0.80100  1.0000
  H   H496      1.0  0.07156  0.67169  0.60668  1.0000
  H   H497      1.0  0.03063  0.67400  0.62519  1.0000
  H   H498      1.0  0.26349  0.69777  0.52490  1.0000
  C   C434      1.0  0.42278  0.86445  0.81355  1.0000
  H   H499      1.0  0.16998  0.78344  0.61830  1.0000
  C   C435      1.0  0.25087  0.67263  0.48880  1.0000
  H   H500      1.0  0.34581  0.83709  0.85688  1.0000
  H   H501      1.0  0.26454  0.78963  0.59135  1.0000
  C   C436      1.0  0.37607  0.86881  0.84977  1.0000
  H   H502      1.0  0.35632  0.86478  0.86578  1.0000
  N   N28       1.0  0.39739  0.83928  0.84022  1.0000
  S   S126      1.0  0.22453  0.73010  0.51923  1.0000
  H   H503      1.0  0.27551  0.77088  0.57147  1.0000
  H   H504      1.0  0.23299  0.97171  0.54890  1.0000
  H   H505      1.0  0.28579  0.77290  0.60971  1.0000
  C   C437      1.0  0.26913  0.99550  0.58134  1.0000
  C   C438      1.0  0.45706  0.99079  0.93445  1.0000
  C   C439      1.0  0.22637  0.77375  0.63596  1.0000
  H   H506      1.0  0.26488  0.98197  0.58480  1.0000
  C   C440      1.0  0.18699  0.77692  0.53245  1.0000
  C   C441      1.0  0.21136  0.77190  0.55206  1.0000
  H   H507      1.0  0.26002  0.68648  0.55975  1.0000
  H   H508      1.0  0.47112  0.97348  0.76564  1.0000
  H   H509      1.0  0.40396  0.90567  0.81924  1.0000
  H   H510      1.0  0.27891  0.99212  0.82420  1.0000
  H   H511      1.0  0.40659  0.98117  0.93574  1.0000
  H   H512      1.0  0.24650  0.76953  0.65071  1.0000
  H   H513      1.0  0.22429  0.78749  0.63800  1.0000
  H   H514      1.0  0.28372  0.97595  0.93394  1.0000
  H   H515      1.0  0.46295  0.98428  0.85148  1.0000
  H   H516      1.0  0.20294  0.76802  0.64596  1.0000
  S   S127      1.0  0.34291  0.98700  0.89613  1.0000
  H   H517      1.0  0.05343  0.68294  0.54410  1.0000
  H   H518      1.0  0.23217  0.96118  0.49743  1.0000
  C   C442      1.0  0.04543  0.67581  0.60338  1.0000
  C   C443      1.0  0.20696  0.77426  0.58374  1.0000
  C   C444      1.0  0.25513  0.72730  0.82781  1.0000
  H   H519      1.0  0.26477  0.73287  0.84841  1.0000
  H   H520      1.0  0.27176  0.73204  0.80854  1.0000
  H   H521      1.0  0.25875  0.71361  0.82948  1.0000
  N   N29       1.0  0.20762  0.91754  0.80746  1.0000
  C   C445      1.0  0.20213  0.92575  0.83720  1.0000
  C   C446      1.0  0.23985  0.92376  0.79357  1.0000
  C   C447      1.0  0.18022  0.92287  0.78830  1.0000
  C   C448      1.0  0.20861  0.89914  0.80956  1.0000
  C   C449      1.0  0.20444  0.89024  0.83745  1.0000
  C   C450      1.0  0.21449  0.88955  0.78308  1.0000
  C   C451      1.0  0.20611  0.87287  0.83852  1.0000
  C   C452      1.0  0.21650  0.87220  0.78449  1.0000
  C   C453      1.0  0.21233  0.86388  0.81215  1.0000
  H   H522      1.0  0.22265  0.92275  0.85239  1.0000
  H   H523      1.0  0.20185  0.93956  0.83486  1.0000
  H   H524      1.0  0.17781  0.92205  0.84873  1.0000
  H   H525      1.0  0.26102  0.91898  0.80642  1.0000
  H   H526      1.0  0.24115  0.93761  0.79326  1.0000
  H   H527      1.0  0.24448  0.91981  0.76979  1.0000
  H   H528      1.0  0.18403  0.91843  0.76472  1.0000
  H   H529      1.0  0.15564  0.91801  0.79756  1.0000
  H   H530      1.0  0.17840  0.93669  0.78678  1.0000
  H   H531      1.0  0.20104  0.89638  0.85892  1.0000
  H   H532      1.0  0.21838  0.89541  0.76112  1.0000
  H   H533      1.0  0.20397  0.86634  0.86009  1.0000
  H   H534      1.0  0.22225  0.86512  0.76418  1.0000
  H   H535      1.0  0.21506  0.85046  0.81327  1.0000
  H   H536      1.0  0.24186  0.74559  0.58037  1.0000
  H   H537      1.0  0.46177  0.78719  0.88717  1.0000
  C   C454      1.0  0.15723  0.78409  0.54377  1.0000
  H   H538      1.0  0.22823  0.73025  0.77541  1.0000
  H   H539      1.0  0.23338  0.76580  0.54213  1.0000
  C   C455      1.0  0.46750  0.78553  0.86326  1.0000
  H   H540      1.0  0.37553  0.84003  0.88584  1.0000
  H   H541      1.0  0.07741  0.66501  0.55273  1.0000
  N   N30       1.0  0.21948  0.73154  0.82385  1.0000
  C   C456      1.0  0.17053  0.71394  0.84532  1.0000
  H   H542      1.0  0.22485  0.75575  0.84380  1.0000
  H   H543      1.0  0.23072  0.75554  0.80361  1.0000
  H   H544      1.0  0.38813  0.81694  0.81557  1.0000
  C   C457      1.0  0.29631  0.99482  0.72562  1.0000
  C   C458      1.0  0.24926  0.73819  0.96724  1.0000
  C   C459      1.0  0.21593  0.74989  0.82313  1.0000
  C   C460      1.0  0.21089  0.72526  0.79386  1.0000
  C   C461      1.0  0.19817  0.72465  0.84939  1.0000
  C   C462      1.0  0.15069  0.70790  0.87007  1.0000
  H   H545      1.0  0.21297  0.71148  0.79281  1.0000
  H   H546      1.0  0.42967  0.81980  0.85599  1.0000
  H   H547      1.0  0.43757  0.84012  0.87048  1.0000
  C   C463      1.0  0.26610  0.77585  0.59364  1.0000
  C   C464      1.0  0.21932  0.73840  0.98564  1.0000
  H   H548      1.0  0.18932  0.75367  0.82131  1.0000
  H   H549      1.0  0.37207  0.82040  0.86799  1.0000
  C   C465      1.0  0.39853  0.85749  0.83468  1.0000
  C   C466      1.0  0.43308  0.98398  0.73984  1.0000
  H   H550      1.0  0.44340  0.88670  0.79198  1.0000
  C   C467      1.0  0.20432  0.72895  0.87954  1.0000
  H   H551      1.0  0.18528  0.72916  0.78806  1.0000
  C   C468      1.0  0.15764  0.71231  0.89937  1.0000
  H   H552      1.0  0.22436  0.73733  0.88438  1.0000
  H   H553      1.0  0.40961  0.83276  0.79364  1.0000
  C   C469      1.0  0.38997  0.83066  0.81198  1.0000
  H   H554      1.0  0.45070  0.83487  0.83233  1.0000
  C   C470      1.0  0.48282  0.78103  0.80188  1.0000
  C   C471      1.0  0.18442  0.72280  0.90408  1.0000
  H   H555      1.0  0.14209  0.70774  0.91850  1.0000
  C   C472      1.0  0.15181  0.78636  0.57475  1.0000
  H   H556      1.0  0.48850  0.77924  0.77801  1.0000
  C   C473      1.0  0.19414  0.74960  0.97820  1.0000
  C   C474      1.0  0.00543  0.71730  0.60189  1.0000
  C   C475      1.0  0.42535  0.99321  0.71436  1.0000
  H   H557      1.0  0.26899  0.72961  0.97265  1.0000
  H   H558      1.0  0.41318  0.97933  0.75537  1.0000
  C   C476      1.0  0.48450  0.99555  0.69972  1.0000
  C   C477      1.0  0.17619  0.78157  0.59458  1.0000
  H   H559      1.0  0.46329  0.98475  0.91319  1.0000
  C   C478      1.0  0.46645  0.98051  0.74541  1.0000
  H   H560      1.0  0.29237  0.68123  0.53103  1.0000
  H   H561      1.0  0.20446  0.98675  0.58713  1.0000
  H   H562      1.0  0.18907  0.67245  0.51574  1.0000
  H   H563      1.0  0.04711  0.68942  0.59862  1.0000
  H   H564      1.0  0.20073  0.67966  0.55150  1.0000
  H   H565      1.0  0.38981  0.99417  0.98456  1.0000
  C   C479      1.0  0.05135  0.66948  0.55041  1.0000
  C   C480      1.0  0.20820  0.67978  0.52698  1.0000
  H   H566      1.0  0.25945  0.98620  0.98328  1.0000
  H   H567      1.0  0.21227  0.98904  0.73582  1.0000
  N   N31       1.0  0.24256  0.67309  0.52180  1.0000
  C   C481      1.0  0.42458  0.98856  0.94724  1.0000
  H   H568      1.0  0.48666  0.93269  0.79396  1.0000
  C   C482      1.0  0.32480  0.99323  0.93187  1.0000
  C   C483      1.0  0.26576  0.68507  0.53503  1.0000
  C   C484      1.0  0.23382  0.97445  0.50111  1.0000
  H   H569      1.0  0.28373  0.99581  0.86325  1.0000
  C   C485      1.0  0.99706  0.67482  0.57388  1.0000
  H   H570      1.0  0.99979  0.68821  0.56783  1.0000
  S   S128      1.0  0.14264  0.66389  0.57611  1.0000
  H   H571      1.0  0.39945  0.99586  0.70999  1.0000
  C   C486      1.0  0.49320  0.98589  0.72527  1.0000
  C   C487      1.0  0.41497  0.99595  0.97462  1.0000
  Fe  Fe65      1.0  0.79328  0.27246  0.35296  1.0000
  S   S129      1.0  0.81689  0.26312  0.30865  1.0000
  S   S130      1.0  0.77652  0.25203  0.38744  1.0000
  Fe  Fe66      1.0  0.79998  0.30892  0.33131  1.0000
  S   S131      1.0  0.82216  0.30188  0.28564  1.0000
  Fe  Fe67      1.0  0.78333  0.28140  0.28625  1.0000
  S   S132      1.0  0.74783  0.27706  0.24773  1.0000
  Fe  Fe68      1.0  0.85404  0.28409  0.31161  1.0000
  S   S133      1.0  0.90952  0.28220  0.29553  1.0000
  S   S134      1.0  0.75846  0.29001  0.33041  1.0000
  S   S135      1.0  0.83336  0.29197  0.35746  1.0000
  Fe  Fe69      1.0  0.59928  0.22011  0.09296  1.0000
  S   S136      1.0  0.61303  0.20414  0.05300  1.0000
  S   S137      1.0  0.54665  0.22884  0.10870  1.0000
  Fe  Fe70      1.0  0.66943  0.21690  0.11810  1.0000
  S   S138      1.0  0.68688  0.19989  0.08007  1.0000
  S   S139      1.0  0.70824  0.22083  0.15398  1.0000
  Fe  Fe71      1.0  0.66214  0.21817  0.04930  1.0000
  S   S140      1.0  0.69088  0.22166  0.00294  1.0000
  Fe  Fe72      1.0  0.63698  0.18699  0.08610  1.0000
  S   S141      1.0  0.61859  0.15997  0.08406  1.0000
  S   S142      1.0  0.64660  0.23576  0.08712  1.0000
  S   S143      1.0  0.62144  0.20248  0.12638  1.0000
  Fe  Fe73      1.0  0.65060  0.02888  0.12101  1.0000
  S   S144      1.0  0.67222  0.03638  0.07461  1.0000
  S   S145      1.0  0.67815  0.01136  0.15196  1.0000
  Fe  Fe74      1.0  0.58697  0.04854  0.11258  1.0000
  S   S146      1.0  0.60227  0.05700  0.06544  1.0000
  S   S147      1.0  0.53849  0.05652  0.13591  1.0000
  Fe  Fe75      1.0  0.62098  0.03065  0.05872  1.0000
  S   S148      1.0  0.60447  0.01318  0.02194  1.0000
  Fe  Fe76      1.0  0.65176  0.06217  0.08504  1.0000
  S   S149      1.0  0.68072  0.08658  0.07815  1.0000
  S   S150      1.0  0.60068  0.02199  0.10470  1.0000
  S   S151      1.0  0.63530  0.05492  0.13257  1.0000
  H   H572      1.0  0.61029  0.14272  0.00630  1.0000
  C   C488      1.0  0.62543  0.00609  0.19458  1.0000
  H   H573      1.0  0.59324  0.08412  0.13194  1.0000
  H   H574      1.0  0.51633  0.99943  0.24178  1.0000
  C   C489      1.0  0.79422  0.26254  0.13862  1.0000
  N   N32       1.0  0.76550  0.24176  0.06790  1.0000
  C   C490      1.0  0.53631  0.00049  0.46048  1.0000
  H   H575      1.0  0.61725  0.16991  0.01950  1.0000
  C   C491      1.0  0.50691  0.05272  0.11117  1.0000
  C   C492      1.0  0.50459  0.22484  0.06103  1.0000
  H   H576      1.0  0.75812  0.24428  0.12949  1.0000
  H   H577      1.0  0.68811  0.00142  0.08822  1.0000
  H   H578      1.0  0.58660  0.12079  0.18267  1.0000
  C   C493      1.0  0.69784  0.21694  0.27566  1.0000
  H   H579      1.0  0.53888  0.03849  0.08035  1.0000
  C   C494      1.0  0.63682  0.13975  0.08326  1.0000
  C   C495      1.0  0.67144  0.13710  0.08293  1.0000
  C   C496      1.0  0.68445  0.12077  0.08155  1.0000
  C   C497      1.0  0.66311  0.10690  0.08065  1.0000
  C   C498      1.0  0.62851  0.10956  0.08118  1.0000
  C   C499      1.0  0.61550  0.12587  0.08248  1.0000
  H   H580      1.0  0.68820  0.14760  0.08362  1.0000
  H   H581      1.0  0.71126  0.11885  0.08103  1.0000
  H   H582      1.0  0.61182  0.09905  0.07997  1.0000
  H   H583      1.0  0.58871  0.12776  0.08245  1.0000
  C   C500      1.0  0.74624  0.25087  0.41861  1.0000
  C   C501      1.0  0.74323  0.23598  0.43565  1.0000
  C   C502      1.0  0.61833  0.04948  0.22008  1.0000
  H   H584      1.0  0.67286  0.00029  0.05113  1.0000
  C   C503      1.0  0.70287  0.26289  0.45261  1.0000
  C   C504      1.0  0.72579  0.26433  0.42725  1.0000
  H   H585      1.0  0.75897  0.22549  0.42932  1.0000
  C   C505      1.0  0.50747  0.17734  0.08729  1.0000
  H   H586      1.0  0.79391  0.26379  0.45578  1.0000
  H   H587      1.0  0.72780  0.27589  0.41457  1.0000
  C   C506      1.0  0.73766  0.26122  0.22168  1.0000
  C   C507      1.0  0.75391  0.24579  0.22038  1.0000
  C   C508      1.0  0.74441  0.23365  0.19968  1.0000
  C   C509      1.0  0.71857  0.23668  0.17994  1.0000
  C   C510      1.0  0.70265  0.25219  0.18091  1.0000
  C   C511      1.0  0.71214  0.26433  0.20163  1.0000
  H   H588      1.0  0.77393  0.24320  0.23515  1.0000
  H   H589      1.0  0.75719  0.22178  0.19901  1.0000
  H   H590      1.0  0.68292  0.25484  0.16583  1.0000
  H   H591      1.0  0.69943  0.27622  0.20223  1.0000
  C   C512      1.0  0.72955  0.24633  0.07087  1.0000
  C   C513      1.0  0.59018  0.10851  0.19396  1.0000
  H   H592      1.0  0.56512  0.10426  0.20316  1.0000
  H   H593      1.0  0.52707  0.22376  0.04644  1.0000
  C   C514      1.0  0.62600  0.00305  0.99113  1.0000
  C   C515      1.0  0.94712  0.28448  0.31496  1.0000
  C   C516      1.0  0.94685  0.28780  0.34587  1.0000
  C   C517      1.0  0.66675  0.00360  0.47984  1.0000
  H   H594      1.0  0.92325  0.28836  0.35891  1.0000
  H   H595      1.0  0.75635  0.21559  0.06187  1.0000
  N   N33       1.0  0.51260  0.01116  0.47865  1.0000
  H   H596      1.0  0.81733  0.26473  0.05262  1.0000
  H   H597      1.0  0.71031  0.21375  0.33616  1.0000
  C   C518      1.0  0.62994  0.17242  0.99686  1.0000
  C   C519      1.0  0.69530  0.13789  0.99617  1.0000
  H   H598      1.0  0.64400  0.24849  0.23282  1.0000
  C   C520      1.0  0.64627  0.05918  0.21199  1.0000
  C   C521      1.0  0.65944  0.00366  0.18673  1.0000
  H   H599      1.0  0.52321  0.03292  0.45115  1.0000
  C   C522      1.0  0.81010  0.26361  0.07639  1.0000
  C   C523      1.0  0.49815  0.00255  0.22530  1.0000
  H   H600      1.0  0.67100  0.05459  0.21671  1.0000
  H   H601      1.0  0.71849  0.24411  0.09418  1.0000
  H   H602      1.0  0.67453  0.22673  0.34513  1.0000
  N   N34       1.0  0.71164  0.23806  0.31449  1.0000
  C   C524      1.0  0.70419  0.25531  0.32446  1.0000
  H   H603      1.0  0.66546  0.08115  0.19107  1.0000
  H   H604      1.0  0.53167  0.01870  0.19917  1.0000
  C   C525      1.0  0.50723  0.22708  0.09207  1.0000
  H   H605      1.0  0.58129  0.10559  0.13369  1.0000
  H   H606      1.0  0.52453  0.18738  0.09192  1.0000
  H   H607      1.0  0.71851  0.22303  0.47389  1.0000
  H   H608      1.0  0.55051  0.03003  0.48181  1.0000
  C   C526      1.0  0.76910  0.22408  0.07722  1.0000
  C   C527      1.0  0.70836  0.25485  0.98892  1.0000
  H   H609      1.0  0.63344  0.11498  0.14607  1.0000
  H   H610      1.0  0.71887  0.14430  0.99231  1.0000
  H   H611      1.0  0.65121  0.09458  0.14422  1.0000
  C   C528      1.0  0.97725  0.29019  0.36001  1.0000
  H   H612      1.0  0.61350  0.11281  0.01210  1.0000
  C   C529      1.0  0.68344  0.17258  0.01849  1.0000
  C   C530      1.0  0.66695  0.11162  0.00543  1.0000
  C   C531      1.0  0.95619  0.32770  0.31407  1.0000
  C   C532      1.0  0.63626  0.11986  0.00708  1.0000
  H   H613      1.0  0.97881  0.28062  0.27469  1.0000
  C   C533      1.0  0.77642  0.24312  0.03534  1.0000
  C   C534      1.0  0.68258  0.21225  0.24945  1.0000
  H   H614      1.0  0.67045  0.25731  0.27767  1.0000
  C   C535      1.0  0.51855  0.16093  0.08795  1.0000
  H   H615      1.0  0.90127  0.31436  0.37493  1.0000
  H   H616      1.0  0.56481  0.04754  0.21997  1.0000
  C   C536      1.0  0.70215  0.22676  0.34028  1.0000
  H   H617      1.0  0.71450  0.23891  0.05552  1.0000
  H   H618      1.0  0.76173  0.23471  0.02127  1.0000
  C   C537      1.0  0.67393  0.24450  0.27125  1.0000
  C   C538      1.0  0.65850  0.23960  0.24525  1.0000
  H   H619      1.0  0.71027  0.16896  0.01688  1.0000
  H   H620      1.0  0.77247  0.25589  0.02621  1.0000
  H   H621      1.0  0.69622  0.25812  0.01044  1.0000
  H   H622      1.0  0.55759  0.09056  0.15504  1.0000
  H   H623      1.0  0.78782  0.26220  0.16278  1.0000
  C   C539      1.0  0.63484  0.13715  0.00364  1.0000
  C   C540      1.0  0.63775  0.10352  0.15969  1.0000
  H   H624      1.0  0.68738  0.27344  0.45912  1.0000
  H   H625      1.0  0.84650  0.28214  0.08691  1.0000
  H   H626      1.0  0.72572  0.25970  0.06522  1.0000
  C   C541      1.0  0.66293  0.22355  0.23429  1.0000
  C   C542      1.0  0.51401  0.04336  0.08523  1.0000
  C   C543      1.0  0.77727  0.25232  0.11936  1.0000
  C   C544      1.0  0.78456  0.25252  0.08766  1.0000
  N   N35       1.0  0.60587  0.09629  0.17282  1.0000
  H   H627      1.0  0.68279  0.18641  0.01724  1.0000
  C   C545      1.0  0.58359  0.09402  0.14744  1.0000
  H   H628      1.0  0.68865  0.06054  0.46717  1.0000
  C   C546      1.0  0.61058  0.08037  0.18932  1.0000
  N   N36       1.0  0.66412  0.16508  0.99456  1.0000
  C   C547      1.0  0.58257  0.07042  0.19894  1.0000
  C   C548      1.0  0.97824  0.28328  0.29857  1.0000
  C   C549      1.0  0.58652  0.05514  0.21376  1.0000
  H   H629      1.0  0.67700  0.25711  0.33016  1.0000
  H   H630      1.0  0.62138  0.03749  0.23111  1.0000
  C   C550      1.0  0.50674  0.01336  0.20133  1.0000
  C   C551      1.0  0.64264  0.07448  0.19711  1.0000
  H   H631      1.0  0.60594  0.11048  0.21353  1.0000
  C   C552      1.0  0.69998  0.24804  0.46977  1.0000
  C   C553      1.0  0.80214  0.26531  0.47850  1.0000
  H   H632      1.0  0.83222  0.28115  0.14200  1.0000
  C   C554      1.0  0.69641  0.12061  0.99999  1.0000
  H   H633      1.0  0.75765  0.22149  0.10028  1.0000
  H   H634      1.0  0.67303  0.01575  0.99382  1.0000
  H   H635      1.0  0.55731  0.07415  0.19457  1.0000
  H   H636      1.0  0.65471  0.10728  0.17741  1.0000
  C   C555      1.0  0.52427  0.02857  0.47501  1.0000
  H   H637      1.0  0.65196  0.22004  0.21345  1.0000
  C   C556      1.0  0.74828  0.23686  0.30785  1.0000
  H   H638      1.0  0.75636  0.24534  0.28877  1.0000
  H   H639      1.0  0.76242  0.24030  0.32779  1.0000
  H   H640      1.0  0.75652  0.22412  0.30159  1.0000
  H   H641      1.0  0.71257  0.26460  0.30676  1.0000
  H   H642      1.0  0.71755  0.25845  0.34507  1.0000
  C   C557      1.0  0.81915  0.27324  0.12693  1.0000
  H   H643      1.0  0.80318  0.23957  0.03129  1.0000
  H   H644      1.0  0.71403  0.23060  0.36132  1.0000
  C   C558      1.0  0.69407  0.23324  0.28737  1.0000
  H   H645      1.0  0.54423  0.15821  0.09305  1.0000
  C   C559      1.0  0.82710  0.27376  0.09590  1.0000
  H   H646      1.0  0.71333  0.20781  0.28627  1.0000
  H   H647      1.0  0.79594  0.22041  0.07720  1.0000
  H   H648      1.0  0.67304  0.16871  0.04131  1.0000
  H   H649      1.0  0.68659  0.19991  0.24034  1.0000
  H   H650      1.0  0.97670  0.29286  0.38388  1.0000
  H   H651      1.0  0.50539  0.13532  0.08251  1.0000
  H   H652      1.0  0.53823  0.00433  0.43621  1.0000
  C   C560      1.0  0.66447  0.14672  0.99797  1.0000
  C   C561      1.0  0.72031  0.23454  0.46103  1.0000
  H   H653      1.0  0.56223  0.00114  0.46836  1.0000
  H   H654      1.0  0.58473  0.00114  0.22751  1.0000
  H   H655      1.0  0.61006  0.01304  0.17953  1.0000
  H   H656      1.0  0.66797  0.09828  0.00926  1.0000
  H   H657      1.0  0.89166  0.31402  0.31917  1.0000
  H   H658      1.0  0.94263  0.32234  0.29617  1.0000
  H   H659      1.0  0.84807  0.27730  0.46328  1.0000
  H   H660      1.0  0.72025  0.11413  0.99935  1.0000
  C   C562      1.0  0.88491  0.32742  0.32089  1.0000
  H   H661      1.0  0.85733  0.32788  0.32548  1.0000
  C   C563      1.0  0.72603  0.99871  0.48313  1.0000
  H   H662      1.0  0.63061  0.18621  0.99398  1.0000
  H   H663      1.0  0.86406  0.32694  0.37727  1.0000
  H   H664      1.0  0.66677  0.08931  0.47083  1.0000
  C   C564      1.0  0.49661  0.14808  0.08200  1.0000
  C   C565      1.0  0.61113  0.99934  0.22183  1.0000
  C   C566      1.0  0.89195  0.32739  0.37407  1.0000
  C   C567      1.0  0.99111  0.32661  0.31086  1.0000
  C   C568      1.0  0.83269  0.27294  0.48270  1.0000
  C   C569      1.0  0.69773  0.06885  0.48396  1.0000
  C   C570      1.0  0.68535  0.08502  0.48602  1.0000
  Fe  Fe77      1.0  0.78258  0.28082  0.87011  1.0000
  S   S152      1.0  0.80233  0.26130  0.83744  1.0000
  S   S153      1.0  0.75848  0.27988  0.91890  1.0000
  Fe  Fe78      1.0  0.80256  0.30965  0.82542  1.0000
  S   S154      1.0  0.82203  0.29189  0.78936  1.0000
  Fe  Fe79      1.0  0.77654  0.27594  0.80133  1.0000
  S   S155      1.0  0.74037  0.26127  0.77221  1.0000
  Fe  Fe80      1.0  0.84671  0.27838  0.82717  1.0000
  S   S156      1.0  0.90130  0.27056  0.81581  1.0000
  S   S157      1.0  0.75500  0.29488  0.83468  1.0000
  S   S158      1.0  0.82910  0.29659  0.86241  1.0000
  Fe  Fe81      1.0  0.60007  0.22220  0.58996  1.0000
  S   S159      1.0  0.61433  0.21098  0.54509  1.0000
  S   S160      1.0  0.54775  0.22701  0.61195  1.0000
  Fe  Fe82      1.0  0.67388  0.22391  0.60807  1.0000
  S   S161      1.0  0.69275  0.21159  0.56439  1.0000
  S   S162      1.0  0.71004  0.23840  0.63723  1.0000
  Fe  Fe83      1.0  0.65790  0.22884  0.54106  1.0000
  H   H665      1.0  0.57934  0.15705  0.59060  1.0000
  Fe  Fe84      1.0  0.64817  0.19422  0.57133  1.0000
  S   S163      1.0  0.63903  0.16724  0.55726  1.0000
  S   S164      1.0  0.64044  0.24155  0.58417  1.0000
  S   S165      1.0  0.63227  0.20505  0.61667  1.0000
  Fe  Fe85      1.0  0.62455  0.03536  0.61986  1.0000
  S   S166      1.0  0.67560  0.04371  0.60193  1.0000
  S   S167      1.0  0.60817  0.02579  0.66739  1.0000
  Fe  Fe86      1.0  0.59331  0.04853  0.56321  1.0000
  S   S168      1.0  0.64149  0.05802  0.54148  1.0000
  S   S169      1.0  0.54647  0.05191  0.53856  1.0000
  Fe  Fe87      1.0  0.66151  0.03341  0.55694  1.0000
  C   C571      1.0  0.61741  0.01120  0.72270  1.0000
  Fe  Fe88      1.0  0.65088  0.06771  0.58759  1.0000
  S   S170      1.0  0.67432  0.09285  0.59858  1.0000
  S   S171      1.0  0.61233  0.02331  0.57604  1.0000
  S   S172      1.0  0.60072  0.05993  0.60813  1.0000
  N   N37       1.0  0.51517  0.00277  0.93466  1.0000
  H   H666      1.0  0.49951  0.00284  0.88869  1.0000
  C   C572      1.0  0.51334  0.01063  0.90434  1.0000
  C   C573      1.0  0.93725  0.31491  0.80852  1.0000
  H   H667      1.0  0.77381  0.04490  0.52631  1.0000
  C   C574      1.0  0.69656  0.09559  0.50793  1.0000
  C   C575      1.0  0.62830  0.01180  0.69194  1.0000
  C   C576      1.0  0.73269  0.07349  0.52699  1.0000
  C   C577      1.0  0.50540  0.22476  0.56417  1.0000
  H   H668      1.0  0.54436  0.14624  0.60790  1.0000
  C   C578      1.0  0.74928  0.07303  0.57932  1.0000
  H   H669      1.0  0.54003  0.17172  0.53709  1.0000
  C   C579      1.0  0.51802  0.03641  0.58884  1.0000
  H   H670      1.0  0.54101  0.00608  0.51786  1.0000
  H   H671      1.0  0.54310  0.03497  0.59641  1.0000
  C   C580      1.0  0.64869  0.14672  0.56991  1.0000
  C   C581      1.0  0.67080  0.14358  0.59266  1.0000
  C   C582      1.0  0.67811  0.12704  0.60124  1.0000
  C   C583      1.0  0.66306  0.11343  0.58760  1.0000
  C   C584      1.0  0.64055  0.11659  0.56516  1.0000
  C   C585      1.0  0.63362  0.13311  0.55627  1.0000
  H   H672      1.0  0.68265  0.15385  0.60337  1.0000
  H   H673      1.0  0.69558  0.12477  0.61861  1.0000
  H   H674      1.0  0.62894  0.10628  0.55430  1.0000
  H   H675      1.0  0.61662  0.13536  0.53852  1.0000
  C   C586      1.0  0.73921  0.26351  0.94159  1.0000
  C   C587      1.0  0.78224  0.25954  0.50336  1.0000
  H   H676      1.0  0.61406  0.16758  0.97913  1.0000
  H   H677      1.0  0.72893  0.05033  0.50141  1.0000
  C   C588      1.0  0.72425  0.23442  0.95138  1.0000
  C   C589      1.0  0.73929  0.24691  0.93241  1.0000
  C   C590      1.0  0.67979  0.17004  0.96467  1.0000
  H   H678      1.0  0.59859  0.01992  0.73113  1.0000
  H   H679      1.0  0.74033  0.31268  0.88939  1.0000
  H   H680      1.0  0.75107  0.24368  0.91069  1.0000
  C   C591      1.0  0.73387  0.25452  0.73446  1.0000
  C   C592      1.0  0.75048  0.26162  0.70881  1.0000
  C   C593      1.0  0.74285  0.25651  0.67949  1.0000
  C   C594      1.0  0.71860  0.24417  0.67514  1.0000
  C   C595      1.0  0.70230  0.23691  0.70082  1.0000
  C   C596      1.0  0.70982  0.24208  0.73011  1.0000
  H   H681      1.0  0.76897  0.27120  0.71157  1.0000
  H   H682      1.0  0.75582  0.26228  0.66008  1.0000
  H   H683      1.0  0.68421  0.22715  0.69830  1.0000
  H   H684      1.0  0.69682  0.23641  0.74965  1.0000
  N   N38       1.0  0.75844  0.06799  0.54778  1.0000
  H   H685      1.0  0.74078  0.31640  0.94485  1.0000
  H   H686      1.0  0.52776  0.22482  0.54924  1.0000
  H   H687      1.0  0.76847  0.25225  0.60782  1.0000
  C   C597      1.0  0.94175  0.28134  0.86128  1.0000
  C   C598      1.0  0.94006  0.27449  0.83252  1.0000
  C   C599      1.0  0.97021  0.27043  0.81628  1.0000
  H   H688      1.0  0.91886  0.28455  0.87405  1.0000
  H   H689      1.0  0.96924  0.26510  0.79406  1.0000
  N   N39       1.0  0.77108  0.25457  0.55913  1.0000
  H   H690      1.0  0.78782  0.27089  0.59351  1.0000
  C   C600      1.0  0.76698  0.23637  0.55580  1.0000
  C   C601      1.0  0.72015  0.09004  0.52788  1.0000
  C   C602      1.0  0.79238  0.26121  0.53333  1.0000
  C   C603      1.0  0.73750  0.26250  0.55963  1.0000
  H   H691      1.0  0.53872  0.01250  0.89312  1.0000
  H   H692      1.0  0.68669  0.10814  0.50976  1.0000
  H   H693      1.0  0.67911  0.18381  0.96119  1.0000
  H   H694      1.0  0.83366  0.27095  0.55871  1.0000
  H   H695      1.0  0.78902  0.08968  0.53862  1.0000
  C   C604      1.0  0.51274  0.04423  0.56116  1.0000
  H   H696      1.0  0.75263  0.23323  0.53583  1.0000
  H   H697      1.0  0.75303  0.23075  0.57589  1.0000
  H   H698      1.0  0.79169  0.23000  0.55323  1.0000
  H   H699      1.0  0.66662  0.16423  0.94601  1.0000
  S   S173      1.0  0.69957  0.01884  0.52733  1.0000
  H   H700      1.0  0.80969  0.25108  0.59081  1.0000
  H   H701      1.0  0.56292  0.01436  0.94165  1.0000
  H   H702      1.0  0.72472  0.22167  0.94389  1.0000
  H   H703      1.0  0.70660  0.16641  0.96205  1.0000
  H   H704      1.0  0.50879  0.03725  0.48925  1.0000
  H   H705      1.0  0.50085  0.01449  0.52662  1.0000
  S   S174      1.0  0.67155  0.24737  0.50235  1.0000
  C   C605      1.0  0.65295  0.00058  0.68144  1.0000
  H   H706      1.0  0.72371  0.25962  0.53923  1.0000
  H   H707      1.0  0.52724  0.02623  0.95467  1.0000
  C   C606      1.0  0.97312  0.28362  0.87384  1.0000
  H   H708      1.0  0.55234  0.14629  0.56712  1.0000
  H   H709      1.0  0.79122  0.31352  0.91530  1.0000
  H   H710      1.0  0.51331  0.08010  0.58460  1.0000
  H   H711      1.0  0.86732  0.28077  0.51494  1.0000
  H   H712      1.0  0.79851  0.07241  0.51437  1.0000
  H   H713      1.0  0.97397  0.28858  0.89634  1.0000
  H   H714      1.0  0.75884  0.25364  0.49892  1.0000
  H   H715      1.0  0.75374  0.32940  0.86405  1.0000
  C   C607      1.0  0.53676  0.17936  0.61241  1.0000
  H   H716      1.0  0.73943  0.27626  0.56088  1.0000
  H   H717      1.0  0.72114  0.25808  0.57930  1.0000
  H   H718      1.0  0.72371  0.06866  0.58645  1.0000
  C   C608      1.0  0.65931  0.00657  0.98191  1.0000
  H   H719      1.0  0.74912  0.00061  0.49419  1.0000
  C   C609      1.0  0.97149  0.31648  0.81286  1.0000
  H   H720      1.0  0.62177  0.99904  0.76618  1.0000
  H   H721      1.0  0.56383  0.18187  0.61513  1.0000
  C   C610      1.0  0.79074  0.07586  0.53800  1.0000
  H   H722      1.0  0.76664  0.06780  0.59576  1.0000
  C   C611      1.0  0.76333  0.04966  0.54832  1.0000
  C   C612      1.0  0.54448  0.17859  0.55812  1.0000
  H   H723      1.0  0.72328  0.28008  0.97748  1.0000
  H   H724      1.0  0.50301  0.00054  0.68339  1.0000
  C   C613      1.0  0.72371  0.26733  0.97007  1.0000
  H   H725      1.0  0.50795  0.08415  0.63551  1.0000
  H   H726      1.0  0.57195  0.18080  0.55841  1.0000
  H   H727      1.0  0.49814  0.13840  0.58152  1.0000
  N   N40       1.0  0.60304  0.25352  0.67893  1.0000
  C   C614      1.0  0.56632  0.25431  0.68613  1.0000
  C   C615      1.0  0.60984  0.26265  0.64989  1.0000
  C   C616      1.0  0.61277  0.23594  0.67410  1.0000
  C   C617      1.0  0.62153  0.26022  0.70415  1.0000
  C   C618      1.0  0.64742  0.27227  0.69978  1.0000
  C   C619      1.0  0.61479  0.25417  0.73413  1.0000
  C   C620      1.0  0.66464  0.27813  0.72410  1.0000
  C   C621      1.0  0.63219  0.26013  0.75825  1.0000
  C   C622      1.0  0.65697  0.27214  0.75325  1.0000
  H   H728      1.0  0.55835  0.26716  0.69225  1.0000
  H   H729      1.0  0.55183  0.25043  0.66659  1.0000
  H   H730      1.0  0.55804  0.24582  0.70501  1.0000
  H   H731      1.0  0.60384  0.27610  0.65217  1.0000
  H   H732      1.0  0.59448  0.25776  0.63171  1.0000
  H   H733      1.0  0.63646  0.26127  0.64142  1.0000
  H   H734      1.0  0.60834  0.22817  0.69483  1.0000
  H   H735      1.0  0.59834  0.23023  0.65615  1.0000
  H   H736      1.0  0.63985  0.23487  0.66701  1.0000
  H   H737      1.0  0.65553  0.27705  0.67774  1.0000
  H   H738      1.0  0.59656  0.24450  0.73909  1.0000
  H   H739      1.0  0.68507  0.28689  0.72028  1.0000
  H   H740      1.0  0.62719  0.25513  0.78088  1.0000
  H   H741      1.0  0.67129  0.27630  0.77182  1.0000
  N   N41       1.0  0.53168  0.16918  0.58532  1.0000
  C   C623      1.0  0.49554  0.16571  0.58295  1.0000
  C   C624      1.0  0.55254  0.15396  0.58785  1.0000
  C   C625      1.0  0.63034  0.99930  0.74259  1.0000
  C   C626      1.0  0.50821  0.22578  0.59541  1.0000
  C   C627      1.0  0.82371  0.26912  0.53688  1.0000
  C   C628      1.0  0.78509  0.25740  0.58899  1.0000
  C   C629      1.0  0.74077  0.32647  0.88640  1.0000
  H   H742      1.0  0.55378  0.00060  0.70405  1.0000
  H   H743      1.0  0.92818  0.30453  0.79581  1.0000
  C   C630      1.0  0.79205  0.32727  0.91161  1.0000
  H   H744      1.0  0.66156  0.00088  0.65786  1.0000
  H   H745      1.0  0.74961  0.08669  0.58250  1.0000
  H   H746      1.0  0.52469  0.19178  0.61116  1.0000
  H   H747      1.0  0.53260  0.19105  0.55628  1.0000
  H   H748      1.0  0.52642  0.17303  0.63334  1.0000
  H   H749      1.0  0.98748  0.30692  0.80303  1.0000
  H   H750      1.0  0.81108  0.07204  0.55279  1.0000
  C   C631      1.0  0.53713  0.01333  0.95245  1.0000
  C   C632      1.0  0.67489  0.99817  0.95705  1.0000
  C   C633      1.0  0.84344  0.27487  0.51181  1.0000
  H   H751      1.0  0.72803  0.09885  0.54422  1.0000
  H   H752      1.0  0.73923  0.04315  0.55418  1.0000
  C   C634      1.0  0.51469  0.00600  0.51079  1.0000
  H   H753      1.0  0.78114  0.04565  0.56540  1.0000
  C   C635      1.0  0.69650  0.00626  0.49465  1.0000
  C   C636      1.0  0.72103  0.06310  0.50405  1.0000
  H   H754      1.0  0.70075  0.00081  0.95024  1.0000
  H   H755      1.0  0.53538  0.00333  0.75789  1.0000
  C   C637      1.0  0.70857  0.23824  0.97974  1.0000
  H   H756      1.0  0.51889  0.08673  0.53140  1.0000
  H   H757      1.0  0.50050  0.02290  0.90582  1.0000
  H   H758      1.0  0.54005  0.00810  0.97554  1.0000
  H   H759      1.0  0.64375  0.00938  0.48840  1.0000
  H   H760      1.0  0.88786  0.32483  0.81797  1.0000
  C   C638      1.0  0.91442  0.32628  0.82115  1.0000
  H   H761      1.0  0.80649  0.32935  0.88966  1.0000
  C   C639      1.0  0.49552  0.08962  0.54393  1.0000
  Fe  Fe89      1.0  0.88805  0.45991  0.28646  1.0000
  S   S175      1.0  0.87894  0.44216  0.32534  1.0000
  S   S176      1.0  0.93828  0.46596  0.26446  1.0000
  Fe  Fe90      1.0  0.81519  0.46573  0.27744  1.0000
  S   S177      1.0  0.79872  0.44842  0.31624  1.0000
  S   S178      1.0  0.78184  0.47683  0.24233  1.0000
  Fe  Fe91      1.0  0.83962  0.46084  0.34145  1.0000
  S   S179      1.0  0.83848  0.46481  0.39271  1.0000
  Fe  Fe92      1.0  0.83907  0.43091  0.29832  1.0000
  S   S180      1.0  0.83766  0.40364  0.28392  1.0000
  S   S181      1.0  0.85235  0.47949  0.30410  1.0000
  S   S182      1.0  0.85204  0.44737  0.25802  1.0000
  Fe  Fe93      1.0  0.87738  0.53504  0.03829  1.0000
  S   S183      1.0  0.87290  0.55213  0.07754  1.0000
  H   H762      1.0  0.98407  0.55152  0.10354  1.0000
  Fe  Fe94      1.0  0.80354  0.53188  0.03532  1.0000
  S   S184      1.0  0.79186  0.54903  0.07508  1.0000
  S   S185      1.0  0.92610  0.52498  0.01836  1.0000
  Fe  Fe95      1.0  0.83260  0.56550  0.05335  1.0000
  S   S186      1.0  0.84267  0.59373  0.05474  1.0000
  Fe  Fe96      1.0  0.83300  0.53501  0.09735  1.0000
  S   S187      1.0  0.84177  0.53096  0.14741  1.0000
  S   S188      1.0  0.84068  0.54938  0.01197  1.0000
  S   S189      1.0  0.84119  0.51680  0.05975  1.0000
  H   H763      1.0  0.90081  0.33393  0.39400  1.0000
  C   C640      1.0  0.82034  0.61285  0.05995  1.0000
  C   C641      1.0  0.83871  0.62772  0.06153  1.0000
  C   C642      1.0  0.82250  0.64322  0.06556  1.0000
  C   C643      1.0  0.78751  0.64412  0.06794  1.0000
  C   C644      1.0  0.76908  0.62927  0.06620  1.0000
  C   C645      1.0  0.78532  0.61373  0.06244  1.0000
  H   H764      1.0  0.86578  0.62723  0.05957  1.0000
  H   H765      1.0  0.78542  0.55559  0.15811  1.0000
  H   H766      1.0  0.74201  0.62975  0.06808  1.0000
  H   H767      1.0  0.77076  0.60247  0.06124  1.0000
  C   C646      1.0  0.82929  0.48258  0.41526  1.0000
  C   C647      1.0  0.82922  0.48084  0.44689  1.0000
  H   H768      1.0  0.97432  0.48609  0.21770  1.0000
  C   C648      1.0  0.98146  0.40977  0.30428  1.0000
  C   C649      1.0  0.81576  0.51193  0.42197  1.0000
  C   C650      1.0  0.82262  0.49825  0.40286  1.0000
  H   H769      1.0  0.83373  0.46873  0.45676  1.0000
  C   C651      1.0  0.98181  0.62987  0.06606  1.0000
  H   H770      1.0  0.95022  0.34644  0.38296  1.0000
  H   H771      1.0  0.82245  0.49979  0.37859  1.0000
  C   C652      1.0  0.79980  0.49105  0.21494  1.0000
  C   C653      1.0  0.82956  0.49948  0.21981  1.0000
  C   C654      1.0  0.84216  0.51149  0.19873  1.0000
  C   C655      1.0  0.82582  0.51487  0.17206  1.0000
  C   C656      1.0  0.79654  0.50613  0.16672  1.0000
  C   C657      1.0  0.78339  0.49443  0.18826  1.0000
  H   H772      1.0  0.84241  0.49707  0.24024  1.0000
  H   H773      1.0  0.86460  0.51826  0.20334  1.0000
  H   H774      1.0  0.78354  0.50867  0.14640  1.0000
  H   H775      1.0  0.76034  0.48803  0.18427  1.0000
  C   C658      1.0  0.82408  0.38494  0.30241  1.0000
  C   C659      1.0  0.82831  0.36988  0.28682  1.0000
  C   C660      1.0  0.81778  0.35466  0.30027  1.0000
  C   C661      1.0  0.80288  0.35433  0.32959  1.0000
  C   C662      1.0  0.79844  0.36941  0.34510  1.0000
  C   C663      1.0  0.80900  0.38465  0.33163  1.0000
  H   H776      1.0  0.83968  0.36998  0.26408  1.0000
  H   H777      1.0  0.82112  0.34321  0.28792  1.0000
  H   H778      1.0  0.78696  0.36930  0.36780  1.0000
  H   H779      1.0  0.80543  0.39613  0.34386  1.0000
  C   C664      1.0  0.96996  0.47878  0.34522  1.0000
  C   C665      1.0  0.94917  0.47513  0.32188  1.0000
  C   C666      1.0  0.96275  0.47379  0.29225  1.0000
  H   H780      1.0  0.94994  0.43005  0.28754  1.0000
  C   C667      1.0  0.73641  0.61733  0.14455  1.0000
  H   H781      1.0  0.92287  0.47276  0.32703  1.0000
  H   H782      1.0  0.80916  0.63893  0.13713  1.0000
  C   C668      1.0  0.97129  0.49544  0.20023  1.0000
  C   C669      1.0  0.96883  0.48442  0.46900  1.0000
  C   C670      1.0  0.95737  0.53925  0.02553  1.0000
  C   C671      1.0  0.94873  0.55570  0.03210  1.0000
  C   C672      1.0  0.97270  0.56656  0.04244  1.0000
  C   C673      1.0  0.98906  0.54163  0.12049  1.0000
  H   H783      1.0  0.92337  0.56001  0.02970  1.0000
  H   H784      1.0  0.93908  0.53538  0.08736  1.0000
  C   C674      1.0  0.81600  0.51017  0.45361  1.0000
  C   C675      1.0  0.77346  0.56808  0.15579  1.0000
  H   H785      1.0  0.89734  0.49895  0.43926  1.0000
  C   C676      1.0  0.99044  0.53386  0.02769  1.0000
  H   H786      1.0  0.96562  0.57913  0.04849  1.0000
  H   H787      1.0  0.95746  0.62499  0.06109  1.0000
  C   C677      1.0  0.82171  0.57798  0.12682  1.0000
  H   H788      1.0  0.84349  0.56152  0.47242  1.0000
  H   H789      1.0  0.75187  0.60154  0.47822  1.0000
  C   C678      1.0  0.81810  0.58088  0.18090  1.0000
  N   N42       1.0  0.80803  0.58172  0.47799  1.0000
  S   S190      1.0  0.76740  0.51587  0.01065  1.0000
  H   H790      1.0  0.95968  0.47910  0.36828  1.0000
  C   C679      1.0  0.77468  0.60828  0.48151  1.0000
  N   N43       1.0  0.90294  0.33562  0.34503  1.0000
  H   H791      1.0  0.70966  0.61925  0.14349  1.0000
  C   C680      1.0  0.95300  0.41681  0.29104  1.0000
  H   H792      1.0  0.91821  0.49171  0.19947  1.0000
  C   C681      1.0  0.99357  0.48304  0.44493  1.0000
  H   H793      1.0  0.75321  0.37125  0.27743  1.0000
  C   C682      1.0  0.96299  0.52022  0.15506  1.0000
  C   C683      1.0  0.74913  0.60132  0.14912  1.0000
  H   H794      1.0  0.93861  0.49870  0.42166  1.0000
  H   H795      1.0  0.91004  0.54131  0.15250  1.0000
  H   H796      1.0  0.90576  0.41249  0.27159  1.0000
  H   H797      1.0  0.89794  0.35972  0.32405  1.0000
  C   C684      1.0  0.92447  0.49869  0.44400  1.0000
  C   C685      1.0  0.77193  0.62539  0.48633  1.0000
  C   C686      1.0  0.92718  0.40679  0.28164  1.0000
  C   C687      1.0  0.79243  0.62844  0.14123  1.0000
  N   N44       1.0  0.95767  0.53331  0.13203  1.0000
  H   H798      1.0  0.75597  0.56954  0.17599  1.0000
  N   N45       1.0  0.93275  0.48408  0.46289  1.0000
  H   H799      1.0  0.95793  0.36883  0.29970  1.0000
  C   C688      1.0  0.92870  0.38959  0.28505  1.0000
  C   C689      1.0  0.78421  0.59842  0.14969  1.0000
  H   H800      1.0  0.96799  0.65461  0.05582  1.0000
  H   H801      1.0  0.85505  0.47947  0.98852  1.0000
  C   C690      1.0  0.89222  0.35327  0.34607  1.0000
  H   H802      1.0  0.90829  0.38202  0.27776  1.0000
  H   H803      1.0  0.86476  0.35437  0.35123  1.0000
  C   C691      1.0  0.79260  0.57687  0.44970  1.0000
  H   H804      1.0  0.91031  0.51289  0.16049  1.0000
  C   C692      1.0  0.98255  0.39216  0.30695  1.0000
  H   H805      1.0  0.85830  0.58117  0.45767  1.0000
  H   H806      1.0  0.81019  0.52392  0.41215  1.0000
  H   H807      1.0  0.83235  0.61129  0.14549  1.0000
  H   H808      1.0  0.99266  0.41779  0.36093  1.0000
  C   C693      1.0  0.80543  0.61252  0.14584  1.0000
  H   H809      1.0  0.74818  0.64314  0.13593  1.0000
  H   H810      1.0  0.83198  0.56515  0.12795  1.0000
  H   H811      1.0  0.98028  0.44184  0.32521  1.0000
  N   N46       1.0  0.79879  0.58161  0.15332  1.0000
  C   C694      1.0  0.75801  0.63083  0.14052  1.0000
  H   H812      1.0  0.73099  0.59141  0.15160  1.0000
  H   H813      1.0  0.94589  0.55185  0.16548  1.0000
  C   C695      1.0  0.93987  0.33470  0.34032  1.0000
  C   C696      1.0  0.98832  0.64693  0.06299  1.0000
  H   H814      1.0  0.90437  0.36033  0.36382  1.0000
  C   C697      1.0  0.94177  0.52603  0.10576  1.0000
  H   H815      1.0  0.80440  0.58364  0.42983  1.0000
  H   H816      1.0  0.83961  0.58962  0.17963  1.0000
  H   H817      1.0  0.80840  0.57930  0.10556  1.0000
  H   H818      1.0  0.93022  0.51048  0.45553  1.0000
  H   H819      1.0  0.91604  0.52132  0.11161  1.0000
  C   C698      1.0  0.93545  0.51080  0.16759  1.0000
  N   N47       1.0  0.73722  0.42693  0.24769  1.0000
  C   C699      1.0  0.72303  0.43192  0.21871  1.0000
  C   C700      1.0  0.72611  0.43902  0.27121  1.0000
  C   C701      1.0  0.77423  0.42821  0.24333  1.0000
  C   C702      1.0  0.72544  0.41008  0.25701  1.0000
  C   C703      1.0  0.69064  0.40679  0.26169  1.0000
  C   C704      1.0  0.74767  0.39670  0.26266  1.0000
  C   C705      1.0  0.67891  0.39115  0.27154  1.0000
  C   C706      1.0  0.73570  0.38117  0.27274  1.0000
  C   C707      1.0  0.70142  0.37839  0.27716  1.0000
  H   H820      1.0  0.72996  0.42281  0.20069  1.0000
  H   H821      1.0  0.69530  0.43291  0.22055  1.0000
  H   H822      1.0  0.73246  0.44437  0.21079  1.0000
  H   H823      1.0  0.69844  0.44029  0.27355  1.0000
  H   H824      1.0  0.73617  0.45172  0.26602  1.0000
  H   H825      1.0  0.73484  0.43520  0.29369  1.0000
  H   H826      1.0  0.78452  0.41954  0.22576  1.0000
  H   H827      1.0  0.78232  0.44094  0.23595  1.0000
  H   H828      1.0  0.78657  0.42555  0.26471  1.0000
  H   H829      1.0  0.67226  0.41637  0.25811  1.0000
  H   H830      1.0  0.77452  0.39791  0.25979  1.0000
  H   H831      1.0  0.65224  0.38894  0.27512  1.0000
  H   H832      1.0  0.75884  0.56749  0.13516  1.0000
  H   H833      1.0  0.69237  0.36632  0.28511  1.0000
  H   H834      1.0  0.80193  0.58399  0.20131  1.0000
  C   C708      1.0  0.96076  0.34087  0.36252  1.0000
  C   C709      1.0  0.93965  0.49863  0.18988  1.0000
  C   C710      1.0  0.82284  0.49453  0.46593  1.0000
  H   H835      1.0  0.79541  0.56325  0.44549  1.0000
  C   C711      1.0  0.95645  0.38225  0.29754  1.0000
  H   H836      1.0  0.84366  0.58643  0.12459  1.0000
  H   H837      1.0  0.82874  0.56820  0.18451  1.0000
  S   S191      1.0  0.79139  0.33540  0.34847  1.0000
  H   H838      1.0  0.83712  0.65447  0.06683  1.0000
  H   H839      1.0  0.95690  0.51558  0.09602  1.0000
  H   H840      1.0  0.89765  0.46780  0.44238  1.0000
  C   C712      1.0  0.92489  0.46874  0.44634  1.0000
  H   H841      1.0  0.74250  0.65716  0.99900  1.0000
  H   H842      1.0  0.97310  0.53120  0.42421  1.0000
  C   C713      1.0  0.93516  0.54631  0.14527  1.0000
  C   C714      1.0  0.80603  0.59997  0.48202  1.0000
  H   H843      1.0  0.89000  0.33352  0.29846  1.0000
  H   H844      1.0  0.76523  0.57930  0.45038  1.0000
  H   H845      1.0  0.93214  0.45742  0.45909  1.0000
  H   H846      1.0  0.93084  0.55651  0.12869  1.0000
  H   H847      1.0  0.93781  0.46829  0.42350  1.0000
  C   C715      1.0  0.84286  0.57519  0.47643  1.0000
  H   H848      1.0  0.98669  0.48194  0.42182  1.0000
  H   H849      1.0  0.88351  0.48361  0.48565  1.0000
  S   S192      1.0  0.80660  0.52757  0.47705  1.0000
  H   H850      1.0  0.96498  0.49540  0.99285  1.0000
  H   H851      1.0  0.74765  0.63144  0.48675  1.0000
  Fe  Fe97      1.0  0.85760  0.44605  0.84455  1.0000
  S   S193      1.0  0.80725  0.44508  0.86888  1.0000
  S   S194      1.0  0.90109  0.43717  0.86970  1.0000
  Fe  Fe98      1.0  0.83165  0.46120  0.78621  1.0000
  S   S195      1.0  0.77880  0.46111  0.80653  1.0000
  S   S196      1.0  0.85169  0.46911  0.73861  1.0000
  Fe  Fe99      1.0  0.80094  0.47068  0.84903  1.0000
  S   S197      1.0  0.78992  0.49517  0.87282  1.0000
  Fe  Fe100     1.0  0.79087  0.43527  0.82457  1.0000
  S   S198      1.0  0.75862  0.41193  0.82075  1.0000
  S   S199      1.0  0.85299  0.47210  0.82740  1.0000
  S   S200      1.0  0.84212  0.43492  0.80165  1.0000
  Fe  Fe101     1.0  0.88532  0.52505  0.56015  1.0000
  S   S201      1.0  0.86626  0.54035  0.59934  1.0000
  S   S202      1.0  0.93542  0.51270  0.55641  1.0000
  Fe  Fe102     1.0  0.82332  0.52929  0.52533  1.0000
  S   S203      1.0  0.79751  0.54450  0.56258  1.0000
  H   H852      1.0  0.79003  0.55961  0.50145  1.0000
  Fe  Fe103     1.0  0.84639  0.55805  0.56476  1.0000
  S   S204      1.0  0.85748  0.58597  0.56750  1.0000
  Fe  Fe104     1.0  0.81908  0.52581  0.59512  1.0000
  S   S205      1.0  0.79147  0.51783  0.63952  1.0000
  S   S206      1.0  0.87089  0.54391  0.52604  1.0000
  S   S207      1.0  0.83952  0.50934  0.55751  1.0000
  S   S208      1.0  0.81651  0.33749  0.82445  1.0000
  C   C716      1.0  0.83545  0.60533  0.56739  1.0000
  C   C717      1.0  0.85383  0.62018  0.56895  1.0000
  C   C718      1.0  0.83780  0.63586  0.56871  1.0000
  C   C719      1.0  0.80307  0.63691  0.56668  1.0000
  C   C720      1.0  0.78463  0.62203  0.56556  1.0000
  C   C721      1.0  0.80061  0.60635  0.56614  1.0000
  H   H853      1.0  0.88075  0.61959  0.57019  1.0000
  H   H854      1.0  0.85238  0.64715  0.56953  1.0000
  H   H855      1.0  0.75776  0.62267  0.56403  1.0000
  H   H856      1.0  0.78588  0.59514  0.56556  1.0000
  C   C722      1.0  0.78725  0.49917  0.91215  1.0000
  C   C723      1.0  0.80381  0.51312  0.92291  1.0000
  H   H857      1.0  0.88447  0.46967  0.89592  1.0000
  H   H858      1.0  0.82478  0.62474  0.63294  1.0000
  H   H859      1.0  0.78562  0.63698  0.67163  1.0000
  C   C724      1.0  0.76608  0.48997  0.93222  1.0000
  H   H860      1.0  0.81961  0.52055  0.90743  1.0000
  C   C725      1.0  0.72689  0.36160  0.90601  1.0000
  H   H861      1.0  0.75488  0.40097  0.89137  1.0000
  H   H862      1.0  0.75253  0.47946  0.92407  1.0000
  C   C726      1.0  0.83449  0.48298  0.71181  1.0000
  C   C727      1.0  0.80290  0.49033  0.71659  1.0000
  C   C728      1.0  0.79014  0.50095  0.69431  1.0000
  C   C729      1.0  0.80876  0.50443  0.66705  1.0000
  C   C730      1.0  0.84046  0.49718  0.66240  1.0000
  C   C731      1.0  0.85312  0.48649  0.68457  1.0000
  H   H863      1.0  0.78823  0.48779  0.73738  1.0000
  H   H864      1.0  0.76559  0.50645  0.69821  1.0000
  H   H865      1.0  0.85511  0.49967  0.64158  1.0000
  H   H866      1.0  0.87751  0.48084  0.68051  1.0000
  C   C732      1.0  0.77495  0.39126  0.82144  1.0000
  C   C733      1.0  0.80911  0.38811  0.82394  1.0000
  C   C734      1.0  0.82115  0.37160  0.82464  1.0000
  C   C735      1.0  0.79933  0.35797  0.82296  1.0000
  C   C736      1.0  0.76513  0.36110  0.82037  1.0000
  C   C737      1.0  0.75309  0.37764  0.81954  1.0000
  H   H867      1.0  0.82630  0.39838  0.82549  1.0000
  H   H868      1.0  0.84761  0.36938  0.82670  1.0000
  H   H869      1.0  0.74798  0.35080  0.81895  1.0000
  H   H870      1.0  0.72661  0.37989  0.81768  1.0000
  C   C738      1.0  0.96483  0.45162  0.80084  1.0000
  C   C739      1.0  0.93547  0.44796  0.81829  1.0000
  C   C740      1.0  0.93736  0.44046  0.84678  1.0000
  C   C741      1.0  0.96844  0.43609  0.85738  1.0000
  C   C742      1.0  0.78753  0.36232  0.90163  1.0000
  H   H871      1.0  0.91146  0.45109  0.80976  1.0000
  H   H872      1.0  0.96988  0.43004  0.87921  1.0000
  N   N48       1.0  0.87481  0.47225  0.94418  1.0000
  H   H873      1.0  0.82554  0.48063  0.95987  1.0000
  C   C743      1.0  0.96558  0.52697  0.56610  1.0000
  C   C744      1.0  0.95710  0.54371  0.56997  1.0000
  C   C745      1.0  0.96325  0.48665  0.72522  1.0000
  H   H874      1.0  0.92450  0.50123  0.70619  1.0000
  H   H875      1.0  0.93193  0.54795  0.56658  1.0000
  N   N49       1.0  0.78865  0.41919  0.72530  1.0000
  C   C746      1.0  0.77920  0.43426  0.74268  1.0000
  C   C747      1.0  0.78871  0.42332  0.69255  1.0000
  C   C748      1.0  0.76218  0.40652  0.73203  1.0000
  C   C749      1.0  0.82245  0.41364  0.73325  1.0000
  C   C750      1.0  0.85079  0.42387  0.72618  1.0000
  C   C751      1.0  0.82823  0.39844  0.74889  1.0000
  C   C752      1.0  0.88279  0.41924  0.73438  1.0000
  C   C753      1.0  0.86040  0.39389  0.75681  1.0000
  C   C754      1.0  0.88758  0.40429  0.74970  1.0000
  H   H876      1.0  0.79698  0.44471  0.73793  1.0000
  H   H877      1.0  0.75388  0.43891  0.73757  1.0000
  H   H878      1.0  0.77877  0.43158  0.76737  1.0000
  H   H879      1.0  0.80445  0.43436  0.68634  1.0000
  H   H880      1.0  0.76316  0.42647  0.68547  1.0000
  H   H881      1.0  0.79832  0.41270  0.67869  1.0000
  H   H882      1.0  0.75907  0.40371  0.75673  1.0000
  H   H883      1.0  0.73720  0.41090  0.72535  1.0000
  H   H884      1.0  0.76786  0.39474  0.71986  1.0000
  H   H885      1.0  0.84831  0.43583  0.71514  1.0000
  H   H886      1.0  0.80830  0.38996  0.75589  1.0000
  H   H887      1.0  0.90378  0.42755  0.72949  1.0000
  H   H888      1.0  0.86409  0.38234  0.76911  1.0000
  H   H889      1.0  0.91231  0.40088  0.75650  1.0000
  C   C755      1.0  0.91031  0.48445  0.49077  1.0000
  C   C756      1.0  0.81014  0.61666  0.64837  1.0000
  C   C757      1.0  0.92719  0.51703  0.90893  1.0000
  H   H890      1.0  0.96336  0.45773  0.77910  1.0000
  H   H891      1.0  0.76291  0.57714  0.50611  1.0000
  C   C758      1.0  0.98132  0.55508  0.57820  1.0000
  H   H892      1.0  0.83671  0.45319  0.94588  1.0000
  C   C759      1.0  0.76058  0.49508  0.96244  1.0000
  H   H893      1.0  0.85522  0.57709  0.49805  1.0000
  H   H894      1.0  0.74310  0.48830  0.97747  1.0000
  C   C760      1.0  0.97989  0.47624  0.96143  1.0000
  H   H895      1.0  0.86962  0.45001  0.97151  1.0000
  C   C761      1.0  0.94577  0.52211  0.93282  1.0000
  H   H896      1.0  0.70220  0.38520  0.89985  1.0000
  H   H897      1.0  0.80113  0.57637  0.52543  1.0000
  C   C762      1.0  0.75771  0.35280  0.90645  1.0000
  C   C763      1.0  0.77151  0.59592  0.68745  1.0000
  H   H898      1.0  0.96727  0.35114  0.85677  1.0000
  C   C764      1.0  0.94242  0.50800  0.88507  1.0000
  H   H899      1.0  0.92823  0.45505  0.91801  1.0000
  H   H900      1.0  0.81213  0.35675  0.90058  1.0000
  H   H901      1.0  0.85897  0.60462  0.49020  1.0000
  C   C765      1.0  0.97373  0.50970  0.69026  1.0000
  H   H902      1.0  0.97323  0.64588  0.58354  1.0000
  N   N50       1.0  0.79591  0.57026  0.66095  1.0000
  C   C766      1.0  0.77491  0.56045  0.68345  1.0000
  C   C767      1.0  0.78477  0.56626  0.63056  1.0000
  C   C768      1.0  0.83105  0.56456  0.66306  1.0000
  C   C769      1.0  0.79368  0.58847  0.66528  1.0000
  C   C770      1.0  0.81311  0.59940  0.64602  1.0000
  H   H903      1.0  0.78222  0.56271  0.70690  1.0000
  H   H904      1.0  0.74779  0.56324  0.68185  1.0000
  H   H905      1.0  0.77762  0.54679  0.67969  1.0000
  H   H906      1.0  0.75900  0.57100  0.62748  1.0000
  H   H907      1.0  0.78448  0.55259  0.62690  1.0000
  H   H908      1.0  0.80148  0.57176  0.61216  1.0000
  H   H909      1.0  0.84107  0.56822  0.68494  1.0000
  H   H910      1.0  0.83313  0.55076  0.66135  1.0000
  H   H911      1.0  0.84806  0.56974  0.64459  1.0000
  H   H912      1.0  0.83040  0.59468  0.62858  1.0000
  H   H913      1.0  0.75572  0.58868  0.70315  1.0000
  C   C771      1.0  0.95135  0.49942  0.70722  1.0000
  C   C772      1.0  0.96915  0.46492  0.94054  1.0000
  C   C773      1.0  0.75564  0.38773  0.89628  1.0000
  C   C774      1.0  0.78803  0.62357  0.67012  1.0000
  H   H914      1.0  0.71428  0.33044  0.88527  1.0000
  H   H915      1.0  0.75172  0.61870  0.70663  1.0000
  C   C775      1.0  0.72599  0.37879  0.90087  1.0000
  C   C776      1.0  0.76891  0.61323  0.68973  1.0000
  H   H916      1.0  0.85292  0.63419  0.49813  1.0000
  H   H917      1.0  0.90080  0.52022  0.90890  1.0000
  H   H918      1.0  0.80926  0.38651  0.89243  1.0000
  H   H919      1.0  0.82234  0.49289  0.49021  1.0000
  H   H920      1.0  0.84278  0.47586  0.90702  1.0000
  H   H921      1.0  0.92654  0.50448  0.86731  1.0000
  C   C777      1.0  0.97964  0.51812  0.93310  1.0000
  H   H922      1.0  0.96361  0.50367  0.82377  1.0000
  H   H923      1.0  0.93385  0.52907  0.95132  1.0000
  C   C778      1.0  0.83128  0.62696  0.49262  1.0000
  H   H924      1.0  0.97240  0.61618  0.59379  1.0000
  H   H925      1.0  0.96383  0.48752  0.51830  1.0000
  C   C779      1.0  0.98058  0.48623  0.49851  1.0000
  C   C780      1.0  0.93521  0.46388  0.93470  1.0000
  C   C781      1.0  0.97315  0.49185  0.83338  1.0000
  C   C782      1.0  0.77684  0.50915  0.97311  1.0000
  C   C783      1.0  0.86948  0.47729  0.91251  1.0000
  C   C784      1.0  0.79907  0.51794  0.95332  1.0000
  H   H926      1.0  0.90766  0.34806  0.84816  1.0000
  H   H927      1.0  0.81136  0.52892  0.96107  1.0000
  N   N51       1.0  0.75788  0.33453  0.91113  1.0000
  C   C785      1.0  0.78630  0.37953  0.89686  1.0000
  C   C786      1.0  0.91074  0.47394  0.95019  1.0000
  H   H928      1.0  0.87620  0.49053  0.90829  1.0000
  H   H929      1.0  0.90618  0.49388  0.98385  1.0000
  H   H930      1.0  0.71289  0.33342  0.94069  1.0000
  H   H931      1.0  0.87655  0.44625  0.93171  1.0000
  C   C787      1.0  0.86409  0.45468  0.94858  1.0000
  H   H932      1.0  0.97470  0.56803  0.58122  1.0000
  S   S209      1.0  0.78173  0.65632  0.56340  1.0000
  H   H933      1.0  0.79779  0.64787  0.49666  1.0000
  C   C788      1.0  0.92259  0.48542  0.97130  1.0000
  H   H934      1.0  0.91287  0.49627  0.50326  1.0000
  H   H935      1.0  0.75110  0.33645  0.95943  1.0000
  C   C789      1.0  0.95664  0.48644  0.97679  1.0000
  H   H936      1.0  0.80632  0.33250  0.93009  1.0000
  H   H937      1.0  0.70321  0.35520  0.90907  1.0000
  C   C790      1.0  0.80019  0.63471  0.49180  1.0000
  H   H938      1.0  0.94570  0.47866  0.73809  1.0000
  H   H939      1.0  0.98734  0.48532  0.81463  1.0000
  H   H940      1.0  0.74926  0.66040  0.95885  1.0000
  H   H941      1.0  0.96269  0.51919  0.67652  1.0000
  H   H942      1.0  0.85708  0.49611  0.96060  1.0000
  C   C791      1.0  0.97710  0.50391  0.88446  1.0000
  H   H943      1.0  0.91529  0.47383  0.50621  1.0000
  C   C792      1.0  0.92570  0.33934  0.83822  1.0000
  C   C793      1.0  0.95989  0.34103  0.84278  1.0000
  H   H944      1.0  0.98728  0.45690  0.92878  1.0000
  C   C794      1.0  0.85237  0.48257  0.96423  1.0000
  H   H945      1.0  0.95159  0.48360  0.84008  1.0000
  C   C795      1.0  0.78966  0.57338  0.50385  1.0000
  H   H946      1.0  0.70774  0.66114  0.97642  1.0000
  H   H947      1.0  0.99389  0.52196  0.95193  1.0000
  H   H948      1.0  0.98479  0.47037  0.87705  1.0000
  C   C796      1.0  0.73987  0.33008  0.94029  1.0000
  C   C797      1.0  0.83434  0.60984  0.48800  1.0000
  C   C798      1.0  0.98394  0.32973  0.83001  1.0000
  N   N52       1.0  0.99451  0.49494  0.85913  1.0000
  Fe  Fe105     1.0  0.62734  0.93434  0.35351  1.0000
  S   S210      1.0  0.58642  0.94984  0.33466  1.0000
  S   S211      1.0  0.61681  0.90616  0.35481  1.0000
  Fe  Fe106     1.0  0.65900  0.96562  0.37935  1.0000
  S   S212      1.0  0.62067  0.98317  0.36210  1.0000
  S   S213      1.0  0.70016  0.97288  0.41008  1.0000
  Fe  Fe107     1.0  0.58453  0.96348  0.37827  1.0000
  S   S214      1.0  0.53658  0.96887  0.40480  1.0000
  Fe  Fe108     1.0  0.62551  0.96859  0.31881  1.0000
  S   S215      1.0  0.61053  0.98166  0.27527  1.0000
  S   S216      1.0  0.62208  0.94691  0.39856  1.0000
  S   S217      1.0  0.66744  0.95210  0.33461  1.0000
  Fe  Fe109     1.0  0.78700  0.68975  0.07704  1.0000
  S   S218      1.0  0.80658  0.70127  0.11870  1.0000
  H   H949      1.0  0.60855  0.77814  0.26541  1.0000
  Fe  Fe110     1.0  0.79401  0.72220  0.04010  1.0000
  S   S219      1.0  0.81607  0.73580  0.07858  1.0000
  H   H950      1.0  0.65624  0.73663  0.24914  1.0000
  Fe  Fe111     1.0  0.84642  0.71266  0.08654  1.0000
  S   S220      1.0  0.89795  0.71147  0.10683  1.0000
  Fe  Fe112     1.0  0.77546  0.72382  0.10875  1.0000
  S   S221      1.0  0.74499  0.74157  0.14027  1.0000
  S   S222      1.0  0.82823  0.69990  0.04550  1.0000
  S   S223      1.0  0.75192  0.71143  0.06963  1.0000
  Fe  Fe113     1.0  0.66979  0.80863  0.34366  1.0000
  S   S224      1.0  0.62841  0.79785  0.37464  1.0000
  S   S225      1.0  0.69043  0.83528  0.34447  1.0000
  Fe  Fe114     1.0  0.68297  0.77498  0.31068  1.0000
  S   S226      1.0  0.64171  0.76265  0.33937  1.0000
  S   S227      1.0  0.71456  0.75655  0.28126  1.0000
  Fe  Fe115     1.0  0.61097  0.78575  0.33253  1.0000
  S   S228      1.0  0.55969  0.78616  0.31130  1.0000
  Fe  Fe116     1.0  0.66297  0.77551  0.37914  1.0000
  S   S229      1.0  0.66916  0.75917  0.42186  1.0000
  S   S230      1.0  0.65133  0.79747  0.30131  1.0000
  S   S231      1.0  0.70522  0.78704  0.35076  1.0000
  H   H951      1.0  0.76515  0.89835  0.42514  1.0000
  C   C799      1.0  0.75990  0.75558  0.46133  1.0000
  C   C800      1.0  0.73432  0.76079  0.44252  1.0000
  C   C801      1.0  0.70237  0.75365  0.44576  1.0000
  H   H952      1.0  0.50977  0.94158  0.35181  1.0000
  C   C802      1.0  0.51549  0.97583  0.34857  1.0000
  C   C803      1.0  0.53020  0.91486  0.32207  1.0000
  H   H953      1.0  0.73936  0.77041  0.42565  1.0000
  H   H954      1.0  0.63588  0.99095  0.10902  1.0000
  C   C804      1.0  0.68143  0.87535  0.41617  1.0000
  C   C805      1.0  0.73773  0.74565  0.17965  1.0000
  C   C806      1.0  0.75070  0.73561  0.20224  1.0000
  C   C807      1.0  0.74370  0.73930  0.23307  1.0000
  C   C808      1.0  0.72368  0.75306  0.24186  1.0000
  C   C809      1.0  0.71114  0.76324  0.21928  1.0000
  C   C810      1.0  0.71804  0.75951  0.18846  1.0000
  H   H955      1.0  0.76567  0.72484  0.19599  1.0000
  H   H956      1.0  0.75355  0.73130  0.25023  1.0000
  H   H957      1.0  0.69606  0.77396  0.22548  1.0000
  H   H958      1.0  0.70790  0.76741  0.17127  1.0000
  H   H959      1.0  0.69198  0.98075  0.01608  1.0000
  C   C811      1.0  0.51702  0.78368  0.32472  1.0000
  H   H960      1.0  0.53820  0.93109  0.37510  1.0000
  H   H961      1.0  0.52694  0.77718  0.37057  1.0000
  C   C812      1.0  0.94715  0.72370  0.06514  1.0000
  C   C813      1.0  0.93955  0.71677  0.09379  1.0000
  C   C814      1.0  0.96578  0.71406  0.11320  1.0000
  H   H962      1.0  0.75158  0.92441  0.44775  1.0000
  H   H963      1.0  0.92731  0.72595  0.04997  1.0000
  H   H964      1.0  0.96017  0.70888  0.13555  1.0000
  H   H965      1.0  0.61492  0.74168  0.28350  1.0000
  H   H966      1.0  0.67178  0.73599  0.47173  1.0000
  H   H967      1.0  0.56984  0.77048  0.21486  1.0000
  H   H968      1.0  0.54435  0.90147  0.37420  1.0000
  H   H969      1.0  0.74137  0.94198  0.42482  1.0000
  C   C815      1.0  0.98061  0.72772  0.05603  1.0000
  H   H970      1.0  0.71489  0.73121  0.00078  1.0000
  C   C816      1.0  0.64768  0.95063  0.05626  1.0000
  H   H971      1.0  0.98620  0.73297  0.03372  1.0000
  C   C817      1.0  0.63785  0.88667  0.35003  1.0000
  C   C818      1.0  0.67235  0.88540  0.34313  1.0000
  C   C819      1.0  0.68786  0.86960  0.34109  1.0000
  C   C820      1.0  0.66916  0.85485  0.34557  1.0000
  C   C821      1.0  0.63457  0.85613  0.35191  1.0000
  C   C822      1.0  0.61911  0.87192  0.35421  1.0000
  H   H972      1.0  0.68717  0.89655  0.33973  1.0000
  H   H973      1.0  0.71462  0.86880  0.33623  1.0000
  H   H974      1.0  0.61982  0.84495  0.35550  1.0000
  H   H975      1.0  0.59244  0.87269  0.35954  1.0000
  H   H976      1.0  0.97829  0.68184  0.06761  1.0000
  C   C823      1.0  0.74008  0.77725  0.00864  1.0000
  H   H977      1.0  0.54137  0.97852  0.34194  1.0000
  C   C824      1.0  0.59174  0.74551  0.27261  1.0000
  N   N53       1.0  0.73918  0.73095  0.36239  1.0000
  C   C825      1.0  0.75931  0.72352  0.33683  1.0000
  C   C826      1.0  0.74602  0.74905  0.36271  1.0000
  C   C827      1.0  0.74846  0.72315  0.39122  1.0000
  C   C828      1.0  0.72520  0.71427  0.41079  1.0000
  C   C829      1.0  0.78187  0.72420  0.40039  1.0000
  C   C830      1.0  0.73505  0.70688  0.43764  1.0000
  C   C831      1.0  0.79126  0.71700  0.42752  1.0000
  C   C832      1.0  0.76794  0.70832  0.44605  1.0000
  H   H978      1.0  0.78650  0.72605  0.33804  1.0000
  H   H979      1.0  0.68665  0.73476  0.37424  1.0000
  H   H980      1.0  0.77254  0.75198  0.36646  1.0000
  H   H981      1.0  0.74031  0.75515  0.34093  1.0000
  H   H982      1.0  0.73031  0.75519  0.38082  1.0000
  H   H983      1.0  0.69905  0.71318  0.40634  1.0000
  H   H984      1.0  0.80091  0.73086  0.38691  1.0000
  H   H985      1.0  0.52561  0.90390  0.30785  1.0000
  H   H986      1.0  0.81655  0.71851  0.43473  1.0000
  H   H987      1.0  0.64409  0.99146  0.44235  1.0000
  H   H988      1.0  0.61385  0.73242  0.14666  1.0000
  C   C833      1.0  0.60446  0.74264  0.19115  1.0000
  C   C834      1.0  0.64547  0.73557  0.22742  1.0000
  C   C835      1.0  0.66293  0.72602  0.20560  1.0000
  C   C836      1.0  0.65166  0.72498  0.17656  1.0000
  H   H989      1.0  0.68598  0.71981  0.21094  1.0000
  H   H990      1.0  0.66598  0.71803  0.15944  1.0000
  H   H991      1.0  0.78446  0.76117  0.45836  1.0000
  H   H992      1.0  0.55374  0.76948  0.25301  1.0000
  H   H993      1.0  0.70532  0.99263  0.20079  1.0000
  C   C837      1.0  0.56631  0.76192  0.23469  1.0000
  H   H994      1.0  0.69638  0.71558  0.35452  1.0000
  H   H995      1.0  0.65847  0.86868  0.41256  1.0000
  N   N54       1.0  0.59871  0.75495  0.24393  1.0000
  C   C838      1.0  0.74101  0.87513  0.42173  1.0000
  N   N55       1.0  0.84897  0.75600  0.16202  1.0000
  C   C839      1.0  0.83203  0.76129  0.19104  1.0000
  C   C840      1.0  0.83383  0.76564  0.13748  1.0000
  C   C841      1.0  0.84153  0.73811  0.15830  1.0000
  C   C842      1.0  0.88574  0.75854  0.16033  1.0000
  C   C843      1.0  0.90313  0.76554  0.18427  1.0000
  C   C844      1.0  0.90538  0.75384  0.13410  1.0000
  C   C845      1.0  0.93796  0.76756  0.18190  1.0000
  C   C846      1.0  0.94013  0.75590  0.13201  1.0000
  C   C847      1.0  0.95641  0.76271  0.15587  1.0000
  H   H996      1.0  0.83562  0.77479  0.19497  1.0000
  H   H997      1.0  0.80443  0.75930  0.19125  1.0000
  H   H998      1.0  0.84110  0.75403  0.21050  1.0000
  H   H999      1.0  0.83872  0.77918  0.13955  1.0000
  H   H1000     1.0  0.80615  0.76382  0.13774  1.0000
  H   H1001     1.0  0.84389  0.76190  0.11471  1.0000
  H   H1002     1.0  0.85058  0.73346  0.13586  1.0000
  H   H1003     1.0  0.85376  0.73032  0.17546  1.0000
  H   H1004     1.0  0.81413  0.73558  0.16024  1.0000
  H   H1005     1.0  0.89048  0.76950  0.20510  1.0000
  H   H1006     1.0  0.89411  0.74830  0.11502  1.0000
  H   H1007     1.0  0.95082  0.77285  0.20041  1.0000
  H   H1008     1.0  0.52762  0.92624  0.30789  1.0000
  H   H1009     1.0  0.49912  0.97829  0.30325  1.0000
  N   N56       1.0  0.71064  0.92028  0.41906  1.0000
  C   C848      1.0  0.74320  0.92811  0.42511  1.0000
  C   C849      1.0  0.70175  0.92574  0.38850  1.0000
  C   C850      1.0  0.68528  0.92682  0.44167  1.0000
  C   C851      1.0  0.71118  0.90187  0.42027  1.0000
  C   C852      1.0  0.68131  0.89272  0.41694  1.0000
  C   C853      1.0  0.74116  0.89253  0.42285  1.0000
  H   H1010     1.0  0.61960  0.98861  0.07214  1.0000
  H   H1011     1.0  0.71226  0.99058  0.05978  1.0000
  C   C854      1.0  0.64396  0.93962  0.03249  1.0000
  H   H1012     1.0  0.76420  0.86822  0.42299  1.0000
  H   H1013     1.0  0.65774  0.89891  0.41356  1.0000
  H   H1014     1.0  0.78065  0.67820  0.01141  1.0000
  C   C855      1.0  0.76200  0.78758  0.99169  1.0000
  H   H1015     1.0  0.70190  0.93954  0.38628  1.0000
  H   H1016     1.0  0.67641  0.92145  0.38302  1.0000
  H   H1017     1.0  0.69028  0.92239  0.46486  1.0000
  H   H1018     1.0  0.68510  0.94070  0.44184  1.0000
  H   H1019     1.0  0.65936  0.92313  0.43701  1.0000
  H   H1020     1.0  0.54847  0.75189  0.22949  1.0000
  C   C856      1.0  0.50602  0.97197  0.37869  1.0000
  C   C857      1.0  0.71126  0.86658  0.41818  1.0000
  N   N57       1.0  0.66800  0.97751  0.07718  1.0000
  C   C858      1.0  0.69691  0.98595  0.44243  1.0000
  H   H1021     1.0  0.63032  0.92809  0.03639  1.0000
  H   H1022     1.0  0.69713  0.73505  0.33462  1.0000
  H   H1023     1.0  0.49717  0.81295  0.38192  1.0000
  C   C859      1.0  0.70326  0.72890  0.35629  1.0000
  H   H1024     1.0  0.71974  0.92078  0.37074  1.0000
  H   H1025     1.0  0.76303  0.92496  0.40749  1.0000
  H   H1026     1.0  0.75589  0.70979  0.33647  1.0000
  H   H1027     1.0  0.75200  0.72869  0.31466  1.0000
  H   H1028     1.0  0.51389  0.88863  0.35797  1.0000
  C   C860      1.0  0.62239  0.73319  0.16939  1.0000
  C   C861      1.0  0.61562  0.74416  0.22091  1.0000
  H   H1029     1.0  0.57739  0.75313  0.28978  1.0000
  H   H1030     1.0  0.72510  0.68155  0.03179  1.0000
  H   H1031     1.0  0.68001  0.98096  0.24911  1.0000
  H   H1032     1.0  0.58227  0.74883  0.18391  1.0000
  C   C862      1.0  0.67865  0.96941  0.02198  1.0000
  C   C863      1.0  0.68633  0.96928  0.10146  1.0000
  H   H1033     1.0  0.57680  0.73415  0.26880  1.0000
  C   C864      1.0  0.66490  0.96596  0.05170  1.0000
  H   H1034     1.0  0.74948  0.76909  0.02591  1.0000
  H   H1035     1.0  0.62857  0.77594  0.22847  1.0000
  H   H1036     1.0  0.71134  0.85314  0.41625  1.0000
  C   C865      1.0  0.62105  0.76908  0.24974  1.0000
  H   H1037     1.0  0.63672  0.94711  0.07823  1.0000
  H   H1038     1.0  0.64442  0.76499  0.26015  1.0000
  C   C866      1.0  0.69636  0.74156  0.46875  1.0000
  C   C867      1.0  0.77389  0.68545  0.99101  1.0000
  H   H1039     1.0  0.74948  0.98307  0.44908  1.0000
  H   H1040     1.0  0.67266  0.95835  0.11146  1.0000
  H   H1041     1.0  0.77512  0.70320  0.46752  1.0000
  C   C868      1.0  0.63423  0.98231  0.08971  1.0000
  H   H1042     1.0  0.52693  0.83735  0.29845  1.0000
  C   C869      1.0  0.72623  0.98869  0.45745  1.0000
  C   C870      1.0  0.68614  0.99309  0.06850  1.0000
  H   H1043     1.0  0.68951  0.76856  0.01534  1.0000
  C   C871      1.0  0.50779  0.77928  0.35466  1.0000
  H   H1044     1.0  0.71151  0.96501  0.09276  1.0000
  H   H1045     1.0  0.69004  0.97790  0.12056  1.0000
  C   C872      1.0  0.50724  0.83353  0.31488  1.0000
  C   C873      1.0  0.71714  0.68772  0.01069  1.0000
  H   H1046     1.0  0.61932  0.97154  0.09863  1.0000
  C   C874      1.0  0.63061  0.99022  0.24176  1.0000
  C   C875      1.0  0.67502  0.95824  0.99847  1.0000
  C   C876      1.0  0.66473  0.98795  0.23407  1.0000
  H   H1047     1.0  0.54165  0.82223  0.34466  1.0000
  H   H1048     1.0  0.95459  0.75201  0.11184  1.0000
  H   H1049     1.0  0.55699  0.91453  0.32763  1.0000
  C   C877      1.0  0.75406  0.74328  0.48392  1.0000
  C   C878      1.0  0.51564  0.82511  0.34101  1.0000
  H   H1050     1.0  0.71677  0.70054  0.45265  1.0000
  H   H1051     1.0  0.52864  0.98718  0.46187  1.0000
  H   H1052     1.0  0.49832  0.78964  0.28118  1.0000
  H   H1053     1.0  0.98342  0.76415  0.15416  1.0000
  C   C879      1.0  0.70629  0.77696  0.00261  1.0000
  H   H1054     1.0  0.77858  0.69877  0.99584  1.0000
  C   C880      1.0  0.65752  0.94346  0.00362  1.0000
  C   C881      1.0  0.67898  0.99457  0.20661  1.0000
  C   C882      1.0  0.66695  0.99344  0.45373  1.0000
  H   H1055     1.0  0.71842  0.70140  0.01392  1.0000
  C   C883      1.0  0.51734  0.90075  0.36919  1.0000
  S   S232      1.0  0.78851  0.73500  0.99375  1.0000
  H   H1056     1.0  0.69041  0.68441  0.00881  1.0000
  N   N58       1.0  0.50740  0.91488  0.34972  1.0000
  C   C884      1.0  0.51264  0.93041  0.36640  1.0000
  S   S233      1.0  0.76567  0.66335  0.07367  1.0000
  H   H1057     1.0  0.50308  0.90078  0.39149  1.0000
  H   H1058     1.0  0.78841  0.78746  0.99605  1.0000
  Fe  Fe117     1.0  0.62551  0.93381  0.83876  1.0000
  S   S234      1.0  0.60094  0.95015  0.80453  1.0000
  S   S235      1.0  0.61688  0.90618  0.82856  1.0000
  Fe  Fe118     1.0  0.64979  0.96464  0.87226  1.0000
  S   S236      1.0  0.62805  0.98274  0.83965  1.0000
  H   H1059     1.0  0.70932  0.74477  0.59557  1.0000
  Fe  Fe119     1.0  0.58369  0.96576  0.84383  1.0000
  S   S237      1.0  0.53347  0.97806  0.85083  1.0000
  Fe  Fe120     1.0  0.64722  0.96574  0.80282  1.0000
  S   S238      1.0  0.67071  0.97233  0.75602  1.0000
  S   S239      1.0  0.60391  0.94851  0.87852  1.0000
  S   S240      1.0  0.67338  0.94867  0.83488  1.0000
  Fe  Fe121     1.0  0.79813  0.68320  0.57227  1.0000
  S   S241      1.0  0.81545  0.69171  0.61683  1.0000
  C   C885      1.0  0.65451  0.98788  0.73198  1.0000
  Fe  Fe122     1.0  0.79681  0.71923  0.54668  1.0000
  S   S242      1.0  0.81558  0.72990  0.58973  1.0000
  C   C886      1.0  0.73424  0.66458  0.97928  1.0000
  Fe  Fe123     1.0  0.85170  0.70818  0.58907  1.0000
  S   S243      1.0  0.90462  0.70858  0.60703  1.0000
  Fe  Fe124     1.0  0.77843  0.71280  0.61436  1.0000
  S   S244      1.0  0.73803  0.71859  0.65203  1.0000
  S   S245      1.0  0.83583  0.69863  0.54432  1.0000
  S   S246      1.0  0.75818  0.70318  0.57132  1.0000
  Fe  Fe125     1.0  0.65877  0.80762  0.84019  1.0000
  S   S247      1.0  0.62125  0.79260  0.86881  1.0000
  S   S248      1.0  0.67542  0.83342  0.85536  1.0000
  Fe  Fe126     1.0  0.67586  0.77771  0.79794  1.0000
  S   S249      1.0  0.63974  0.76091  0.82461  1.0000
  S   S250      1.0  0.71016  0.77272  0.75532  1.0000
  Fe  Fe127     1.0  0.60384  0.78279  0.82496  1.0000
  S   S251      1.0  0.55146  0.78080  0.80612  1.0000
  Fe  Fe128     1.0  0.66019  0.77205  0.86661  1.0000
  S   S252      1.0  0.66851  0.75737  0.91085  1.0000
  S   S253      1.0  0.63936  0.79911  0.79631  1.0000
  S   S254      1.0  0.69834  0.78749  0.83985  1.0000
  C   C887      1.0  0.75457  0.74130  0.97139  1.0000
  C   C888      1.0  0.76174  0.74998  0.94396  1.0000
  C   C889      1.0  0.73598  0.75500  0.92518  1.0000
  C   C890      1.0  0.70243  0.75145  0.93356  1.0000
  C   C891      1.0  0.69527  0.74274  0.96098  1.0000
  H   H1060     1.0  0.98014  0.67422  0.59472  1.0000
  H   H1061     1.0  0.78752  0.75276  0.93706  1.0000
  H   H1062     1.0  0.74221  0.76139  0.90403  1.0000
  C   C892      1.0  0.50742  0.95210  0.82031  1.0000
  H   H1063     1.0  0.68275  0.80340  0.67142  1.0000
  C   C893      1.0  0.73377  0.73254  0.68310  1.0000
  C   C894      1.0  0.75450  0.74639  0.68550  1.0000
  C   C895      1.0  0.74759  0.75815  0.70848  1.0000
  C   C896      1.0  0.72015  0.75621  0.72960  1.0000
  C   C897      1.0  0.70051  0.74188  0.72818  1.0000
  C   C898      1.0  0.70708  0.73026  0.70490  1.0000
  H   H1064     1.0  0.77556  0.74817  0.66942  1.0000
  H   H1065     1.0  0.76359  0.76891  0.70982  1.0000
  H   H1066     1.0  0.67976  0.73992  0.74447  1.0000
  H   H1067     1.0  0.69098  0.71954  0.70345  1.0000
  H   H1068     1.0  0.51695  0.95837  0.75531  1.0000
  H   H1069     1.0  0.59749  0.73067  0.63868  1.0000
  H   H1070     1.0  0.75694  0.72030  0.90257  1.0000
  H   H1071     1.0  0.52124  0.78576  0.86767  1.0000
  C   C899      1.0  0.95273  0.71912  0.56259  1.0000
  C   C900      1.0  0.94569  0.71420  0.59266  1.0000
  C   C901      1.0  0.97229  0.71334  0.61219  1.0000
  C   C902      1.0  0.69059  0.78529  0.60230  1.0000
  H   H1072     1.0  0.93264  0.71989  0.54729  1.0000
  H   H1073     1.0  0.96714  0.70969  0.63556  1.0000
  H   H1074     1.0  0.77490  0.78465  0.56753  1.0000
  H   H1075     1.0  0.70205  0.83349  0.92251  1.0000
  H   H1076     1.0  0.71251  0.94427  0.77125  1.0000
  C   C903      1.0  0.98591  0.72306  0.55227  1.0000
  H   H1077     1.0  0.79161  0.68148  0.97220  1.0000
  C   C904      1.0  0.71585  0.86948  0.75142  1.0000
  H   H1078     1.0  0.76100  0.77200  0.63577  1.0000
  C   C905      1.0  0.72284  0.80249  0.90758  1.0000
  C   C906      1.0  0.77240  0.77114  0.57290  1.0000
  C   C907      1.0  0.63319  0.88609  0.83724  1.0000
  C   C908      1.0  0.66021  0.88376  0.85562  1.0000
  C   C909      1.0  0.67259  0.86757  0.86105  1.0000
  C   C910      1.0  0.65821  0.85351  0.84825  1.0000
  C   C911      1.0  0.63123  0.85586  0.82988  1.0000
  C   C912      1.0  0.61889  0.87203  0.82442  1.0000
  H   H1079     1.0  0.67157  0.89441  0.86561  1.0000
  H   H1080     1.0  0.69353  0.86596  0.87522  1.0000
  H   H1081     1.0  0.61987  0.84523  0.81982  1.0000
  H   H1082     1.0  0.59804  0.87365  0.81014  1.0000
  H   H1083     1.0  0.52133  0.98544  0.77959  1.0000
  N   N59       1.0  0.52824  0.98153  0.73136  1.0000
  H   H1084     1.0  0.53238  0.94702  0.81854  1.0000
  H   H1085     1.0  0.65736  0.73690  0.62715  1.0000
  N   N60       1.0  0.59348  0.76408  0.72515  1.0000
  C   C913      1.0  0.59632  0.78248  0.72561  1.0000
  C   C914      1.0  0.55733  0.75986  0.72938  1.0000
  C   C915      1.0  0.61060  0.75706  0.75124  1.0000
  C   C916      1.0  0.60969  0.75748  0.69691  1.0000
  C   C917      1.0  0.59321  0.74647  0.67771  1.0000
  C   C918      1.0  0.64374  0.76118  0.68889  1.0000
  H   H1086     1.0  0.54722  0.98130  0.68476  1.0000
  C   C919      1.0  0.66043  0.75402  0.66371  1.0000
  H   H1087     1.0  0.75033  0.80417  0.90806  1.0000
  H   H1088     1.0  0.58551  0.78825  0.70541  1.0000
  H   H1089     1.0  0.58291  0.78778  0.74607  1.0000
  H   H1090     1.0  0.62267  0.78675  0.72648  1.0000
  H   H1091     1.0  0.55339  0.74622  0.73201  1.0000
  H   H1092     1.0  0.54296  0.76470  0.71037  1.0000
  H   H1093     1.0  0.54564  0.76541  0.75035  1.0000
  H   H1094     1.0  0.61131  0.74323  0.75067  1.0000
  H   H1095     1.0  0.63688  0.76151  0.75192  1.0000
  H   H1096     1.0  0.59766  0.76064  0.77306  1.0000
  H   H1097     1.0  0.66046  0.81393  0.91211  1.0000
  H   H1098     1.0  0.65827  0.76901  0.70289  1.0000
  C   C920      1.0  0.61022  0.73938  0.65258  1.0000
  C   C921      1.0  0.69349  0.79614  0.65284  1.0000
  C   C922      1.0  0.68442  0.70043  0.92317  1.0000
  N   N61       1.0  0.69599  0.92229  0.74892  1.0000
  C   C923      1.0  0.71713  0.93060  0.77067  1.0000
  C   C924      1.0  0.70274  0.93045  0.71893  1.0000
  C   C925      1.0  0.66020  0.92523  0.75806  1.0000
  C   C926      1.0  0.70304  0.90421  0.74921  1.0000
  C   C927      1.0  0.69582  0.89460  0.77585  1.0000
  C   C928      1.0  0.71730  0.89566  0.72367  1.0000
  C   C929      1.0  0.70205  0.87751  0.77681  1.0000
  C   C930      1.0  0.72354  0.87853  0.72493  1.0000
  H   H1099     1.0  0.55803  0.95948  0.73825  1.0000
  C   C931      1.0  0.69504  0.69107  0.94767  1.0000
  H   H1100     1.0  0.69822  0.71852  0.88851  1.0000
  H   H1101     1.0  0.71212  0.92587  0.79416  1.0000
  H   H1102     1.0  0.72966  0.92962  0.71130  1.0000
  H   H1103     1.0  0.68546  0.96119  0.97589  1.0000
  H   H1104     1.0  0.68712  0.92500  0.70157  1.0000
  H   H1105     1.0  0.65294  0.93848  0.75523  1.0000
  C   C932      1.0  0.65715  0.98647  0.94080  1.0000
  H   H1106     1.0  0.65430  0.92220  0.78224  1.0000
  H   H1107     1.0  0.68509  0.90024  0.79621  1.0000
  H   H1108     1.0  0.72380  0.90190  0.70247  1.0000
  H   H1109     1.0  0.71486  0.80991  0.88785  1.0000
  H   H1110     1.0  0.69920  0.82970  0.96270  1.0000
  C   C933      1.0  0.50089  0.96679  0.83609  1.0000
  H   H1111     1.0  0.72057  0.85620  0.75237  1.0000
  S   S255      1.0  0.78759  0.73743  0.50712  1.0000
  C   C934      1.0  0.71935  0.76801  0.55120  1.0000
  H   H1112     1.0  0.78358  0.76418  0.55316  1.0000
  C   C935      1.0  0.60862  0.99109  0.97527  1.0000
  H   H1113     1.0  0.73229  0.76073  0.53286  1.0000
  C   C936      1.0  0.72103  0.73775  0.97979  1.0000
  H   H1114     1.0  0.57883  0.98285  0.71143  1.0000
  C   C937      1.0  0.72391  0.78801  0.65572  1.0000
  C   C938      1.0  0.75023  0.79763  0.96859  1.0000
  H   H1115     1.0  0.69598  0.87043  0.79739  1.0000
  H   H1116     1.0  0.71677  0.72704  0.50503  1.0000
  H   H1117     1.0  0.65301  0.80102  0.62415  1.0000
  S   S256      1.0  0.67809  0.97524  0.91102  1.0000
  H   H1118     1.0  0.74422  0.92863  0.76469  1.0000
  H   H1119     1.0  0.66951  0.73985  0.96774  1.0000
  C   C939      1.0  0.73543  0.74885  0.58965  1.0000
  C   C940      1.0  0.55290  0.98681  0.70678  1.0000
  C   C941      1.0  0.72183  0.77695  0.60440  1.0000
  H   H1120     1.0  0.65271  0.81008  0.95165  1.0000
  H   H1121     1.0  0.76831  0.80527  0.95585  1.0000
  C   C942      1.0  0.73784  0.77846  0.63202  1.0000
  N   N62       1.0  0.73680  0.76651  0.57984  1.0000
  H   H1122     1.0  0.56741  0.74282  0.68197  1.0000
  C   C943      1.0  0.50926  0.78236  0.82146  1.0000
  C   C944      1.0  0.72189  0.73643  0.48772  1.0000
  C   C945      1.0  0.70674  0.71089  0.90694  1.0000
  H   H1123     1.0  0.78868  0.76814  0.59173  1.0000
  C   C946      1.0  0.72841  0.69210  0.95693  1.0000
  C   C947      1.0  0.75065  0.70276  0.93963  1.0000
  H   H1124     1.0  0.71812  0.78914  0.90306  1.0000
  H   H1125     1.0  0.74589  0.74050  0.57156  1.0000
  C   C948      1.0  0.67682  0.79475  0.62623  1.0000
  H   H1126     1.0  0.53295  0.97979  0.95337  1.0000
  C   C949      1.0  0.64386  0.74299  0.64582  1.0000
  H   H1127     1.0  0.69341  0.76300  0.55352  1.0000
  C   C950      1.0  0.66602  0.98872  0.70140  1.0000
  H   H1128     1.0  0.73872  0.82811  0.94147  1.0000
  H   H1129     1.0  0.67621  0.78467  0.58246  1.0000
  H   H1130     1.0  0.71874  0.78113  0.54293  1.0000
  H   H1131     1.0  0.77630  0.70472  0.94516  1.0000
  H   H1132     1.0  0.67672  0.68324  0.95966  1.0000
  H   H1133     1.0  0.65861  0.69983  0.91697  1.0000
  N   N63       1.0  0.73850  0.68267  0.98390  1.0000
  H   H1134     1.0  0.73655  0.78895  0.67667  1.0000
  N   N64       1.0  0.70459  0.80764  0.93595  1.0000
  C   C951      1.0  0.71151  0.82548  0.94098  1.0000
  H   H1135     1.0  0.68493  0.98005  0.69299  1.0000
  C   C952      1.0  0.66820  0.80606  0.93142  1.0000
  C   C953      1.0  0.71604  0.79743  0.96145  1.0000
  H   H1136     1.0  0.66142  0.79304  0.92599  1.0000
  H   H1137     1.0  0.69671  0.94401  0.71967  1.0000
  H   H1138     1.0  0.74996  0.74650  0.60997  1.0000
  H   H1139     1.0  0.64340  0.91761  0.74462  1.0000
  H   H1140     1.0  0.73438  0.87221  0.70524  1.0000
  H   H1141     1.0  0.68687  0.75640  0.65897  1.0000
  H   H1142     1.0  0.51819  0.97797  0.91607  1.0000
  C   C954      1.0  0.69431  0.78676  0.97925  1.0000
  C   C955      1.0  0.73983  0.71189  0.91494  1.0000
  C   C956      1.0  0.53160  0.96323  0.73509  1.0000
  C   C957      1.0  0.62390  0.98300  0.95008  1.0000
  C   C958      1.0  0.53159  0.98629  0.93117  1.0000
  H   H1143     1.0  0.99099  0.72682  0.52896  1.0000
  H   H1144     1.0  0.98434  0.66912  0.55488  1.0000
  H   H1145     1.0  0.55752  0.98742  0.92076  1.0000
  H   H1146     1.0  0.66815  0.78533  0.97504  1.0000
  C   C959      1.0  0.53751  0.98955  0.75965  1.0000
  H   H1147     1.0  0.52284  0.95664  0.71507  1.0000
  H   H1148     1.0  0.61034  0.97365  0.93841  1.0000
  C   C960      1.0  0.50133  0.78472  0.85226  1.0000
  H   H1149     1.0  0.50441  0.99327  0.51480  1.0000
  H   H1150     1.0  0.56371  0.98654  0.76507  1.0000
  H   H1151     1.0  0.65439  0.93503  0.98508  1.0000
  H   H1152     1.0  0.58329  0.98788  0.98282  1.0000
