data_image0
_chemical_formula_structural       H3NCH2SFeSHC2FeH2C2SCH3SFeSH3CFe3SHSC2HSCHSHSHSCHSHNHCHCHC4FeHSCNH2S2H3FeSCH2CSH4CHCHCFeC4SHC2HC2HC10H3CH2SCFeHSCH2CH5C6H6CH2C6FeH3CNC6H4SC2HC2HC2H2C4H2NCSFeHCH2CHCH3CH2CH2SCSH3CHCFeHCH4C2H2CH2CH3FeC2H3FeC2SCHCSH6CSHSHFeH2CHSCFeH3S2HCH2C2FeHC2H2CH4CH3SC2FeHCHC7H3SCHC2HCS2CHFeSHCHNHSCHFeC2HCH2SFeC4H2SC3H2S2HCSH4CSH2SNHFeH3CN2CFeSHSFeCHFeCSCHC2H4C3HC4HCH4CH2CSH2CHCHCH4CHCHCHFeHNH2SH2CSCHCSCH4CH2CSCFeHSC2HC4SH3FeSCFeSC2SHFeS2FeSFeS3C6H4C3H3SFeH2CHC2H3C6H4CH2C2H3C4SHC4HS3H4CHCHSHS2H4FeCHFeNC2H2S2C3HCH2SCHC2H2CH2C2HCHC2SHC2H2FeNHC2HSHC2HSFeCH3CHC2HC2NH2C2HCH2C2SC2FeHCHCHSHCH4CH3SH2CH7C2H2C2HCHC2HNC4HFeHCFeCHC2H5NHCNCH2FeH2FeHSHC2HSCHC2FeH4CHC3H11CHC4HFeCSFeSHFeS2FeSFeS3FeS2FeS2FeSFeS4CFeSCFeS2FeS2FeSFeS3C3H3CH5C6H4CHC7H5CHC6H4C6H4NC2HCHC6H4CNFeSHCHSCHC2HNCHC2HC2H5CHCHC2H2CHCSHFeC3H2SHCH2SHNS2CHCH2CSHCSC2HSCH3C2HC2HNC9H14C3H2C2H2CHCHC2HCHSH7CH2SHC4SC2HC2HCSCHCHC2SC2FeCHSCH5CH2CH3C2HCHC3FeHFeH6C2H2SH3CH5CSCHFeH5S2CHCHC2H2CHCH4C5SHSH3CHSCHFeCH3FeSC4HC3SHCSNC6H9CNHC3HCHC2HCHFeH2CH7NC2HSHCFeH2S2CH3CH2CHN2FeHC3H2C2NHC2HCH3C2H3SH6C2HC2H2CH3C4H3CHC3H2SHC2HC2H5CSH2SH5C2HSH2C2S2HCHC4HFeHS2HCH3CNCH2CH2FeHCHCH2FeHC2HCSHCSCH2FeNC2HCHC3H3SC2H3FeH4CH3CHC2S2FeCHFe2HSCFeHNSHFeH3C3H2C3HSH2CHNSCH3C8Fe2SHCH4CSFeC2SCHCH3C2SCHSFe2HCHCHFeCFeC2HC2HSHC2H3CHCHCSHC2SCH2SCHSC2HSHC3SFe2HC2HC3SNCHSC3HC2H2NHSH3CH2CNH3CHC2H2NCHSC2HCHCH2CH4CHCHCHC3FeC2H2C4H3FeCH2CFeSHCHNH4NH2CH5C2H2C3HCH5CH3CNH3C2HFeH2CH4SH4CHC2HCSCH6SH3FeSHC3HFeS2FeS2FeSFeCS2H4CHCH3CHCHFeS2FeS2FeHFeS3FeH2C2HCHC2HFeS2FeS2FeSFeS3HC3HSC3H4CHC2NHNH5CH2C2HC6H4C6HCH2CHCHSC6H3NHC6H4CH2CHCHCH4SHCSHNC3HCH3SH2C2NCHCHSNHSH6FeH3CHC7H3C7H8CH2C3NC3FeHC2NH3C2H5CHCHCSCHC2H4CH2SCH2C2HCH2C5H3SHC3H3CHCH3C2HCH2C2HCHCH5C2SCHC2H7C2H3CNHC2H3CHCHCSC4NHS2H2CH2CNC5H2NHCFeH2CH2CHC5SCH2CFeHCHCHC2HSH3CH5CSCH2CHSFeHC2H2CH3SCH2C2HSC3HCSCH3CH2SC2FeHSH2FeSHSC2HCH3CHSCNC2HCHCHCH2CH4C2SH2NCFeCSHSH2SFeHCNHCHSH3CH2SH6CH2C2HCH3C2H3C3HCH4C6H5CFeCH2CHCHC6H3CFeCHCHC4FeCH2CH2NHC2HCFeHCH4NHC3HSHSHCFeCHCHSCH5C3H3C3NHC4NC3SFeSHC4H2SH4SH2C2H2CNSHCH2CHCFeCH2CHCHCHSC2FeCHCHCH2CFeN2C2H2SCHSCH3SHSCFeH2C2HFeSHFeCHSH4FeCHCHNC6HCH2C2HCH2CH2CH5NFeHC3H3C2HC3HSCHCH2CHSC2SHSC4H6C2SCHCH3CSCS2CHCH2CH4CH4SC6SHFeCH5CH2C3H2CHCHCH2SC2HC2H4CSH2C5H2CH2SC5H3C2H5SC2H2SHCFeH2C2HC3H2C2HCFeS2CH2C3H2C2H3SFeSC2SHFeCFeSHSFeSHCH2FeSCNSHFeNSFeHSCH3S2CH2C2NH2CH2SC2HCHCFeHSFeS2FeHFeS3H2CHSC2HC2NHFeHCH2C2H2C2SHSH2C2H2C5HSFeHFeHC2H2SCHCSH3CHC7HCH5SCHC8H4C7H3CFeCH2SCH2CH4CHNC2H2C2HFeC5H5NCHC2H4CH4CH6SH6C2H2CH3CNH3C7NFeSC2H6CHCNCH2CH2CHCH2SH3C3HCH3CHNCH2NH4CHSH2C2HCHCSCH2CH2C2HCHC2SCH2CHC2HFeHNSH2C2HCSCH3FeCSCH2CHC3HCFeHCH3CHCHC4HCHCH3CH4C2H2CHC2HC2HCFeH2NCNFeSCSCH2SHFeC2FeCH3S2CSHCSHCSC2HSH2CFeCHC3NHSCFeC2HC7H4CHCHSH2SH2FeHS2HC4HCHC3HFeCHC3HSCH3SHCH3C2HC2HFeSHCHCHFeC3HCH2CS2C3H5SC2H2CHCSH2FeHCH2C3H2FeH4CHFeSHCH5FeCH4CHS3CH2NSH6CH3SCFeCHFeC3H2CFeHCSC2SHCSHCH2CHC2HCH2CSHCNC2H2CHFeCSHSCSCSH2FeH2SH2CH3SC2H2CHS2FeSFe2S2FeSCFeSFeS2FeS2FeS2FeSFeS3C3H2C3HCH2CSFeSFeS4FeS2FeS2FeSFeS3FeS2FeS2FeSFeS3FeS2FeS2FeSFeS3FeS2FeS2FeSFeS3FeHSCFeSHCH2C2H2CHC3H3SCH4SC3SCH2C3H6C2H3C2H4C2SHCHCHNH3FeS2FeS2FeSFeCS2H3FeC4SCHC2FeS2FeS2FeSFeS3HSFeS2FeH2FeHFeHS2H9S3FeSFeHC4H2CHC2H3SHC4H4CHCH4C7H6SC2HC2HSC6H4C6H4C6H7CH2CSFeHCH2C2SH4CHC2HC3HSCH3C3HCHC2H3CNHC3H2SCH2C7FeCHCH2C3HCNCH2CHCNC3HC3HCH2CHC4H4CHC4HCH2C6H4C6H4C6H4C6H4C6H4C8H2C6H6C6H4C6H5C2HC6H5C3H6C2H2C2FeC7H4C6H9CH4C6H5SHC6H5CH2C2H2C2HCHCH3C5H3C5HCH4NH3C2H2C2H4CH3C2FeHCNC9H14CHC2HCH3CHCH3CHCH2NH4NC9H14NC9H14CHCH3C2H4NC3H2NHCHC6HSNH9CHNC10H3CH9NC3HCH3NC6H11C3HC3SC2HSC2FeS2HCHCH2SCHSH2CH3C2HCH2C4H2C3SH2C3HCFeCH3CNCH3CH2CH3CHC4H2CSH3NH2CHNH2C2HCH3NH4CHCH2C2NHCHCHFeSC2SHCH3C2H4SHC2H4SH2CHCHC5HCH3C2HSNSCHCHC4HC2HCHCH4CHCH2NH2C6HCH2FeH3SHC3H2CNH3CHNCH2NC2H2NC5HC2HC2H2CFeHCHCHC2H3C2HCH5CHSH2NH2C3H5CH4SCSC2NHCHCSH3CHCH2CH6C2HCHCSC3H2C2SHNCHCHC2NSH7CH2C2H2SCHSH3FeC2H2C2HFeC3H4C2HC3H2C2H3FeH4CHC3H2C2HC2HSCHSHCFeHC3H2FeHC4H2NC3SC2H2CH4NC2HSH5SH4CH4C2HC2HC2NH4C3HC2H3FeH5NCH2C2HNH2SHCHFeSC2Fe2CSH2SCHSC2HC2HSCH3CHFeSH2C3H3CHCHSCH2SHCHC2H4FeH5C2H2SHCH2CH3S2FeCHCH3SC2H2C2SFeSC3HCH2SCH3NH2CHC4H7CNFeSCFeCFeHCH2CHCSHC2FeCFeH2SH2CHCNHNH2C3FeHNCHCFeHC5SC2H2CHCSCHCHCHFeCSFeC3H3CHSC3HSCFeCHSCH3C2SH2C2SCH2CHNCFeSH3SH2C2HC2FeC4HCHSH2CHFeHCSH4CH2FeCH6CH3C2SCFeCSH2C3H2CHFeSCHCH4CHSCHSHCH2SH3CHSHCH5C2FeHSH3CS2HSHFeSHSFeSC2FeSHFeS2FeSFeS3HSC2HCHSCHC2NFeS2FeS2FeCFeS3C3HCHCHSNH2CSCH4FeH2CHC3H4SHC2H3C3HCHSHCH4CH2SFeHCH2CSC3HC3HSHCH2FeHC4H5CHC3H2C2HCH5NHNCHFeC7HCH2C2H2CHC4HFeH2C4HNCH3C8H4C3H2C5H4CHC6H4CNH2CHCH4SHCHC2HSC2H8CH3SC3HCH2C2HCH2C2H5NCHC2H2CH2C2SCHC2HC5FeCH4CHCH2C2NC4SCNHC2H8CHCH5CHCH2CH7NCHFeCHSHC2H2CH2CH2CHFeHSH2C2H2CSHSCSCFeHFeHCSH6C2H3CH4CHFeH2CNCH6SH5C3FeSH2C2HSHSC2SNFeS2FeSHFeSFeS3C2FeS2FeS2FeSFeS3HCHCHC3HC3HC2H2FeS2FeS2FeSFeS3H2FeH2SFeSFeSHSHCS2FeSHFeSFeS2H3SH3CSH2FeS2FeS2FeCHS2FeS2H4FeS3H2CHC2HCSHC2H2C2HC8H4C4HCH4CHC2FeC2S3C3H2CHCH2SHCHCH2CH2C6H4CHNSHFeNC6H2CHC6H4CSHCH2CHCH4NCH2C2HC6H2FeH2CHSHSC7HCH2C6H4CH2FeHC2H3C6H5C2SH3CH2C6H7CH3C6H5NFeCH6NC8H9CHC3H5C2H2CSHC2HCHCH3C3FeC2FeH4CH2SH4CH4CHCHC2H2C4HC3H2C3HSCH3CHCHCHC2NC9H3CNCHCH4CHNFeC2H2C3SH2SH5C2H2CH2SCSHCHCHCHC2SH4SC2HC2H2SHCH3SH4CNC4H5NHCSC2HSHCHFeNCSCH2FeH4C2HSC2FeCHCHCHCH2C2H3CNCH2FeCFeHCH5NC8H2C2H2SHCH4CHC3H2CFeC2HCH3CHNH3C2H2CHC2NH2C3SH2CH2CH2C2HCH4CHCFeNH5CH12FeCH4CHCH4CHCH2CHC2NHCNCHC3HCHC3HCH3C2NC3HC2SCH4CSH4C5H2CHCFeCHC2HCHSHSCH2FeHCHCH2CHCHCH6FeH2C2FeC2HC2SH5CHC3HSH4SH3S3HCSNH2C2H4FeS2FeS2FeSFeS3CSCFeS2FeSC2HC2HC2NH4NH2CHCH2C2HCHCH3CHCHFeS2FeHCFe2SNSFeHCH3C6H3C2HCH3C3HSCH2CSNSCHCHCH3C3HC3HC2H2SH2CFeHCHFeHC7H6SC2H4CFeH3SH2C4HCH5CH2CHCH2NH4CHCH2CHCFeC2SCN2C4HC2H7CH10CH2C3H3C2H2SC3HC3FeH2C4H2C3HC2H2SHC2H3C2HSH2SH2CHCHCSC2HCNC5H2C5H2SC2HCH4C2HCHC2H5NHCH3SCH4CHCHSCHNHS2H2CH3SH3CH5S2H3FeH2FeS2FeS2FeSFeS5FeS2FeS2FeSCHS2FeS2FeHSFeSFeHS2FeS2FeS2FeCFeS3FeSCFeS2FeSFeS3H2FeCSHSH3SH2C2H2NHSCHFeS2FeS2FeHFeS3H4CHCHNC2HCSH2SCHC7H4CHSH4CSHC3FeSCH4FeCHC2HC6H4C6H4C6H4C6H4C6H4C3H2C6H4C2HC6H4C7H5FeCS3H2NC7H4C2HCHCSC4HNC9H15CHC2FeSCH3C2HSCHFeH3CHCH2CH2CFeSHSC2SH2FeCHCHCS2H2CH4CHCHFeHC2H2C2HCHNHCHNC9H14FeH4CNHC6NH5SH7CHC3HC2SC2HSCH4CH4C2H4CSHCHSFeC2HCHFeCHCHCH2NSCHFeCH2C4HCH2C3NC9H14C3H2SC2HCHC3H2FeSC2H2SH4CHC2HFeCHCHCHCHNCHCHCSHCH5CH2C2SH3CH3SHNC9H14NH2C2HCHC2H2CHCHC2NCHSHCHCH3CH2C2H3NC3H2CSCH2NC6H2NHCH4CH2CHCNHC2H2CH3SC2HSFeC3SH4C4HCFeHC2H2C2HCH2C2FeC2HC7HCSNC3HCH2C2HSH2CH3CHCNHNHCHCSH3C2H11SCH3CHCH6NHCH3FeC2HSC2H2SH3NHCSHSC2HSH4C2H3CH2S2HFeS2FeSFeCSNFeS2FeSFeSFeS3H2CH4SHFeHC2HFeH2C2H2C3SCSC2HCHS2H3FeHSCS2CH5CH4C3SH2CHCH2C4H2CH2CH3C2SCH3CHC3H2C3FeHCHC2H2CHC2H3C3HC6H4C2H4SHC7NH2CHC2HCFeNH2C4HCH3CHCH5CHC2H2CHCH4SCH2CHCNC9H2SH3CHCH2CFeHFeH5CHCH2CH3C2H3C2HNC2HSC2H3SH4C2HSHCFeHCHCSFeS2FeSCFeSFeS3FeSH3CFeS2CH3SH2FeHSCH4CS2HS2CHCH3C2HCHSHCH2FeS2FeS2FeSFeS3FeS3FeSFeHFeC3H3SHS2C2HC5H3CH3C3H2C3H2C6H4CHC2H2SFeCHC2H4NCH2CHCHFeC2H3C4HCS2HC6H7CH3C2H2CNC2SC7H3CH3CHC10H4C4H2CHC2HC2H4SH3CFeHC3H4NC9H18CFeH4C2HC2H3C2SHFeH2CN2H2CHCH3CSHCHSCHCHCHCH2NC5H7C3HSH5C2H3C3SH2CH3CHC2H3CSH3C2H2CH2S2CHC4H3CHSH2CH5NHCH3C3H2C4NC9H15CH2C7NS2H2CH6NHCH4C2H2C2H8C2H2CHCH3C2NCH2C3HC2H2SCH3CHC2HC4HCH2NCSHSCH2CH3CH3FeC3H2FeSHNHCSFeNCFeCH3SFeH4FeHCSCHCSH2FeSH2NHC6HSH9CSC3FeSC2HNC2HC2H4CHFeS3CHS3C3SH3CHC3HCNHC2HCFeHNCSC2SFeCH2S2CNCH2C3HSCHC4HC3H3FeH3C2H2C2FeHCHC2HC3SCH4CHC2HNH2CHFeHSHCH2C3H2NH2FeCSC2HSH2SNHC3H3C2H2SC3HCH4CHCHC4HC2S2H2CHFeH2CHCH2CH3C2HCHCSH2FeHC2H2SCH2CNH6CHFeC3NCH6C3SHC3HSHFeSFeSH2FeHCFeHSH3CSC3HSH2FeSH2SH2SH2NH2FeSHCS2FeCSFeS2FeC2S2FeSHFeS2FeSFeS3C2FeS2CNCSH2NHC2FeHC2HSCH2SCSHC2H3C6H4C6H4CSCFeH2CH2C2HCHCH4FeCHC6H9C3HC2H3C2HSH2CHCHC6H4C6H5C2H2CH2SHC5H6C3HC3H3C2HCHCHC2HC2H2FeCH2NSNC3H2C2H4NH3CHSH2CNC6SC2H10CH2NCH9SCH2CH2C2HCH2CHSH2SHCH2CNH2C3HCHC4H2NCHCSCH2CFeCH3C2NC3HC2HC2FeCHCFeC2H2CFeH2FeC2HCH2C2HSCHC2HSHC2HCSCH4CH2C2FeC2HSCSH2C2HC3SH3CHC2H2CHC2SC3SHFeC3H2CHCSCFeHCH5FeC2HFeNH2CFeH2C2H3SHCSCHC3HCH2SCHCHCH3CSHNSC3HC3SHCHCHCH2CHNH4C2H8SCHC2HCHC3H4NCH2CH2NH2SHCHCHCH4SH2CHCHCSCH3CHC3HNHCH3CH3SH4CH3C3H2SHC3SH2C2HSHC2H3SCHCHC2HCH2C2HFeH4Fe2HSC2SHCH2SHCFeHCSCH4CHNH2CSHFeSH3FeSCSCHNC4HFeS2FeS2FeSFeS3HS2H3CH2CHSNH3CHC4H4CH2FeHFeSHSH2CH4C4FeSCH4C3H2CH3NHC2H2C4HFeH2SC2HCHCSCNCHC2HC3HCH5FeH4CSHSC4HC7H6CNCH3NHC6H4C4H2C5H2C2H3C3SC2HC2HC6H4C2HCHCH3CH2CHSH2CFeHC2SH2SCHC2H2C4HC5FeH3CSH2C2FeHCS2NCHC2HCH3C2HCH2CHNHC2H4C2H2CNHCH2CHC2HCH3SCNH2C2HC2H4CHSCH5CHC2HCHC3HCH2C2H5SH2NH3C2HSCH2S2H3Fe2C2HCFeCH4CHCHC2HSC2HCH3FeHCH2CHC3HNCHFeH7CSCH2S2CH3CHCHCH3CHSC3HCHS2HFeS2FeS2FeSFeS3H3CS2FeS2HFeSFeS2FeSFeS3CFeSFeS2FeS2FeSFeS3CH3S2C5HC2H2CHC6H4CH2CH5C7H4C3HCH2CHC2HCH2C8H4C6H4CH2FeHC3H3C2HSH2CH4SC7H4CHC3HCH4CHCHCH2C3H3C3H5SHCNC2NC6H2CHCH3CHCNHCH3FeH4FeC2NHC9H2SC2HCSH5FeH2FeHCS2CH3SCH2C3S2HFeHC4H5SH3C4FeSH2C2SCHNCH3CNC6H2CH12FeCNC9H15CHFeC2H2NC2FeC4SHC2HSHNSCHSHCH2C2H3CNH2CH3CH2C2NHCSFeCHCH2CH4SNCHCHSHFeC2SHCH4C2HCH2CH2SH2C2HC2H3C2HCFeHCHCHC3HCSCH3FeHCHC3H3C3FeHC2H3C2H4C3HSHCH2SNHSH2C2H3CH2C3H6C2H2FeC2H3FeH2SCHSNS2H2NH2FeNSCFeCFeC2H3FeH3C3HSC3SHC3H3FeSHC3HCHFeHSH2C2HCHC2HC2HCH5CH2CH2CH2C2HC2SCH2CH2S2C2HC3H4CH3CHCHCHC2NHSCH13C2HC2H3C2H4CHCHC2HCH3SCSH3FeH2SHCSFeHCH3SCHC2H2CSCH2FeHCHFeC2S2CHC2SC2FeHFeCSHC2H2C6H6SCHSHC2HCHC6H3SCH2SHC2HCHSFeC3H3CH2SC4NSHC3SHSC4H4CSCFeCH2FeH4CSHCHCFeHFeCHSCHCH3CHCHCHFeCSHC2H2FeNC2NHCHS2C2H2SHNC2H2CHFeCH2SHCH2CSCHCH2CHC2SH3CHCH2CHCH4CHC2HCHCFeCH6CHCNCH2CNH4CH5C2NC2H2NH4C2H2C2H2SHCSHC3H4CNHCHCHFeCHC2H2SCH2CHFeC2SHS2FeSC2SHCH2CFeS2FeS2FeSFeS3CFeSH3FeSFeHSCSCSCH2CSCHFeCFeC4H2CFeS2FeS2FeCFeCS2CS3FeSC2HFeS2FeHSFe2HS2H5C2SCHCHCH2C4H6CNC7HFeH2SHC2H2CHC8H4C4H2SC2SCH2CSHCH3CH3C6H8C6H4C3HFeCHC2S2C4H2SHSCFeC2HC6H6SC2SHCHSC2H5S2H2CHFeC2H5C4HCHNC2H2C3H2CHC2H2CH4NC9H14CH2CH2CH4CHNHC2H2CH2FeHC3H8SH3CHC2HCHSNH3FeHC3SCH2SHCHCHCSHCHC3SH5SH2SH4CFeHC2H4SH2C4H3FeNC9H12NH2SHCFeCHSHFeC2HCNS2C3HCFeCHCHCHCHSHFeH2CHSHC2HC2HC3HC2H4C4H2SC3H3CFeC2H2C3HC2H3C3HC2FeCSHCHCFeSCHCHCHNCSC2HSHCHCHCH3NHCH2CHCNHC5SHSH2CH3C5H2C3H2CH2SHCH2C3H2CH2FeHN2CHC2H2FeC2H2CH3CSHSNH3C3H2C2HFeH2CSH2CNHCH6CH4C3HC2H2CHFeN2HCHNC2HCHC2HCSH3CH6CH
_chemical_formula_sum              "H5184 N288 C4320 S1152 Fe576"
_cell_length_a       121.656
_cell_length_b       121.541
_cell_length_c       121.569
_cell_angle_alpha    73.7973
_cell_angle_beta     73.5467
_cell_angle_gamma    73.4232

_space_group_name_H-M_alt    "P 1"
_space_group_IT_number       1

loop_
  _space_group_symop_operation_xyz
  'x, y, z'

loop_
  _atom_site_type_symbol
  _atom_site_label
  _atom_site_symmetry_multiplicity
  _atom_site_fract_x
  _atom_site_fract_y
  _atom_site_fract_z
  _atom_site_occupancy
  H   H1        1.0  0.44558  0.27611  0.08372  1.0000
  H   H2        1.0  0.46424  0.31283  0.01669  1.0000
  H   H3        1.0  0.29150  0.44224  0.01285  1.0000
  N   N1        1.0  0.08145  0.46154  0.15744  1.0000
  C   C1        1.0  0.45995  0.24487  0.01563  1.0000
  H   H4        1.0  0.33059  0.44793  0.01283  1.0000
  H   H5        1.0  0.44498  0.20092  0.02596  1.0000
  S   S1        1.0  0.47806  0.15625  0.04656  1.0000
  Fe  Fe1       1.0  0.47443  0.35426  0.01749  1.0000
  S   S2        1.0  0.46106  0.35211  0.03439  1.0000
  H   H6        1.0  0.46706  0.39414  0.99785  1.0000
  C   C2        1.0  0.45917  0.39831  0.99460  1.0000
  C   C3        1.0  0.21346  0.49300  0.05160  1.0000
  Fe  Fe2       1.0  0.13843  0.47443  0.03162  1.0000
  H   H7        1.0  0.08531  0.47915  0.00323  1.0000
  H   H8        1.0  0.10163  0.47719  0.01165  1.0000
  C   C4        1.0  0.00319  0.42444  0.16207  1.0000
  C   C5        1.0  0.08835  0.48375  0.05823  1.0000
  S   S3        1.0  0.29694  0.44132  0.04123  1.0000
  C   C6        1.0  0.20987  0.45913  0.99166  1.0000
  H   H9        1.0  0.17200  0.43092  0.00699  1.0000
  H   H10       1.0  0.02962  0.46841  0.18803  1.0000
  H   H11       1.0  0.07091  0.47228  0.16989  1.0000
  S   S4        1.0  0.37047  0.43364  0.02061  1.0000
  Fe  Fe3       1.0  0.46847  0.27406  0.03111  1.0000
  S   S5        1.0  0.45710  0.27461  0.04909  1.0000
  H   H12       1.0  0.19218  0.42058  0.00947  1.0000
  H   H13       1.0  0.20219  0.42114  0.04277  1.0000
  H   H14       1.0  0.02004  0.44262  0.15703  1.0000
  C   C7        1.0  0.08850  0.45395  0.16606  1.0000
  Fe  Fe4       1.0  0.47082  0.25904  0.05498  1.0000
  Fe  Fe5       1.0  0.48629  0.19076  0.05380  1.0000
  Fe  Fe6       1.0  0.46914  0.28499  0.05029  1.0000
  S   S6        1.0  0.46137  0.29925  0.06044  1.0000
  H   H15       1.0  0.00707  0.45731  0.11798  1.0000
  S   S7        1.0  0.47915  0.28609  0.03165  1.0000
  C   C8        1.0  0.06000  0.47400  0.05488  1.0000
  C   C9        1.0  0.42299  0.38987  0.00626  1.0000
  H   H16       1.0  0.06379  0.48617  0.08034  1.0000
  S   S8        1.0  0.21534  0.44139  0.04874  1.0000
  C   C10       1.0  0.43112  0.36953  0.03108  1.0000
  H   H17       1.0  0.49014  0.15282  0.07665  1.0000
  S   S9        1.0  0.19284  0.47106  0.05492  1.0000
  H   H18       1.0  0.25527  0.44975  0.03997  1.0000
  S   S10       1.0  0.24644  0.43004  0.05605  1.0000
  H   H19       1.0  0.45033  0.28770  0.09405  1.0000
  S   S11       1.0  0.12790  0.49124  0.03724  1.0000
  C   C11       1.0  0.29459  0.44649  0.99395  1.0000
  H   H20       1.0  0.31372  0.42541  0.01906  1.0000
  S   S12       1.0  0.04933  0.46360  0.15146  1.0000
  H   H21       1.0  0.01929  0.41155  0.16386  1.0000
  N   N2        1.0  0.18332  0.42270  0.04892  1.0000
  H   H22       1.0  0.36727  0.48678  0.99980  1.0000
  C   C12       1.0  0.17425  0.42933  0.01540  1.0000
  H   H23       1.0  0.26082  0.40584  0.03370  1.0000
  C   C13       1.0  0.49451  0.26249  0.08334  1.0000
  H   H24       1.0  0.27769  0.43262  0.01028  1.0000
  C   C14       1.0  0.49167  0.13707  0.03782  1.0000
  C   C15       1.0  0.09862  0.48895  0.13471  1.0000
  C   C16       1.0  0.44065  0.41296  0.99543  1.0000
  C   C17       1.0  0.01481  0.43142  0.13878  1.0000
  Fe  Fe7       1.0  0.46427  0.20012  0.04434  1.0000
  H   H25       1.0  0.20729  0.48705  0.05605  1.0000
  S   S13       1.0  0.44796  0.21444  0.04523  1.0000
  C   C18       1.0  0.31835  0.43267  0.01442  1.0000
  N   N3        1.0  0.27016  0.41789  0.02030  1.0000
  H   H26       1.0  0.45628  0.32535  0.00807  1.0000
  H   H27       1.0  0.15344  0.46940  0.99397  1.0000
  S   S14       1.0  0.47122  0.19018  0.02995  1.0000
  S   S15       1.0  0.46951  0.18470  0.05858  1.0000
  H   H28       1.0  0.04581  0.42766  0.14308  1.0000
  H   H29       1.0  0.33867  0.42617  0.03082  1.0000
  H   H30       1.0  0.01766  0.45688  0.13834  1.0000
  Fe  Fe8       1.0  0.04914  0.47307  0.13293  1.0000
  S   S16       1.0  0.04334  0.46869  0.11905  1.0000
  C   C19       1.0  0.02924  0.46557  0.18022  1.0000
  H   H31       1.0  0.42206  0.36880  0.03161  1.0000
  H   H32       1.0  0.17690  0.42681  0.06618  1.0000
  C   C20       1.0  0.17562  0.45855  0.03886  1.0000
  S   S17       1.0  0.39890  0.44606  0.00244  1.0000
  H   H33       1.0  0.48857  0.22448  0.99607  1.0000
  H   H34       1.0  0.27901  0.42025  0.99636  1.0000
  H   H35       1.0  0.47819  0.23498  0.02484  1.0000
  H   H36       1.0  0.48475  0.17659  0.99697  1.0000
  C   C21       1.0  0.48038  0.23638  0.01507  1.0000
  H   H37       1.0  0.05973  0.49062  0.02751  1.0000
  C   C22       1.0  0.47315  0.26389  0.08876  1.0000
  H   H38       1.0  0.32708  0.47043  0.99898  1.0000
  C   C23       1.0  0.33595  0.43976  0.00988  1.0000
  Fe  Fe9       1.0  0.41288  0.43065  0.99679  1.0000
  C   C24       1.0  0.08764  0.47065  0.14949  1.0000
  C   C25       1.0  0.26341  0.41424  0.03246  1.0000
  C   C26       1.0  0.48298  0.26903  0.08625  1.0000
  C   C27       1.0  0.18442  0.46067  0.04278  1.0000
  S   S18       1.0  0.07317  0.46406  0.09481  1.0000
  H   H39       1.0  0.44807  0.38924  0.01689  1.0000
  C   C28       1.0  0.00643  0.48602  0.11587  1.0000
  C   C29       1.0  0.01477  0.41875  0.15798  1.0000
  H   H40       1.0  0.05418  0.47244  0.06349  1.0000
  C   C30       1.0  0.35719  0.40525  0.00806  1.0000
  C   C31       1.0  0.06339  0.48428  0.03449  1.0000
  H   H41       1.0  0.26433  0.43624  0.02083  1.0000
  C   C32       1.0  0.37145  0.49221  0.00223  1.0000
  C   C33       1.0  0.48903  0.14934  0.03620  1.0000
  C   C34       1.0  0.45487  0.27105  0.08215  1.0000
  C   C35       1.0  0.00315  0.43707  0.14273  1.0000
  C   C36       1.0  0.04877  0.44881  0.15474  1.0000
  C   C37       1.0  0.04816  0.44337  0.14626  1.0000
  C   C38       1.0  0.04658  0.43180  0.14955  1.0000
  C   C39       1.0  0.38755  0.49312  0.00965  1.0000
  C   C40       1.0  0.16394  0.46453  0.04202  1.0000
  C   C41       1.0  0.22307  0.48325  0.00100  1.0000
  H   H42       1.0  0.04864  0.44813  0.13726  1.0000
  H   H43       1.0  0.08836  0.48478  0.09504  1.0000
  H   H44       1.0  0.46384  0.28802  0.08360  1.0000
  C   C42       1.0  0.46453  0.31839  0.00764  1.0000
  H   H45       1.0  0.27776  0.42902  0.02562  1.0000
  H   H46       1.0  0.21851  0.42506  0.99970  1.0000
  S   S19       1.0  0.23970  0.47875  0.01386  1.0000
  C   C43       1.0  0.45969  0.28288  0.09213  1.0000
  Fe  Fe10      1.0  0.38632  0.43453  0.00563  1.0000
  H   H47       1.0  0.46022  0.22400  0.01153  1.0000
  S   S20       1.0  0.06587  0.47731  0.12127  1.0000
  C   C44       1.0  0.45442  0.26466  0.10289  1.0000
  H   H48       1.0  0.24616  0.41894  0.02254  1.0000
  H   H49       1.0  0.46480  0.22241  0.02476  1.0000
  C   C45       1.0  0.09032  0.47233  0.13704  1.0000
  H   H50       1.0  0.08423  0.44674  0.17188  1.0000
  H   H51       1.0  0.16784  0.48157  0.05803  1.0000
  H   H52       1.0  0.18783  0.40748  0.06242  1.0000
  H   H53       1.0  0.46277  0.19489  0.99183  1.0000
  H   H54       1.0  0.38463  0.47713  0.00789  1.0000
  C   C46       1.0  0.45992  0.23565  0.06314  1.0000
  C   C47       1.0  0.45345  0.24149  0.05448  1.0000
  C   C48       1.0  0.44872  0.23509  0.04969  1.0000
  C   C49       1.0  0.45090  0.22283  0.05322  1.0000
  C   C50       1.0  0.45710  0.21708  0.06209  1.0000
  C   C51       1.0  0.46146  0.22349  0.06715  1.0000
  H   H55       1.0  0.45213  0.25092  0.05144  1.0000
  H   H56       1.0  0.44379  0.23956  0.04296  1.0000
  H   H57       1.0  0.45876  0.20762  0.06489  1.0000
  H   H58       1.0  0.03020  0.45590  0.18289  1.0000
  H   H59       1.0  0.45942  0.27541  0.07341  1.0000
  H   H60       1.0  0.45244  0.37363  0.01871  1.0000
  C   C52       1.0  0.18079  0.45260  0.99532  1.0000
  H   H61       1.0  0.04598  0.42640  0.17860  1.0000
  H   H62       1.0  0.99932  0.42124  0.17118  1.0000
  C   C53       1.0  0.28289  0.43824  0.04501  1.0000
  C   C54       1.0  0.27362  0.44606  0.04024  1.0000
  C   C55       1.0  0.26240  0.44360  0.04360  1.0000
  C   C56       1.0  0.26041  0.43328  0.05175  1.0000
  C   C57       1.0  0.26973  0.42531  0.05629  1.0000
  C   C58       1.0  0.28096  0.42774  0.05286  1.0000
  Fe  Fe11      1.0  0.31329  0.47739  0.02339  1.0000
  H   H63       1.0  0.17747  0.40650  0.05486  1.0000
  H   H64       1.0  0.36633  0.40242  0.00870  1.0000
  H   H65       1.0  0.01587  0.48514  0.15346  1.0000
  C   C59       1.0  0.21459  0.49076  0.99487  1.0000
  N   N4        1.0  0.43362  0.38067  0.02311  1.0000
  C   C60       1.0  0.46125  0.33732  0.04120  1.0000
  C   C61       1.0  0.45459  0.33463  0.05262  1.0000
  C   C62       1.0  0.45471  0.32290  0.05837  1.0000
  C   C63       1.0  0.46138  0.31380  0.05270  1.0000
  C   C64       1.0  0.46797  0.31645  0.04119  1.0000
  C   C65       1.0  0.46794  0.32824  0.03544  1.0000
  H   H66       1.0  0.44943  0.34161  0.05709  1.0000
  H   H67       1.0  0.44962  0.32090  0.06726  1.0000
  H   H68       1.0  0.47322  0.30946  0.03682  1.0000
  H   H69       1.0  0.47310  0.33030  0.02660  1.0000
  S   S21       1.0  0.04158  0.41221  0.16609  1.0000
  C   C66       1.0  0.47324  0.23903  0.99753  1.0000
  C   C67       1.0  0.48716  0.24546  0.08526  1.0000
  H   H70       1.0  0.08949  0.45886  0.17205  1.0000
  C   C68       1.0  0.06994  0.46733  0.16393  1.0000
  C   C69       1.0  0.42589  0.39056  0.02853  1.0000
  H   H71       1.0  0.26447  0.49200  0.01393  1.0000
  C   C70       1.0  0.29083  0.44915  0.00505  1.0000
  C   C71       1.0  0.34991  0.41489  0.01260  1.0000
  H   H72       1.0  0.34769  0.44053  0.03516  1.0000
  H   H73       1.0  0.09693  0.46515  0.02248  1.0000
  C   C72       1.0  0.18557  0.42349  0.01682  1.0000
  C   C73       1.0  0.04543  0.42583  0.16132  1.0000
  C   C74       1.0  0.38141  0.48658  0.00687  1.0000
  C   C75       1.0  0.07548  0.47851  0.03256  1.0000
  H   H74       1.0  0.28809  0.41217  0.01081  1.0000
  H   H75       1.0  0.45851  0.18799  0.01291  1.0000
  N   N5        1.0  0.46080  0.27058  0.09144  1.0000
  C   C76       1.0  0.09569  0.48139  0.12981  1.0000
  S   S22       1.0  0.46662  0.24332  0.06861  1.0000
  Fe  Fe12      1.0  0.47814  0.17527  0.04379  1.0000
  H   H76       1.0  0.43934  0.22872  0.99622  1.0000
  C   C77       1.0  0.18544  0.40984  0.05373  1.0000
  H   H77       1.0  0.21761  0.48852  0.03007  1.0000
  H   H78       1.0  0.19613  0.42628  0.05599  1.0000
  C   C78       1.0  0.34123  0.40328  0.00121  1.0000
  H   H79       1.0  0.01569  0.47802  0.13685  1.0000
  C   C79       1.0  0.01103  0.47403  0.11611  1.0000
  H   H80       1.0  0.45352  0.25588  0.10265  1.0000
  H   H81       1.0  0.09488  0.45836  0.07826  1.0000
  H   H82       1.0  0.34486  0.43846  0.01141  1.0000
  C   C80       1.0  0.49159  0.18792  0.00279  1.0000
  H   H83       1.0  0.45908  0.26339  0.10998  1.0000
  H   H84       1.0  0.07499  0.46189  0.06064  1.0000
  C   C81       1.0  0.25193  0.42151  0.99324  1.0000
  H   H85       1.0  0.02042  0.47057  0.11460  1.0000
  H   H86       1.0  0.17191  0.43824  0.05460  1.0000
  S   S23       1.0  0.48045  0.20697  0.04084  1.0000
  C   C82       1.0  0.47564  0.25187  0.08831  1.0000
  S   S24       1.0  0.33145  0.48078  0.01601  1.0000
  H   H87       1.0  0.35858  0.39214  0.99863  1.0000
  H   H88       1.0  0.44530  0.26983  0.10550  1.0000
  H   H89       1.0  0.16170  0.43469  0.04245  1.0000
  C   C83       1.0  0.27260  0.42944  0.01920  1.0000
  H   H90       1.0  0.31464  0.48110  0.99400  1.0000
  C   C84       1.0  0.28680  0.46994  0.99618  1.0000
  Fe  Fe13      1.0  0.03039  0.41197  0.18431  1.0000
  H   H91       1.0  0.43545  0.22113  0.01752  1.0000
  C   C85       1.0  0.35984  0.44692  0.01953  1.0000
  H   H92       1.0  0.06464  0.46085  0.16952  1.0000
  H   H93       1.0  0.04931  0.44657  0.17278  1.0000
  H   H94       1.0  0.48203  0.27814  0.08624  1.0000
  H   H95       1.0  0.31806  0.43492  0.00496  1.0000
  C   C86       1.0  0.09582  0.47487  0.02047  1.0000
  C   C87       1.0  0.21611  0.43457  0.99748  1.0000
  H   H96       1.0  0.18664  0.44889  0.00138  1.0000
  H   H97       1.0  0.36998  0.45583  0.00372  1.0000
  C   C88       1.0  0.01646  0.47185  0.14512  1.0000
  H   H98       1.0  0.28809  0.42163  0.05654  1.0000
  H   H99       1.0  0.23645  0.42087  0.00711  1.0000
  C   C89       1.0  0.34228  0.46771  0.01740  1.0000
  H   H100      1.0  0.26823  0.41730  0.06257  1.0000
  H   H101      1.0  0.44756  0.37992  0.03125  1.0000
  H   H102      1.0  0.27508  0.45396  0.03390  1.0000
  Fe  Fe14      1.0  0.23370  0.44343  0.04620  1.0000
  C   C90       1.0  0.01807  0.46788  0.16564  1.0000
  C   C91       1.0  0.28685  0.46082  0.00614  1.0000
  H   H103      1.0  0.15208  0.47762  0.05125  1.0000
  H   H104      1.0  0.33590  0.48928  0.03865  1.0000
  H   H105      1.0  0.32502  0.41551  0.00425  1.0000
  Fe  Fe15      1.0  0.49111  0.26933  0.03852  1.0000
  C   C92       1.0  0.16865  0.43128  0.03564  1.0000
  C   C93       1.0  0.07921  0.45373  0.15123  1.0000
  S   S25       1.0  0.21435  0.43367  0.02054  1.0000
  C   C94       1.0  0.33385  0.41293  0.00569  1.0000
  H   H106      1.0  0.07039  0.48270  0.01110  1.0000
  C   C95       1.0  0.04843  0.44253  0.16631  1.0000
  S   S26       1.0  0.49287  0.03034  0.17522  1.0000
  H   H107      1.0  0.08754  0.44880  0.14646  1.0000
  H   H108      1.0  0.07433  0.44713  0.15741  1.0000
  H   H109      1.0  0.07361  0.45879  0.14485  1.0000
  H   H110      1.0  0.09747  0.44990  0.16154  1.0000
  H   H111      1.0  0.07919  0.46814  0.01475  1.0000
  H   H112      1.0  0.01797  0.48707  0.18189  1.0000
  C   C96       1.0  0.48910  0.18385  0.99431  1.0000
  S   S27       1.0  0.01593  0.42786  0.18708  1.0000
  H   H113      1.0  0.03707  0.46739  0.17326  1.0000
  S   S28       1.0  0.23814  0.44541  0.02669  1.0000
  H   H114      1.0  0.45473  0.26217  0.08142  1.0000
  Fe  Fe16      1.0  0.21930  0.44505  0.02915  1.0000
  H   H115      1.0  0.45286  0.41048  0.00619  1.0000
  H   H116      1.0  0.47516  0.21742  0.01253  1.0000
  C   C97       1.0  0.34915  0.44784  0.02786  1.0000
  H   H117      1.0  0.19366  0.43581  0.04226  1.0000
  S   S29       1.0  0.14274  0.48286  0.01252  1.0000
  C   C98       1.0  0.08994  0.46678  0.07440  1.0000
  Fe  Fe17      1.0  0.21025  0.46101  0.04634  1.0000
  H   H118      1.0  0.10334  0.48598  0.08810  1.0000
  H   H119      1.0  0.43737  0.36168  0.02812  1.0000
  H   H120      1.0  0.33701  0.44123  0.00025  1.0000
  S   S30       1.0  0.48100  0.25732  0.03692  1.0000
  S   S31       1.0  0.46288  0.27585  0.01460  1.0000
  H   H121      1.0  0.16584  0.42530  0.06008  1.0000
  C   C99       1.0  0.07883  0.47164  0.08068  1.0000
  H   H122      1.0  0.41642  0.39055  0.03012  1.0000
  H   H123      1.0  0.42738  0.39922  0.02286  1.0000
  C   C100      1.0  0.01754  0.45994  0.14594  1.0000
  C   C101      1.0  0.17002  0.47520  0.05262  1.0000
  Fe  Fe18      1.0  0.05933  0.47472  0.10690  1.0000
  H   H124      1.0  0.09929  0.47723  0.02682  1.0000
  C   C102      1.0  0.22947  0.48796  0.00575  1.0000
  C   C103      1.0  0.04657  0.43114  0.16961  1.0000
  H   H125      1.0  0.16288  0.48407  0.02364  1.0000
  H   H126      1.0  0.25568  0.44545  0.99733  1.0000
  C   C104      1.0  0.26382  0.41893  0.01116  1.0000
  H   H127      1.0  0.16656  0.46048  0.00797  1.0000
  H   H128      1.0  0.10340  0.46919  0.05846  1.0000
  H   H129      1.0  0.35378  0.41920  0.01675  1.0000
  H   H130      1.0  0.28588  0.40730  0.02621  1.0000
  C   C105      1.0  0.09082  0.47849  0.15416  1.0000
  H   H131      1.0  0.42762  0.39008  0.03720  1.0000
  H   H132      1.0  0.18995  0.47952  0.00169  1.0000
  H   H133      1.0  0.48309  0.24494  0.01144  1.0000
  S   S32       1.0  0.47103  0.35157  0.00142  1.0000
  C   C106      1.0  0.44352  0.21973  0.99950  1.0000
  C   C107      1.0  0.09477  0.47289  0.06322  1.0000
  Fe  Fe19      1.0  0.03440  0.48785  0.11554  1.0000
  H   H134      1.0  0.24794  0.45907  0.00145  1.0000
  C   C108      1.0  0.44593  0.38088  0.02243  1.0000
  H   H135      1.0  0.44598  0.36593  0.00802  1.0000
  C   C109      1.0  0.21004  0.45326  0.00329  1.0000
  C   C110      1.0  0.44128  0.21551  0.01169  1.0000
  C   C111      1.0  0.01911  0.45584  0.16614  1.0000
  C   C112      1.0  0.02062  0.42228  0.14642  1.0000
  C   C113      1.0  0.18167  0.46887  0.04977  1.0000
  C   C114      1.0  0.16113  0.47302  0.04874  1.0000
  C   C115      1.0  0.32994  0.42751  0.02884  1.0000
  H   H136      1.0  0.26857  0.41299  0.03915  1.0000
  H   H137      1.0  0.09304  0.48757  0.07952  1.0000
  H   H138      1.0  0.02053  0.44931  0.17396  1.0000
  S   S33       1.0  0.22827  0.46278  0.04588  1.0000
  C   C116      1.0  0.18011  0.42528  0.03743  1.0000
  H   H139      1.0  0.25538  0.42107  0.03483  1.0000
  C   C117      1.0  0.01665  0.47583  0.15479  1.0000
  C   C118      1.0  0.17407  0.42852  0.05779  1.0000
  H   H140      1.0  0.46647  0.21894  0.07382  1.0000
  C   C119      1.0  0.35298  0.46683  0.00912  1.0000
  S   S34       1.0  0.05696  0.48816  0.18755  1.0000
  S   S35       1.0  0.12668  0.47135  0.99640  1.0000
  C   C120      1.0  0.48677  0.27039  0.00679  1.0000
  H   H141      1.0  0.19332  0.45573  0.04058  1.0000
  Fe  Fe20      1.0  0.29676  0.46060  0.03476  1.0000
  S   S36       1.0  0.28062  0.47487  0.03258  1.0000
  H   H142      1.0  0.01934  0.43409  0.12975  1.0000
  C   C121      1.0  0.09631  0.48742  0.14686  1.0000
  H   H143      1.0  0.46376  0.28321  0.09912  1.0000
  N   N6        1.0  0.08335  0.48113  0.02082  1.0000
  H   H144      1.0  0.19276  0.40491  0.04784  1.0000
  S   S37       1.0  0.12284  0.46865  0.03055  1.0000
  C   C122      1.0  0.46752  0.22454  0.01499  1.0000
  H   H145      1.0  0.02481  0.48724  0.16685  1.0000
  Fe  Fe21      1.0  0.29125  0.48077  0.01458  1.0000
  C   C123      1.0  0.16585  0.43332  0.02475  1.0000
  C   C124      1.0  0.34031  0.45818  0.02672  1.0000
  H   H146      1.0  0.35444  0.47407  0.00175  1.0000
  C   C125      1.0  0.36175  0.45645  0.01017  1.0000
  H   H147      1.0  0.33207  0.45883  0.03317  1.0000
  H   H148      1.0  0.48941  0.18363  0.01190  1.0000
  S   S38       1.0  0.21296  0.46457  0.02686  1.0000
  Fe  Fe22      1.0  0.28938  0.48547  0.03840  1.0000
  C   C126      1.0  0.45428  0.19686  0.00913  1.0000
  C   C127      1.0  0.25155  0.41945  0.01374  1.0000
  C   C128      1.0  0.07244  0.48249  0.07566  1.0000
  C   C129      1.0  0.45660  0.20096  0.99694  1.0000
  H   H149      1.0  0.39555  0.48879  0.01278  1.0000
  H   H150      1.0  0.28027  0.40062  0.01810  1.0000
  S   S39       1.0  0.28534  0.48417  0.99775  1.0000
  C   C130      1.0  0.35284  0.39943  0.00242  1.0000
  C   C131      1.0  0.09401  0.48968  0.08745  1.0000
  C   C132      1.0  0.21332  0.44100  0.00619  1.0000
  H   H151      1.0  0.18451  0.47975  0.02111  1.0000
  H   H152      1.0  0.45174  0.24474  0.01340  1.0000
  S   S40       1.0  0.30481  0.47070  0.04211  1.0000
  S   S41       1.0  0.30686  0.46581  0.01646  1.0000
  H   H153      1.0  0.26357  0.45628  0.99689  1.0000
  C   C133      1.0  0.01882  0.45195  0.15647  1.0000
  S   S42       1.0  0.47870  0.37185  0.00907  1.0000
  H   H154      1.0  0.32631  0.41965  0.03379  1.0000
  H   H155      1.0  0.48675  0.13192  0.04534  1.0000
  H   H156      1.0  0.31297  0.44042  0.01811  1.0000
  H   H157      1.0  0.28432  0.46276  0.01474  1.0000
  C   C134      1.0  0.16954  0.45917  0.99903  1.0000
  S   S43       1.0  0.48221  0.26936  0.05738  1.0000
  H   H158      1.0  0.20741  0.45824  0.01000  1.0000
  H   H159      1.0  0.17785  0.45210  0.03353  1.0000
  S   S44       1.0  0.30043  0.43179  0.99290  1.0000
  N   N7        1.0  0.33060  0.42953  0.01608  1.0000
  H   H160      1.0  0.06465  0.47366  0.15774  1.0000
  Fe  Fe23      1.0  0.12648  0.47834  0.01175  1.0000
  H   H161      1.0  0.02967  0.41788  0.14342  1.0000
  H   H162      1.0  0.43202  0.36881  0.04014  1.0000
  H   H163      1.0  0.19738  0.41685  0.02831  1.0000
  C   C135      1.0  0.07936  0.47765  0.01210  1.0000
  N   N8        1.0  0.01822  0.47170  0.17615  1.0000
  N   N9        1.0  0.47025  0.23634  0.01055  1.0000
  C   C136      1.0  0.19425  0.42663  0.04744  1.0000
  Fe  Fe24      1.0  0.23138  0.46458  0.02647  1.0000
  S   S45       1.0  0.15309  0.46039  0.03820  1.0000
  H   H164      1.0  0.45876  0.25440  0.99443  1.0000
  S   S46       1.0  0.40042  0.41869  0.00187  1.0000
  Fe  Fe25      1.0  0.48794  0.19579  0.02761  1.0000
  C   C137      1.0  0.18407  0.48937  0.01907  1.0000
  H   H165      1.0  0.15710  0.43814  0.02358  1.0000
  Fe  Fe26      1.0  0.11259  0.48620  0.03454  1.0000
  C   C138      1.0  0.26977  0.42012  0.99914  1.0000
  S   S47       1.0  0.08523  0.48066  0.18866  1.0000
  C   C139      1.0  0.00345  0.46653  0.11804  1.0000
  H   H166      1.0  0.04665  0.48673  0.04685  1.0000
  C   C140      1.0  0.18847  0.42143  0.02766  1.0000
  C   C141      1.0  0.18280  0.48484  0.99761  1.0000
  H   H167      1.0  0.22464  0.47385  0.00204  1.0000
  H   H168      1.0  0.49256  0.23236  0.05808  1.0000
  H   H169      1.0  0.20270  0.48879  0.03726  1.0000
  H   H170      1.0  0.00888  0.48977  0.17185  1.0000
  C   C142      1.0  0.24577  0.42065  0.00489  1.0000
  C   C143      1.0  0.28154  0.40911  0.01876  1.0000
  C   C144      1.0  0.07174  0.46802  0.05325  1.0000
  H   H171      1.0  0.32412  0.43513  0.03260  1.0000
  C   C145      1.0  0.05581  0.48208  0.04551  1.0000
  C   C146      1.0  0.43194  0.38128  0.01132  1.0000
  C   C147      1.0  0.42139  0.38991  0.99529  1.0000
  C   C148      1.0  0.43909  0.37280  0.00472  1.0000
  H   H172      1.0  0.22235  0.48724  0.04947  1.0000
  C   C149      1.0  0.25556  0.45500  0.99513  1.0000
  H   H173      1.0  0.48737  0.27153  0.01504  1.0000
  H   H174      1.0  0.46865  0.24739  0.08992  1.0000
  H   H175      1.0  0.45827  0.24288  0.02539  1.0000
  H   H176      1.0  0.49275  0.16725  0.06979  1.0000
  C   C150      1.0  0.07943  0.47021  0.04229  1.0000
  H   H177      1.0  0.08818  0.46690  0.13263  1.0000
  H   H178      1.0  0.48813  0.22922  0.01291  1.0000
  C   C151      1.0  0.33799  0.41904  0.01156  1.0000
  S   S48       1.0  0.43019  0.42371  0.00246  1.0000
  H   H179      1.0  0.45421  0.30117  0.01206  1.0000
  H   H180      1.0  0.08847  0.46550  0.04181  1.0000
  C   C152      1.0  0.47582  0.27217  0.00420  1.0000
  H   H181      1.0  0.47215  0.32256  0.00554  1.0000
  C   C153      1.0  0.00818  0.46872  0.18578  1.0000
  H   H182      1.0  0.99968  0.47298  0.18312  1.0000
  C   C154      1.0  0.44664  0.20410  0.01649  1.0000
  H   H183      1.0  0.41722  0.39679  0.01047  1.0000
  H   H184      1.0  0.08875  0.47803  0.16350  1.0000
  H   H185      1.0  0.46141  0.25396  0.01266  1.0000
  H   H186      1.0  0.00879  0.45906  0.18860  1.0000
  C   C155      1.0  0.01741  0.48452  0.17400  1.0000
  H   H187      1.0  0.33804  0.39891  0.99647  1.0000
  C   C156      1.0  0.45112  0.40762  0.99929  1.0000
  H   H188      1.0  0.45659  0.29908  0.99761  1.0000
  C   C157      1.0  0.07715  0.48847  0.06441  1.0000
  H   H189      1.0  0.47603  0.29604  0.00842  1.0000
  Fe  Fe27      1.0  0.49022  0.34302  0.99773  1.0000
  H   H190      1.0  0.99891  0.44395  0.13644  1.0000
  N   N10       1.0  0.46578  0.31134  0.99895  1.0000
  H   H191      1.0  0.19245  0.49120  0.01303  1.0000
  H   H192      1.0  0.31807  0.49141  0.03578  1.0000
  S   S49       1.0  0.29853  0.49283  0.02003  1.0000
  H   H193      1.0  0.44728  0.31252  0.00145  1.0000
  H   H194      1.0  0.49251  0.15792  0.06103  1.0000
  C   C158      1.0  0.49542  0.15597  0.02651  1.0000
  S   S50       1.0  0.03891  0.49169  0.13054  1.0000
  C   C159      1.0  0.47527  0.27110  0.99324  1.0000
  H   H195      1.0  0.48442  0.30573  0.99769  1.0000
  C   C160      1.0  0.45552  0.30583  0.00264  1.0000
  S   S51       1.0  0.49323  0.34440  0.01464  1.0000
  C   C161      1.0  0.47662  0.30194  0.99957  1.0000
  H   H196      1.0  0.09742  0.48264  0.12036  1.0000
  H   H197      1.0  0.18358  0.49154  0.02753  1.0000
  H   H198      1.0  0.35652  0.48856  0.03631  1.0000
  H   H199      1.0  0.06339  0.43651  0.19001  1.0000
  C   C162      1.0  0.32430  0.47749  0.99158  1.0000
  H   H200      1.0  0.49346  0.16541  0.02526  1.0000
  H   H201      1.0  0.48872  0.23641  0.08459  1.0000
  C   C163      1.0  0.45110  0.21250  0.99173  1.0000
  S   S52       1.0  0.09396  0.49180  0.04436  1.0000
  C   C164      1.0  0.43755  0.37306  0.99367  1.0000
  Fe  Fe28      1.0  0.47679  0.36850  0.99259  1.0000
  H   H202      1.0  0.47843  0.29619  0.99330  1.0000
  S   S53       1.0  0.49544  0.18010  0.04016  1.0000
  C   C165      1.0  0.49539  0.15793  0.06892  1.0000
  C   C166      1.0  0.99702  0.43384  0.15454  1.0000
  H   H203      1.0  0.41464  0.39665  0.99148  1.0000
  C   C167      1.0  0.99714  0.47973  0.24384  1.0000
  C   C168      1.0  0.04822  0.44382  0.33236  1.0000
  C   C169      1.0  0.43642  0.00714  0.38014  1.0000
  C   C170      1.0  0.48360  0.04318  0.24202  1.0000
  S   S54       1.0  0.03713  0.41089  0.20003  1.0000
  H   H204      1.0  0.10298  0.42825  0.22540  1.0000
  H   H205      1.0  0.45998  0.01150  0.30768  1.0000
  H   H206      1.0  0.49020  0.01821  0.28064  1.0000
  Fe  Fe29      1.0  0.02437  0.39946  0.20958  1.0000
  S   S55       1.0  0.02953  0.38288  0.22243  1.0000
  C   C171      1.0  0.01883  0.42411  0.33702  1.0000
  Fe  Fe30      1.0  0.02259  0.43219  0.27113  1.0000
  S   S56       1.0  0.47911  0.04343  0.22943  1.0000
  C   C172      1.0  0.45724  0.01496  0.26559  1.0000
  C   C173      1.0  0.03030  0.44898  0.32528  1.0000
  S   S57       1.0  0.02421  0.41446  0.28335  1.0000
  H   H207      1.0  0.01869  0.46021  0.26648  1.0000
  Fe  Fe31      1.0  0.04887  0.43038  0.26369  1.0000
  S   S58       1.0  0.05291  0.41256  0.27518  1.0000
  S   S59       1.0  0.06270  0.44006  0.25227  1.0000
  Fe  Fe32      1.0  0.03908  0.40875  0.26887  1.0000
  S   S60       1.0  0.04317  0.39074  0.26540  1.0000
  Fe  Fe33      1.0  0.03782  0.41969  0.28872  1.0000
  S   S61       1.0  0.04009  0.41484  0.30728  1.0000
  S   S62       1.0  0.03626  0.42605  0.25606  1.0000
  S   S63       1.0  0.03503  0.43806  0.27776  1.0000
  C   C174      1.0  0.06929  0.44414  0.26122  1.0000
  C   C175      1.0  0.07122  0.43669  0.27191  1.0000
  C   C176      1.0  0.07665  0.43996  0.27889  1.0000
  C   C177      1.0  0.07956  0.45096  0.27553  1.0000
  C   C178      1.0  0.07743  0.45849  0.26495  1.0000
  C   C179      1.0  0.07264  0.45492  0.25765  1.0000
  H   H208      1.0  0.06877  0.42829  0.27468  1.0000
  H   H209      1.0  0.07841  0.43406  0.28700  1.0000
  H   H210      1.0  0.07983  0.46692  0.26222  1.0000
  H   H211      1.0  0.07137  0.46060  0.24933  1.0000
  C   C180      1.0  0.02835  0.41885  0.32908  1.0000
  C   C181      1.0  0.02771  0.42046  0.31739  1.0000
  C   C182      1.0  0.01745  0.42712  0.31371  1.0000
  H   H212      1.0  0.04869  0.42988  0.22908  1.0000
  H   H213      1.0  0.03625  0.41363  0.33199  1.0000
  H   H214      1.0  0.11365  0.44564  0.21579  1.0000
  S   S64       1.0  0.01460  0.42860  0.36975  1.0000
  Fe  Fe34      1.0  0.49305  0.03559  0.21535  1.0000
  H   H215      1.0  0.46794  0.02675  0.25405  1.0000
  H   H216      1.0  0.03814  0.45502  0.30066  1.0000
  C   C183      1.0  0.48099  0.05190  0.25854  1.0000
  H   H217      1.0  0.03033  0.47558  0.37601  1.0000
  C   C184      1.0  0.47726  0.05150  0.24879  1.0000
  C   C185      1.0  0.04156  0.44531  0.34350  1.0000
  H   H218      1.0  0.06031  0.41015  0.20678  1.0000
  H   H219      1.0  0.47610  0.05844  0.26367  1.0000
  H   H220      1.0  0.46953  0.05777  0.24639  1.0000
  C   C186      1.0  0.03797  0.38884  0.25419  1.0000
  C   C187      1.0  0.03239  0.39843  0.24669  1.0000
  C   C188      1.0  0.02970  0.39672  0.23686  1.0000
  C   C189      1.0  0.03218  0.38535  0.23487  1.0000
  C   C190      1.0  0.03713  0.37574  0.24278  1.0000
  C   C191      1.0  0.04013  0.37749  0.25235  1.0000
  H   H221      1.0  0.03033  0.40712  0.24839  1.0000
  H   H222      1.0  0.02579  0.40415  0.23082  1.0000
  H   H223      1.0  0.03897  0.36695  0.24131  1.0000
  H   H224      1.0  0.04434  0.37005  0.25822  1.0000
  C   C192      1.0  0.02873  0.47351  0.26049  1.0000
  H   H225      1.0  0.10275  0.45038  0.20699  1.0000
  H   H226      1.0  0.01942  0.42295  0.34599  1.0000
  C   C193      1.0  0.09469  0.43504  0.22474  1.0000
  C   C194      1.0  0.04559  0.47957  0.34788  1.0000
  H   H227      1.0  0.02207  0.48065  0.34904  1.0000
  H   H228      1.0  0.05606  0.40792  0.24674  1.0000
  H   H229      1.0  0.47426  0.03460  0.28562  1.0000
  C   C195      1.0  0.49341  0.03492  0.24535  1.0000
  C   C196      1.0  0.05369  0.48204  0.25386  1.0000
  C   C197      1.0  0.04488  0.48867  0.32764  1.0000
  C   C198      1.0  0.06148  0.40213  0.21341  1.0000
  S   S65       1.0  0.08583  0.45524  0.28459  1.0000
  H   H230      1.0  0.03262  0.48193  0.21099  1.0000
  C   C199      1.0  0.10458  0.45084  0.21531  1.0000
  C   C200      1.0  0.06229  0.40222  0.22481  1.0000
  C   C201      1.0  0.00088  0.47659  0.32564  1.0000
  C   C202      1.0  0.08429  0.45484  0.22553  1.0000
  H   H231      1.0  0.08155  0.45589  0.21723  1.0000
  S   S66       1.0  0.49139  0.02109  0.20831  1.0000
  S   S67       1.0  0.49234  0.99648  0.37426  1.0000
  S   S68       1.0  0.06795  0.47587  0.30602  1.0000
  H   H232      1.0  0.04587  0.44372  0.35066  1.0000
  H   H233      1.0  0.03653  0.46504  0.35528  1.0000
  H   H234      1.0  0.08730  0.43192  0.23163  1.0000
  H   H235      1.0  0.01690  0.42822  0.30475  1.0000
  C   C203      1.0  0.02374  0.45045  0.33646  1.0000
  H   H236      1.0  0.02667  0.47493  0.26929  1.0000
  C   C204      1.0  0.46549  0.02176  0.26294  1.0000
  H   H237      1.0  0.07730  0.45173  0.23291  1.0000
  S   S69       1.0  0.48000  0.01379  0.34559  1.0000
  H   H238      1.0  0.05099  0.42491  0.31776  1.0000
  S   S70       1.0  0.07156  0.45416  0.19485  1.0000
  S   S71       1.0  0.09126  0.48545  0.21719  1.0000
  H   H239      1.0  0.06372  0.45020  0.29778  1.0000
  H   H240      1.0  0.48184  0.00486  0.23128  1.0000
  H   H241      1.0  0.99957  0.41163  0.28160  1.0000
  H   H242      1.0  0.06234  0.42050  0.24205  1.0000
  Fe  Fe35      1.0  0.06948  0.47274  0.19591  1.0000
  C   C205      1.0  0.02118  0.47889  0.37560  1.0000
  H   H243      1.0  0.07033  0.42778  0.22200  1.0000
  Fe  Fe36      1.0  0.00511  0.41490  0.19776  1.0000
  N   N11       1.0  0.06142  0.41345  0.22790  1.0000
  C   C206      1.0  0.05612  0.44153  0.19540  1.0000
  C   C207      1.0  0.05114  0.46187  0.36273  1.0000
  H   H244      1.0  0.04866  0.48007  0.32502  1.0000
  H   H245      1.0  0.46101  0.03210  0.29614  1.0000
  S   S72       1.0  0.00953  0.41425  0.21462  1.0000
  S   S73       1.0  0.01894  0.39912  0.19353  1.0000
  C   C208      1.0  0.00566  0.49287  0.24846  1.0000
  C   C209      1.0  0.03716  0.45457  0.20912  1.0000
  C   C210      1.0  0.06354  0.39121  0.23297  1.0000
  H   H246      1.0  0.45663  0.00343  0.29438  1.0000
  C   C211      1.0  0.45413  0.00854  0.27699  1.0000
  H   H247      1.0  0.01422  0.45264  0.33819  1.0000
  H   H248      1.0  0.48670  0.02806  0.32266  1.0000
  S   S74       1.0  0.08121  0.49037  0.28108  1.0000
  C   C212      1.0  0.46963  0.00887  0.30418  1.0000
  H   H249      1.0  0.03594  0.46566  0.23007  1.0000
  C   C213      1.0  0.10582  0.44532  0.25761  1.0000
  C   C214      1.0  0.46778  0.01566  0.28339  1.0000
  H   H250      1.0  0.04382  0.43181  0.19566  1.0000
  H   H251      1.0  0.45326  0.01466  0.25879  1.0000
  C   C215      1.0  0.03591  0.47984  0.25091  1.0000
  H   H252      1.0  0.04882  0.44401  0.29376  1.0000
  H   H253      1.0  0.09599  0.42852  0.24635  1.0000
  C   C216      1.0  0.00866  0.43097  0.33325  1.0000
  C   C217      1.0  0.42530  0.00514  0.38176  1.0000
  H   H254      1.0  0.04788  0.42293  0.21826  1.0000
  C   C218      1.0  0.03375  0.46800  0.23852  1.0000
  H   H255      1.0  0.00671  0.48016  0.28610  1.0000
  C   C219      1.0  0.00435  0.44956  0.28779  1.0000
  C   C220      1.0  0.04279  0.44556  0.32290  1.0000
  S   S75       1.0  0.05880  0.47989  0.28182  1.0000
  H   H256      1.0  0.07002  0.47973  0.35667  1.0000
  C   C221      1.0  0.02660  0.46211  0.24807  1.0000
  C   C222      1.0  0.05770  0.45084  0.19896  1.0000
  H   H257      1.0  0.04412  0.48077  0.23230  1.0000
  H   H258      1.0  0.10447  0.46027  0.21427  1.0000
  Fe  Fe37      1.0  0.00860  0.44522  0.37670  1.0000
  N   N12       1.0  0.05007  0.44343  0.31133  1.0000
  H   H259      1.0  0.05930  0.47944  0.24561  1.0000
  C   C223      1.0  0.03559  0.44525  0.20553  1.0000
  C   C224      1.0  0.02408  0.46491  0.25900  1.0000
  H   H260      1.0  0.05740  0.49158  0.34335  1.0000
  S   S76       1.0  0.06478  0.47808  0.21310  1.0000
  H   H261      1.0  0.03684  0.43986  0.30502  1.0000
  C   C225      1.0  0.04821  0.45744  0.20574  1.0000
  C   C226      1.0  0.03840  0.47670  0.23990  1.0000
  H   H262      1.0  0.09264  0.43567  0.21618  1.0000
  S   S77       1.0  0.00516  0.44342  0.26766  1.0000
  Fe  Fe38      1.0  0.07577  0.47312  0.28768  1.0000
  C   C227      1.0  0.05682  0.43104  0.31271  1.0000
  H   H263      1.0  0.01062  0.42943  0.23383  1.0000
  H   H264      1.0  0.04941  0.46466  0.20848  1.0000
  H   H265      1.0  0.44870  0.00979  0.38834  1.0000
  C   C228      1.0  0.47501  0.99965  0.23582  1.0000
  H   H266      1.0  0.01172  0.44227  0.28878  1.0000
  C   C229      1.0  0.06298  0.41194  0.23997  1.0000
  C   C230      1.0  0.47068  0.02861  0.29380  1.0000
  H   H267      1.0  0.07946  0.41372  0.21946  1.0000
  C   C231      1.0  0.02935  0.44862  0.34554  1.0000
  C   C232      1.0  0.10268  0.45559  0.23823  1.0000
  N   N13       1.0  0.09582  0.44654  0.22580  1.0000
  H   H268      1.0  0.06106  0.42851  0.30409  1.0000
  H   H269      1.0  0.06492  0.44944  0.31220  1.0000
  C   C233      1.0  0.49461  0.02289  0.32557  1.0000
  C   C234      1.0  0.02801  0.48188  0.34014  1.0000
  H   H270      1.0  0.06918  0.42219  0.21047  1.0000
  C   C235      1.0  0.06379  0.38088  0.22987  1.0000
  H   H271      1.0  0.04928  0.45368  0.36844  1.0000
  H   H272      1.0  0.06616  0.46073  0.36933  1.0000
  C   C236      1.0  0.04968  0.42119  0.22710  1.0000
  C   C237      1.0  0.07051  0.41951  0.21960  1.0000
  S   S78       1.0  0.03425  0.47866  0.30934  1.0000
  C   C238      1.0  0.06164  0.39175  0.21046  1.0000
  C   C239      1.0  0.05848  0.45122  0.30667  1.0000
  Fe  Fe39      1.0  0.02173  0.42585  0.20356  1.0000
  H   H273      1.0  0.07171  0.40627  0.24117  1.0000
  C   C240      1.0  0.09902  0.43604  0.24635  1.0000
  H   H274      1.0  0.05357  0.47394  0.26095  1.0000
  C   C241      1.0  0.47066  0.02215  0.27170  1.0000
  H   H275      1.0  0.01936  0.47002  0.30045  1.0000
  S   S79       1.0  0.02094  0.45609  0.37647  1.0000
  H   H276      1.0  0.02983  0.45960  0.21443  1.0000
  C   C242      1.0  0.48638  0.01230  0.28875  1.0000
  H   H277      1.0  0.10174  0.42831  0.26392  1.0000
  H   H278      1.0  0.01390  0.48955  0.24234  1.0000
  H   H279      1.0  0.48743  0.99606  0.21540  1.0000
  H   H280      1.0  0.04259  0.41707  0.23329  1.0000
  C   C243      1.0  0.01616  0.49098  0.37468  1.0000
  H   H281      1.0  0.02315  0.45521  0.24710  1.0000
  H   H282      1.0  0.06393  0.42925  0.31746  1.0000
  H   H283      1.0  0.46651  0.00501  0.23362  1.0000
  S   S80       1.0  0.02177  0.44176  0.20964  1.0000
  H   H284      1.0  0.05377  0.46055  0.30591  1.0000
  H   H285      1.0  0.00756  0.42690  0.24964  1.0000
  C   C244      1.0  0.00014  0.45672  0.29598  1.0000
  H   H286      1.0  0.02534  0.45034  0.31873  1.0000
  H   H287      1.0  0.00149  0.48005  0.31608  1.0000
  H   H288      1.0  0.47394  0.00958  0.31084  1.0000
  H   H289      1.0  0.06230  0.37323  0.21654  1.0000
  H   H290      1.0  0.47697  0.02756  0.26922  1.0000
  H   H291      1.0  0.02421  0.44962  0.35421  1.0000
  H   H292      1.0  0.05766  0.44108  0.33122  1.0000
  C   C245      1.0  0.04311  0.44571  0.30234  1.0000
  C   C246      1.0  0.01436  0.47111  0.37614  1.0000
  H   H293      1.0  0.01618  0.47870  0.20490  1.0000
  H   H294      1.0  0.06392  0.39033  0.24196  1.0000
  C   C247      1.0  0.00512  0.43311  0.24158  1.0000
  C   C248      1.0  0.01145  0.48502  0.28859  1.0000
  H   H295      1.0  0.10257  0.46363  0.23158  1.0000
  C   C249      1.0  0.09930  0.44592  0.23674  1.0000
  H   H296      1.0  0.08442  0.46370  0.22631  1.0000
  C   C250      1.0  0.00793  0.43237  0.32163  1.0000
  C   C251      1.0  0.45934  0.00878  0.28579  1.0000
  H   H297      1.0  0.09284  0.48035  0.24133  1.0000
  N   N14       1.0  0.47345  0.01629  0.29244  1.0000
  C   C252      1.0  0.06057  0.46587  0.36330  1.0000
  C   C253      1.0  0.10596  0.45522  0.24848  1.0000
  C   C254      1.0  0.04379  0.46855  0.35509  1.0000
  C   C255      1.0  0.06268  0.38117  0.21871  1.0000
  H   H298      1.0  0.00785  0.47163  0.19378  1.0000
  Fe  Fe40      1.0  0.48257  0.99831  0.36051  1.0000
  H   H299      1.0  0.00451  0.45507  0.30309  1.0000
  C   C256      1.0  0.01865  0.47931  0.29665  1.0000
  Fe  Fe41      1.0  0.00133  0.42189  0.38556  1.0000
  C   C257      1.0  0.08606  0.48821  0.23982  1.0000
  H   H300      1.0  0.49253  0.06846  0.22764  1.0000
  C   C258      1.0  0.10230  0.43578  0.25657  1.0000
  C   C259      1.0  0.49379  0.01529  0.33665  1.0000
  H   H301      1.0  0.99693  0.46953  0.37706  1.0000
  H   H302      1.0  0.99806  0.46815  0.32749  1.0000
  H   H303      1.0  0.03601  0.48668  0.27139  1.0000
  H   H304      1.0  0.10796  0.44525  0.26572  1.0000
  H   H305      1.0  0.06056  0.39195  0.20184  1.0000
  N   N15       1.0  0.04166  0.48832  0.25250  1.0000
  H   H306      1.0  0.44771  0.00324  0.27902  1.0000
  C   C260      1.0  0.43997  0.00831  0.38961  1.0000
  N   N16       1.0  0.03785  0.48698  0.33987  1.0000
  C   C261      1.0  0.01626  0.48745  0.20528  1.0000
  H   H307      1.0  0.00541  0.47734  0.23727  1.0000
  H   H308      1.0  0.49090  0.01213  0.29559  1.0000
  Fe  Fe42      1.0  0.05126  0.48387  0.29965  1.0000
  H   H309      1.0  0.42256  0.00429  0.37434  1.0000
  H   H310      1.0  0.47187  0.99940  0.30386  1.0000
  Fe  Fe43      1.0  0.07948  0.48743  0.20522  1.0000
  H   H311      1.0  0.00988  0.47455  0.32724  1.0000
  S   S81       1.0  0.49572  0.04493  0.27361  1.0000
  H   H312      1.0  0.03132  0.47329  0.33740  1.0000
  C   C262      1.0  0.02486  0.48564  0.29973  1.0000
  C   C263      1.0  0.04504  0.43885  0.19857  1.0000
  H   H313      1.0  0.47455  0.02939  0.30075  1.0000
  S   S82       1.0  0.99690  0.43825  0.34275  1.0000
  C   C264      1.0  0.99902  0.45184  0.27838  1.0000
  H   H314      1.0  0.06431  0.37266  0.23636  1.0000
  C   C265      1.0  0.06271  0.47657  0.35622  1.0000
  C   C266      1.0  0.00241  0.47545  0.37611  1.0000
  Fe  Fe44      1.0  0.99932  0.43615  0.36091  1.0000
  H   H315      1.0  0.10833  0.46278  0.24949  1.0000
  H   H316      1.0  0.48876  0.00331  0.28695  1.0000
  H   H317      1.0  0.08114  0.48968  0.25787  1.0000
  H   H318      1.0  0.05808  0.48755  0.25629  1.0000
  C   C267      1.0  0.05537  0.48333  0.34861  1.0000
  H   H319      1.0  0.44232  0.00784  0.37152  1.0000
  C   C268      1.0  0.49112  0.04401  0.26154  1.0000
  C   C269      1.0  0.02551  0.48924  0.20882  1.0000
  C   C270      1.0  0.99741  0.48750  0.37516  1.0000
  H   H320      1.0  0.00612  0.48780  0.25757  1.0000
  H   H321      1.0  0.00003  0.43759  0.31875  1.0000
  H   H322      1.0  0.47280  0.99539  0.21593  1.0000
  H   H323      1.0  0.02254  0.48766  0.33387  1.0000
  H   H324      1.0  0.47427  0.99879  0.24531  1.0000
  H   H325      1.0  0.00771  0.44135  0.24099  1.0000
  H   H326      1.0  0.99790  0.47324  0.25227  1.0000
  H   H327      1.0  0.99794  0.47536  0.34877  1.0000
  H   H328      1.0  0.49521  0.99388  0.32317  1.0000
  H   H329      1.0  0.46105  0.99373  0.33339  1.0000
  H   H330      1.0  0.05230  0.49278  0.32643  1.0000
  C   C271      1.0  0.08362  0.49280  0.22864  1.0000
  H   H331      1.0  0.26962  0.02415  0.47176  1.0000
  C   C272      1.0  0.07157  0.20361  0.41430  1.0000
  C   C273      1.0  0.02744  0.26723  0.56993  1.0000
  C   C274      1.0  0.05321  0.22609  0.48413  1.0000
  C   C275      1.0  0.26121  0.04266  0.48161  1.0000
  H   H332      1.0  0.00758  0.21414  0.45701  1.0000
  Fe  Fe45      1.0  0.13796  0.01872  0.52138  1.0000
  C   C276      1.0  0.17703  0.04230  0.49719  1.0000
  S   S83       1.0  0.07179  0.18614  0.50370  1.0000
  Fe  Fe46      1.0  0.04335  0.10642  0.50233  1.0000
  S   S84       1.0  0.06281  0.09931  0.49832  1.0000
  H   H333      1.0  0.41095  0.00576  0.43224  1.0000
  Fe  Fe47      1.0  0.03841  0.08955  0.49122  1.0000
  S   S85       1.0  0.05754  0.08092  0.48585  1.0000
  S   S86       1.0  0.02390  0.08601  0.48550  1.0000
  Fe  Fe48      1.0  0.05856  0.08144  0.50381  1.0000
  S   S87       1.0  0.06951  0.06690  0.51516  1.0000
  Fe  Fe49      1.0  0.06048  0.09924  0.48076  1.0000
  S   S88       1.0  0.07429  0.10477  0.46512  1.0000
  S   S89       1.0  0.03907  0.08867  0.50972  1.0000
  S   S90       1.0  0.04137  0.10781  0.48425  1.0000
  Fe  Fe50      1.0  0.04069  0.19078  0.43505  1.0000
  S   S91       1.0  0.02463  0.19216  0.44953  1.0000
  S   S92       1.0  0.04088  0.20308  0.41758  1.0000
  Fe  Fe51      1.0  0.05482  0.17057  0.44965  1.0000
  S   S93       1.0  0.04010  0.17003  0.46567  1.0000
  S   S94       1.0  0.07290  0.15911  0.44916  1.0000
  Fe  Fe52      1.0  0.02891  0.17246  0.45302  1.0000
  S   S95       1.0  0.01410  0.16324  0.45796  1.0000
  Fe  Fe53      1.0  0.03718  0.18965  0.46080  1.0000
  S   S96       1.0  0.03266  0.20022  0.47445  1.0000
  S   S97       1.0  0.04389  0.17125  0.43732  1.0000
  S   S98       1.0  0.05295  0.19003  0.44602  1.0000
  S   S99       1.0  0.24022  0.02224  0.52910  1.0000
  C   C277      1.0  0.03897  0.28634  0.48484  1.0000
  Fe  Fe54      1.0  0.02121  0.34314  0.46051  1.0000
  S   S100      1.0  0.04000  0.33324  0.45858  1.0000
  C   C278      1.0  0.05518  0.12116  0.52978  1.0000
  Fe  Fe55      1.0  0.05581  0.28042  0.43329  1.0000
  S   S101      1.0  0.05694  0.27285  0.45209  1.0000
  S   S102      1.0  0.05605  0.29906  0.42358  1.0000
  Fe  Fe56      1.0  0.04976  0.25889  0.43052  1.0000
  S   S103      1.0  0.04999  0.24931  0.44912  1.0000
  S   S104      1.0  0.04575  0.25378  0.41602  1.0000
  Fe  Fe57      1.0  0.04077  0.26679  0.45365  1.0000
  S   S105      1.0  0.02632  0.27008  0.46920  1.0000
  Fe  Fe58      1.0  0.06616  0.25598  0.44616  1.0000
  S   S106      1.0  0.08104  0.24269  0.45300  1.0000
  S   S107      1.0  0.03878  0.27568  0.43541  1.0000
  S   S108      1.0  0.06684  0.26416  0.42702  1.0000
  C   C279      1.0  0.01510  0.26323  0.47054  1.0000
  C   C280      1.0  0.01669  0.25475  0.46413  1.0000
  C   C281      1.0  0.36970  0.99795  0.48110  1.0000
  H   H334      1.0  0.00910  0.38416  0.53997  1.0000
  H   H335      1.0  0.02488  0.25254  0.45795  1.0000
  H   H336      1.0  0.02819  0.38630  0.41341  1.0000
  C   C282      1.0  0.25818  0.05265  0.54706  1.0000
  H   H337      1.0  0.16664  0.04035  0.51519  1.0000
  H   H338      1.0  0.03130  0.22516  0.58230  1.0000
  H   H339      1.0  0.19958  0.04521  0.48551  1.0000
  H   H340      1.0  0.01562  0.15130  0.48222  1.0000
  H   H341      1.0  0.02430  0.35374  0.58926  1.0000
  C   C283      1.0  0.04454  0.32398  0.44863  1.0000
  C   C284      1.0  0.03936  0.32657  0.43904  1.0000
  C   C285      1.0  0.04332  0.31914  0.43104  1.0000
  C   C286      1.0  0.05200  0.30881  0.43300  1.0000
  C   C287      1.0  0.05697  0.30611  0.44274  1.0000
  C   C288      1.0  0.05346  0.31385  0.45038  1.0000
  H   H342      1.0  0.03246  0.33436  0.43767  1.0000
  H   H343      1.0  0.03944  0.32117  0.42352  1.0000
  H   H344      1.0  0.06372  0.29818  0.44421  1.0000
  H   H345      1.0  0.05762  0.31191  0.45767  1.0000
  C   C289      1.0  0.03753  0.38578  0.42983  1.0000
  H   H346      1.0  0.18423  0.04109  0.51742  1.0000
  C   C290      1.0  0.08034  0.24033  0.49137  1.0000
  C   C291      1.0  0.07065  0.24712  0.48666  1.0000
  C   C292      1.0  0.07075  0.24788  0.47487  1.0000
  C   C293      1.0  0.08049  0.24178  0.46783  1.0000
  C   C294      1.0  0.09001  0.23477  0.47266  1.0000
  C   C295      1.0  0.08996  0.23409  0.48437  1.0000
  C   C296      1.0  0.12130  0.05600  0.50591  1.0000
  H   H347      1.0  0.06335  0.25325  0.47121  1.0000
  H   H348      1.0  0.09756  0.23005  0.46727  1.0000
  H   H349      1.0  0.09749  0.22888  0.48794  1.0000
  H   H350      1.0  0.09650  0.21650  0.42823  1.0000
  H   H351      1.0  0.06553  0.23374  0.42686  1.0000
  C   C297      1.0  0.99865  0.28855  0.53212  1.0000
  H   H352      1.0  0.00875  0.36698  0.57065  1.0000
  C   C298      1.0  0.04243  0.21695  0.41764  1.0000
  C   C299      1.0  0.04436  0.22498  0.40694  1.0000
  C   C300      1.0  0.04548  0.23618  0.40664  1.0000
  C   C301      1.0  0.04478  0.23942  0.41703  1.0000
  C   C302      1.0  0.04290  0.23141  0.42781  1.0000
  C   C303      1.0  0.04171  0.22014  0.42811  1.0000
  H   H353      1.0  0.04489  0.22255  0.39886  1.0000
  H   H354      1.0  0.04685  0.24239  0.39831  1.0000
  H   H355      1.0  0.04209  0.23400  0.43587  1.0000
  H   H356      1.0  0.04002  0.21402  0.43643  1.0000
  C   C304      1.0  0.07356  0.11993  0.46100  1.0000
  C   C305      1.0  0.08395  0.12384  0.45560  1.0000
  C   C306      1.0  0.08366  0.13589  0.45210  1.0000
  C   C307      1.0  0.07294  0.14409  0.45366  1.0000
  C   C308      1.0  0.06248  0.14021  0.45895  1.0000
  C   C309      1.0  0.06281  0.12811  0.46282  1.0000
  H   H357      1.0  0.09225  0.11756  0.45410  1.0000
  H   H358      1.0  0.09174  0.13887  0.44797  1.0000
  H   H359      1.0  0.05417  0.14652  0.46000  1.0000
  H   H360      1.0  0.05475  0.12512  0.46687  1.0000
  N   N17       1.0  0.00543  0.13799  0.48889  1.0000
  C   C310      1.0  0.08980  0.21700  0.43659  1.0000
  C   C311      1.0  0.28216  0.02902  0.40727  1.0000
  H   H361      1.0  0.07415  0.05822  0.49378  1.0000
  C   C312      1.0  0.00787  0.12499  0.49210  1.0000
  H   H362      1.0  0.05586  0.31295  0.52647  1.0000
  C   C313      1.0  0.06130  0.19076  0.49501  1.0000
  C   C314      1.0  0.04943  0.19402  0.50033  1.0000
  C   C315      1.0  0.04078  0.19683  0.49393  1.0000
  C   C316      1.0  0.04388  0.19643  0.48210  1.0000
  C   C317      1.0  0.05577  0.19322  0.47660  1.0000
  C   C318      1.0  0.06452  0.19049  0.48305  1.0000
  H   H363      1.0  0.04677  0.19440  0.50942  1.0000
  H   H364      1.0  0.03163  0.19907  0.49829  1.0000
  H   H365      1.0  0.05821  0.19292  0.46741  1.0000
  H   H366      1.0  0.07370  0.18792  0.47887  1.0000
  C   C319      1.0  0.24963  0.01930  0.53860  1.0000
  N   N18       1.0  0.00258  0.11263  0.46072  1.0000
  Fe  Fe59      1.0  0.31743  0.00647  0.45916  1.0000
  S   S109      1.0  0.20627  0.99341  0.52132  1.0000
  H   H367      1.0  0.04442  0.24596  0.49251  1.0000
  C   C320      1.0  0.05501  0.20260  0.56994  1.0000
  H   H368      1.0  0.08931  0.01909  0.50024  1.0000
  S   S110      1.0  0.24813  0.00945  0.48146  1.0000
  C   C321      1.0  0.30153  0.03346  0.40369  1.0000
  H   H369      1.0  0.02299  0.37926  0.39930  1.0000
  C   C322      1.0  0.36527  0.00129  0.50435  1.0000
  C   C323      1.0  0.05567  0.29939  0.55442  1.0000
  H   H370      1.0  0.43030  0.99749  0.57582  1.0000
  N   N19       1.0  0.27483  0.02027  0.41030  1.0000
  C   C324      1.0  0.09096  0.00994  0.49904  1.0000
  H   H371      1.0  0.08062  0.23210  0.41872  1.0000
  C   C325      1.0  0.00106  0.08408  0.49210  1.0000
  C   C326      1.0  0.36209  0.99643  0.43210  1.0000
  H   H372      1.0  0.27089  0.02095  0.58182  1.0000
  C   C327      1.0  0.01048  0.08531  0.49578  1.0000
  C   C328      1.0  0.00888  0.08635  0.50734  1.0000
  H   H373      1.0  0.07137  0.20957  0.45232  1.0000
  H   H374      1.0  0.44714  0.99776  0.42209  1.0000
  H   H375      1.0  0.26365  0.05210  0.58579  1.0000
  H   H376      1.0  0.01612  0.08709  0.51032  1.0000
  H   H377      1.0  0.03936  0.34378  0.41334  1.0000
  C   C329      1.0  0.19037  0.04234  0.50866  1.0000
  H   H378      1.0  0.02450  0.23883  0.58626  1.0000
  C   C330      1.0  0.26815  0.02040  0.54149  1.0000
  H   H379      1.0  0.01439  0.16360  0.56481  1.0000
  C   C331      1.0  0.01220  0.30885  0.49632  1.0000
  C   C332      1.0  0.09017  0.07808  0.48406  1.0000
  H   H380      1.0  0.03535  0.31373  0.52519  1.0000
  H   H381      1.0  0.02520  0.29874  0.59106  1.0000
  C   C333      1.0  0.07556  0.19183  0.41930  1.0000
  H   H382      1.0  0.00224  0.10128  0.55474  1.0000
  C   C334      1.0  0.27819  0.01048  0.42012  1.0000
  S   S111      1.0  0.14923  0.00072  0.52073  1.0000
  H   H383      1.0  0.02396  0.26293  0.56540  1.0000
  Fe  Fe60      1.0  0.30782  0.00181  0.44094  1.0000
  C   C335      1.0  0.05326  0.21468  0.56917  1.0000
  C   C336      1.0  0.26493  0.03194  0.46621  1.0000
  C   C337      1.0  0.05400  0.36928  0.42909  1.0000
  H   H384      1.0  0.06834  0.29275  0.54001  1.0000
  H   H385      1.0  0.28427  0.00328  0.51850  1.0000
  S   S112      1.0  0.00420  0.38611  0.44953  1.0000
  H   H386      1.0  0.23878  0.01012  0.55358  1.0000
  C   C338      1.0  0.19119  0.00604  0.48013  1.0000
  H   H387      1.0  0.12620  0.04895  0.51160  1.0000
  H   H388      1.0  0.02452  0.10721  0.46568  1.0000
  S   S113      1.0  0.36314  0.00734  0.57331  1.0000
  H   H389      1.0  0.08454  0.07635  0.49304  1.0000
  N   N20       1.0  0.08075  0.20565  0.52340  1.0000
  S   S114      1.0  0.20951  0.02041  0.52762  1.0000
  S   S115      1.0  0.35086  0.99586  0.42595  1.0000
  C   C339      1.0  0.27159  0.05934  0.42891  1.0000
  H   H390      1.0  0.25695  0.06143  0.46460  1.0000
  C   C340      1.0  0.99691  0.25213  0.47356  1.0000
  H   H391      1.0  0.09866  0.00913  0.49147  1.0000
  H   H392      1.0  0.36942  0.01386  0.44526  1.0000
  C   C341      1.0  0.03455  0.23101  0.47892  1.0000
  S   S116      1.0  0.01287  0.32484  0.55672  1.0000
  H   H393      1.0  0.02054  0.24955  0.41551  1.0000
  C   C342      1.0  0.06882  0.21124  0.52117  1.0000
  S   S117      1.0  0.01533  0.35727  0.47076  1.0000
  C   C343      1.0  0.01997  0.27284  0.57880  1.0000
  C   C344      1.0  0.11496  0.06630  0.50966  1.0000
  H   H394      1.0  0.27874  0.01380  0.42755  1.0000
  S   S118      1.0  0.01342  0.35622  0.53621  1.0000
  C   C345      1.0  0.00608  0.10919  0.55179  1.0000
  H   H395      1.0  0.02103  0.22136  0.49654  1.0000
  H   H396      1.0  0.39894  0.00968  0.57413  1.0000
  H   H397      1.0  0.19649  0.01918  0.50948  1.0000
  C   C346      1.0  0.08891  0.20461  0.51186  1.0000
  C   C347      1.0  0.26861  0.04320  0.56686  1.0000
  H   H398      1.0  0.26228  0.02801  0.52541  1.0000
  C   C348      1.0  0.99786  0.08629  0.51512  1.0000
  C   C349      1.0  0.19305  0.02454  0.46642  1.0000
  H   H399      1.0  0.10329  0.08281  0.50620  1.0000
  N   N21       1.0  0.06183  0.15212  0.49034  1.0000
  C   C350      1.0  0.05763  0.14276  0.48813  1.0000
  C   C351      1.0  0.05134  0.16079  0.49486  1.0000
  C   C352      1.0  0.06823  0.15799  0.47889  1.0000
  C   C353      1.0  0.06958  0.14770  0.49882  1.0000
  C   C354      1.0  0.07456  0.15557  0.50155  1.0000
  C   C355      1.0  0.07213  0.13574  0.50483  1.0000
  C   C356      1.0  0.08141  0.15181  0.50994  1.0000
  C   C357      1.0  0.07907  0.13205  0.51317  1.0000
  C   C358      1.0  0.08359  0.14008  0.51581  1.0000
  H   H400      1.0  0.05223  0.13832  0.49627  1.0000
  H   H401      1.0  0.05194  0.14638  0.48164  1.0000
  H   H402      1.0  0.06510  0.13604  0.48446  1.0000
  H   H403      1.0  0.04658  0.15685  0.50370  1.0000
  H   H404      1.0  0.04503  0.16405  0.48899  1.0000
  H   H405      1.0  0.05366  0.16872  0.49562  1.0000
  H   H406      1.0  0.07628  0.15183  0.47520  1.0000
  H   H407      1.0  0.06268  0.16133  0.47230  1.0000
  H   H408      1.0  0.07093  0.16576  0.47947  1.0000
  H   H409      1.0  0.07291  0.16480  0.49743  1.0000
  H   H410      1.0  0.06863  0.12910  0.50351  1.0000
  H   H411      1.0  0.08479  0.15812  0.51208  1.0000
  H   H412      1.0  0.08055  0.12299  0.51800  1.0000
  H   H413      1.0  0.08855  0.13725  0.52263  1.0000
  C   C359      1.0  0.21609  0.00305  0.49871  1.0000
  C   C360      1.0  0.00702  0.19669  0.58584  1.0000
  C   C361      1.0  0.35828  0.99950  0.48794  1.0000
  H   H414      1.0  0.99979  0.30654  0.46546  1.0000
  H   H415      1.0  0.28713  0.01560  0.50683  1.0000
  C   C362      1.0  0.04021  0.35691  0.42170  1.0000
  C   C363      1.0  0.01326  0.29581  0.43416  1.0000
  H   H416      1.0  0.03370  0.39221  0.57835  1.0000
  H   H417      1.0  0.01102  0.18363  0.55318  1.0000
  C   C364      1.0  0.00031  0.28663  0.56185  1.0000
  H   H418      1.0  0.00961  0.25530  0.49961  1.0000
  C   C365      1.0  0.00122  0.38379  0.42874  1.0000
  H   H419      1.0  0.01315  0.32225  0.44843  1.0000
  C   C366      1.0  0.99811  0.11110  0.47359  1.0000
  C   C367      1.0  0.03963  0.24449  0.48670  1.0000
  H   H420      1.0  0.04494  0.35032  0.42780  1.0000
  C   C368      1.0  0.02524  0.38683  0.56794  1.0000
  H   H421      1.0  0.06019  0.21958  0.44521  1.0000
  S   S119      1.0  0.31715  0.03826  0.55601  1.0000
  H   H422      1.0  0.01342  0.17814  0.47272  1.0000
  H   H423      1.0  0.31534  0.99430  0.51938  1.0000
  H   H424      1.0  0.05869  0.22736  0.48939  1.0000
  H   H425      1.0  0.10192  0.09814  0.48856  1.0000
  H   H426      1.0  0.11507  0.06722  0.51825  1.0000
  H   H427      1.0  0.32303  0.00209  0.49884  1.0000
  H   H428      1.0  0.00478  0.24831  0.58568  1.0000
  C   C369      1.0  0.01130  0.12009  0.45684  1.0000
  H   H429      1.0  0.07462  0.18499  0.41573  1.0000
  H   H430      1.0  0.07594  0.23769  0.43184  1.0000
  S   S120      1.0  0.29286  0.03501  0.54228  1.0000
  H   H431      1.0  0.35037  0.01418  0.52777  1.0000
  C   C370      1.0  0.00461  0.18154  0.56120  1.0000
  C   C371      1.0  0.33019  0.02961  0.56027  1.0000
  C   C372      1.0  0.23839  0.99845  0.50339  1.0000
  C   C373      1.0  0.08112  0.05356  0.49836  1.0000
  S   S121      1.0  0.25051  0.99698  0.43120  1.0000
  C   C374      1.0  0.35174  0.01195  0.51911  1.0000
  C   C375      1.0  0.04208  0.14039  0.52790  1.0000
  H   H432      1.0  0.26014  0.02999  0.42114  1.0000
  C   C376      1.0  0.02648  0.21585  0.52344  1.0000
  C   C377      1.0  0.07484  0.23109  0.42769  1.0000
  H   H433      1.0  0.06105  0.32630  0.52243  1.0000
  C   C378      1.0  0.25506  0.01020  0.55740  1.0000
  S   S122      1.0  0.31820  0.00019  0.47804  1.0000
  C   C379      1.0  0.26728  0.04628  0.48793  1.0000
  H   H434      1.0  0.29607  0.00125  0.50593  1.0000
  C   C380      1.0  0.26283  0.04657  0.49982  1.0000
  H   H435      1.0  0.01480  0.09562  0.46315  1.0000
  C   C381      1.0  0.25217  0.04343  0.50570  1.0000
  C   C382      1.0  0.05154  0.13244  0.53217  1.0000
  S   S123      1.0  0.27616  0.01014  0.56158  1.0000
  C   C383      1.0  0.04072  0.22594  0.50910  1.0000
  C   C384      1.0  0.04189  0.33304  0.48824  1.0000
  Fe  Fe61      1.0  0.00441  0.36687  0.45734  1.0000
  C   C385      1.0  0.14840  0.04213  0.53999  1.0000
  H   H436      1.0  0.28383  0.03797  0.46853  1.0000
  S   S124      1.0  0.08080  0.23940  0.50593  1.0000
  C   C386      1.0  0.08040  0.18887  0.42911  1.0000
  H   H437      1.0  0.27543  0.04910  0.48389  1.0000
  H   H438      1.0  0.03185  0.37888  0.54684  1.0000
  H   H439      1.0  0.26767  0.04928  0.50449  1.0000
  H   H440      1.0  0.31505  0.01736  0.51053  1.0000
  H   H441      1.0  0.24866  0.04374  0.51490  1.0000
  C   C387      1.0  0.99770  0.20558  0.58961  1.0000
  H   H442      1.0  0.16016  0.01574  0.53214  1.0000
  H   H443      1.0  0.08959  0.05134  0.52338  1.0000
  C   C388      1.0  0.99886  0.17824  0.53194  1.0000
  H   H444      1.0  0.26001  0.05386  0.45300  1.0000
  H   H445      1.0  0.11479  0.08873  0.47140  1.0000
  H   H446      1.0  0.11369  0.06151  0.47995  1.0000
  C   C389      1.0  0.00689  0.22683  0.42875  1.0000
  C   C390      1.0  0.03059  0.12282  0.45680  1.0000
  H   H447      1.0  0.01830  0.10848  0.52319  1.0000
  C   C391      1.0  0.03933  0.26738  0.56665  1.0000
  H   H448      1.0  0.06880  0.22140  0.41491  1.0000
  C   C392      1.0  0.31706  0.01014  0.49573  1.0000
  C   C393      1.0  0.26952  0.02866  0.58572  1.0000
  C   C394      1.0  0.15478  0.05309  0.49148  1.0000
  Fe  Fe62      1.0  0.31706  0.00738  0.53678  1.0000
  H   H449      1.0  0.27721  0.00583  0.48529  1.0000
  Fe  Fe63      1.0  0.06189  0.17859  0.52151  1.0000
  H   H450      1.0  0.00230  0.08298  0.48327  1.0000
  H   H451      1.0  0.02381  0.23100  0.56397  1.0000
  H   H452      1.0  0.03512  0.22170  0.47896  1.0000
  H   H453      1.0  0.39530  0.01239  0.42272  1.0000
  H   H454      1.0  0.10620  0.03671  0.51474  1.0000
  H   H455      1.0  0.32941  0.04053  0.57180  1.0000
  C   C395      1.0  0.03100  0.37696  0.41374  1.0000
  C   C396      1.0  0.26204  0.02538  0.41387  1.0000
  H   H456      1.0  0.28059  0.05875  0.40089  1.0000
  H   H457      1.0  0.00394  0.14038  0.47096  1.0000
  S   S125      1.0  0.11174  0.02921  0.49259  1.0000
  H   H458      1.0  0.01478  0.10661  0.55424  1.0000
  H   H459      1.0  0.99833  0.27631  0.43348  1.0000
  H   H460      1.0  0.10136  0.09310  0.46620  1.0000
  C   C397      1.0  0.03578  0.30730  0.48015  1.0000
  H   H461      1.0  0.25710  0.03079  0.57126  1.0000
  H   H462      1.0  0.25584  0.03089  0.46754  1.0000
  H   H463      1.0  0.04655  0.29498  0.49808  1.0000
  H   H464      1.0  0.06218  0.30125  0.55771  1.0000
  H   H465      1.0  0.25675  0.01853  0.41699  1.0000
  C   C398      1.0  0.02788  0.37301  0.40553  1.0000
  S   S126      1.0  0.14200  0.02576  0.50191  1.0000
  C   C399      1.0  0.00465  0.17953  0.47143  1.0000
  H   H466      1.0  0.26907  0.03150  0.45689  1.0000
  Fe  Fe64      1.0  0.24213  0.01633  0.46454  1.0000
  H   H467      1.0  0.03575  0.33783  0.48264  1.0000
  H   H468      1.0  0.03772  0.27822  0.49162  1.0000
  H   H469      1.0  0.04548  0.30632  0.47730  1.0000
  H   H470      1.0  0.03240  0.30832  0.47224  1.0000
  H   H471      1.0  0.03230  0.31575  0.48308  1.0000
  S   S127      1.0  0.03946  0.30998  0.57119  1.0000
  S   S128      1.0  0.39131  0.99762  0.44817  1.0000
  C   C400      1.0  0.02734  0.29964  0.44912  1.0000
  H   H472      1.0  0.03179  0.30002  0.43973  1.0000
  C   C401      1.0  0.19823  0.01344  0.47224  1.0000
  H   H473      1.0  0.08476  0.99821  0.52827  1.0000
  C   C402      1.0  0.16958  0.02527  0.53755  1.0000
  C   C403      1.0  0.00496  0.24191  0.53299  1.0000
  H   H474      1.0  0.37141  0.99684  0.47217  1.0000
  H   H475      1.0  0.10259  0.01204  0.51316  1.0000
  C   C404      1.0  0.00619  0.35517  0.50595  1.0000
  H   H476      1.0  0.14022  0.04867  0.54101  1.0000
  C   C405      1.0  0.06932  0.21825  0.44627  1.0000
  H   H477      1.0  0.00016  0.39411  0.54900  1.0000
  H   H478      1.0  0.00087  0.20622  0.44396  1.0000
  H   H479      1.0  0.01301  0.30918  0.46667  1.0000
  H   H480      1.0  0.25434  0.05611  0.53942  1.0000
  C   C406      1.0  0.08313  0.00357  0.51960  1.0000
  C   C407      1.0  0.36113  0.00601  0.43683  1.0000
  C   C408      1.0  0.99792  0.28188  0.44892  1.0000
  C   C409      1.0  0.25481  0.04311  0.55552  1.0000
  C   C410      1.0  0.00443  0.26622  0.47831  1.0000
  S   S129      1.0  0.39476  0.99409  0.55958  1.0000
  H   H481      1.0  0.03903  0.11934  0.45927  1.0000
  S   S130      1.0  0.19462  0.00485  0.55075  1.0000
  H   H482      1.0  0.99875  0.22498  0.48936  1.0000
  H   H483      1.0  0.01574  0.31591  0.49670  1.0000
  H   H484      1.0  0.20764  0.01056  0.47076  1.0000
  C   C411      1.0  0.07708  0.21433  0.54098  1.0000
  H   H485      1.0  0.99943  0.19700  0.54048  1.0000
  S   S131      1.0  0.13633  0.03047  0.53331  1.0000
  C   C412      1.0  0.00277  0.39889  0.41069  1.0000
  H   H486      1.0  0.03234  0.29325  0.54215  1.0000
  Fe  Fe65      1.0  0.33300  0.00457  0.43514  1.0000
  C   C413      1.0  0.37017  0.00639  0.44168  1.0000
  H   H487      1.0  0.00945  0.29976  0.58062  1.0000
  H   H488      1.0  0.03109  0.30511  0.45240  1.0000
  H   H489      1.0  0.35354  0.01324  0.43655  1.0000
  Fe  Fe66      1.0  0.03902  0.25909  0.51887  1.0000
  S   S132      1.0  0.23068  0.00834  0.45898  1.0000
  C   C414      1.0  0.03678  0.29653  0.49993  1.0000
  C   C415      1.0  0.01022  0.35829  0.51418  1.0000
  C   C416      1.0  0.09585  0.22539  0.53096  1.0000
  C   C417      1.0  0.02115  0.21620  0.51459  1.0000
  H   H490      1.0  0.04147  0.39062  0.42103  1.0000
  C   C418      1.0  0.26700  0.01200  0.50638  1.0000
  C   C419      1.0  0.99847  0.16662  0.57799  1.0000
  C   C420      1.0  0.39024  0.01365  0.57924  1.0000
  S   S133      1.0  0.30534  0.04458  0.43137  1.0000
  H   H491      1.0  0.06748  0.20585  0.40686  1.0000
  C   C421      1.0  0.00189  0.20777  0.55516  1.0000
  S   S134      1.0  0.31807  0.01289  0.42598  1.0000
  N   N22       1.0  0.04357  0.32842  0.52006  1.0000
  C   C422      1.0  0.03338  0.32299  0.52617  1.0000
  C   C423      1.0  0.05317  0.32246  0.52643  1.0000
  C   C424      1.0  0.04029  0.34092  0.52095  1.0000
  C   C425      1.0  0.04686  0.32757  0.50758  1.0000
  C   C426      1.0  0.05775  0.32065  0.50256  1.0000
  C   C427      1.0  0.06060  0.32016  0.49070  1.0000
  H   H492      1.0  0.03105  0.32280  0.53574  1.0000
  H   H493      1.0  0.02534  0.32786  0.52278  1.0000
  H   H494      1.0  0.05039  0.32309  0.53584  1.0000
  H   H495      1.0  0.02514  0.23569  0.48065  1.0000
  H   H496      1.0  0.03249  0.34595  0.51733  1.0000
  H   H497      1.0  0.03794  0.34180  0.53027  1.0000
  H   H498      1.0  0.04762  0.34541  0.51615  1.0000
  H   H499      1.0  0.06423  0.31547  0.50759  1.0000
  H   H500      1.0  0.06898  0.31489  0.48704  1.0000
  C   C428      1.0  0.14904  0.03203  0.53628  1.0000
  N   N23       1.0  0.03256  0.29712  0.48942  1.0000
  H   H501      1.0  0.00479  0.36786  0.55722  1.0000
  C   C429      1.0  0.27178  0.05297  0.55809  1.0000
  C   C430      1.0  0.00322  0.39109  0.43469  1.0000
  C   C431      1.0  0.00907  0.13177  0.45003  1.0000
  H   H502      1.0  0.26034  0.01100  0.50224  1.0000
  C   C432      1.0  0.01741  0.13866  0.44676  1.0000
  H   H503      1.0  0.29201  0.00366  0.48673  1.0000
  C   C433      1.0  0.02814  0.13420  0.45010  1.0000
  C   C434      1.0  0.00814  0.10086  0.45791  1.0000
  H   H504      1.0  0.99771  0.28416  0.49680  1.0000
  C   C435      1.0  0.00110  0.24126  0.44082  1.0000
  H   H505      1.0  0.99636  0.24446  0.44869  1.0000
  Fe  Fe67      1.0  0.20996  0.00196  0.55880  1.0000
  H   H506      1.0  0.25995  0.03163  0.58934  1.0000
  H   H507      1.0  0.20749  0.00486  0.49686  1.0000
  C   C436      1.0  0.00843  0.25141  0.50887  1.0000
  H   H508      1.0  0.00904  0.24221  0.46113  1.0000
  H   H509      1.0  0.01582  0.40573  0.58645  1.0000
  H   H510      1.0  0.00050  0.11576  0.55705  1.0000
  H   H511      1.0  0.01550  0.14762  0.44169  1.0000
  H   H512      1.0  0.28234  0.01757  0.48727  1.0000
  H   H513      1.0  0.03454  0.13963  0.44753  1.0000
  H   H514      1.0  0.08953  0.10074  0.48219  1.0000
  N   N24       1.0  0.27441  0.03832  0.57695  1.0000
  C   C437      1.0  0.12095  0.05459  0.49504  1.0000
  C   C438      1.0  0.05276  0.32645  0.48353  1.0000
  H   H515      1.0  0.37441  0.01485  0.51206  1.0000
  S   S135      1.0  0.22364  0.99696  0.54318  1.0000
  H   H516      1.0  0.08442  0.08421  0.47825  1.0000
  C   C439      1.0  0.10819  0.07522  0.50260  1.0000
  Fe  Fe68      1.0  0.02262  0.32358  0.57025  1.0000
  H   H517      1.0  0.12552  0.04642  0.49227  1.0000
  H   H518      1.0  0.00279  0.20896  0.56356  1.0000
  S   S136      1.0  0.25531  0.01728  0.44751  1.0000
  S   S137      1.0  0.17054  0.00007  0.49218  1.0000
  C   C440      1.0  0.01686  0.14159  0.48375  1.0000
  H   H519      1.0  0.09325  0.06971  0.48096  1.0000
  H   H520      1.0  0.16435  0.05553  0.47348  1.0000
  H   H521      1.0  0.06843  0.22043  0.51602  1.0000
  C   C441      1.0  0.03652  0.13728  0.52097  1.0000
  H   H522      1.0  0.22363  0.01225  0.48163  1.0000
  H   H523      1.0  0.01697  0.31729  0.43509  1.0000
  C   C442      1.0  0.10761  0.07402  0.49147  1.0000
  H   H524      1.0  0.04864  0.28568  0.48213  1.0000
  N   N25       1.0  0.10003  0.08294  0.48404  1.0000
  N   N26       1.0  0.04060  0.23185  0.48759  1.0000
  Fe  Fe69      1.0  0.22138  0.02709  0.45319  1.0000
  H   H525      1.0  0.35156  0.00484  0.55629  1.0000
  C   C443      1.0  0.33421  0.03277  0.56839  1.0000
  C   C444      1.0  0.07722  0.20979  0.42913  1.0000
  C   C445      1.0  0.01510  0.16378  0.53887  1.0000
  H   H526      1.0  0.33346  0.01704  0.54956  1.0000
  H   H527      1.0  0.10948  0.07837  0.46731  1.0000
  C   C446      1.0  0.99762  0.29805  0.56388  1.0000
  C   C447      1.0  0.03890  0.33352  0.50011  1.0000
  N   N27       1.0  0.01293  0.23129  0.58141  1.0000
  H   H528      1.0  0.06198  0.21156  0.52943  1.0000
  C   C448      1.0  0.11414  0.06338  0.48797  1.0000
  C   C449      1.0  0.09492  0.09413  0.48816  1.0000
  H   H529      1.0  0.05436  0.21646  0.48519  1.0000
  C   C450      1.0  0.10676  0.08588  0.47174  1.0000
  H   H530      1.0  0.41908  0.01544  0.42125  1.0000
  H   H531      1.0  0.26812  0.04506  0.40530  1.0000
  H   H532      1.0  0.06624  0.20638  0.51611  1.0000
  C   C451      1.0  0.17596  0.04695  0.48535  1.0000
  C   C452      1.0  0.27672  0.01533  0.39990  1.0000
  H   H533      1.0  0.03413  0.28922  0.50725  1.0000
  H   H534      1.0  0.04324  0.24897  0.47760  1.0000
  H   H535      1.0  0.08932  0.18933  0.53313  1.0000
  S   S138      1.0  0.04612  0.23790  0.55941  1.0000
  H   H536      1.0  0.03852  0.23510  0.46982  1.0000
  H   H537      1.0  0.09072  0.22426  0.43997  1.0000
  H   H538      1.0  0.02514  0.10380  0.53529  1.0000
  H   H539      1.0  0.00032  0.28926  0.58680  1.0000
  H   H540      1.0  0.26711  0.99713  0.53654  1.0000
  H   H541      1.0  0.05839  0.37279  0.41990  1.0000
  C   C453      1.0  0.34434  0.02585  0.57224  1.0000
  C   C454      1.0  0.00181  0.29112  0.49641  1.0000
  H   H542      1.0  0.26939  0.06489  0.54164  1.0000
  C   C455      1.0  0.37687  0.99920  0.49730  1.0000
  C   C456      1.0  0.28712  0.03357  0.57265  1.0000
  H   H543      1.0  0.07907  0.18789  0.52575  1.0000
  H   H544      1.0  0.08102  0.01293  0.52031  1.0000
  C   C457      1.0  0.16496  0.05223  0.48259  1.0000
  H   H545      1.0  0.02924  0.14355  0.51767  1.0000
  H   H546      1.0  0.01223  0.12887  0.52622  1.0000
  H   H547      1.0  0.26743  0.02140  0.50367  1.0000
  C   C458      1.0  0.08078  0.05591  0.50911  1.0000
  C   C459      1.0  0.00785  0.35265  0.52608  1.0000
  C   C460      1.0  0.24698  0.01298  0.55020  1.0000
  C   C461      1.0  0.02561  0.39335  0.57562  1.0000
  H   H548      1.0  0.23791  0.03703  0.50454  1.0000
  H   H549      1.0  0.09089  0.04368  0.48503  1.0000
  H   H550      1.0  0.08449  0.19488  0.44195  1.0000
  C   C462      1.0  0.04971  0.11806  0.52270  1.0000
  H   H551      1.0  0.00352  0.23844  0.54235  1.0000
  C   C463      1.0  0.00846  0.24800  0.43237  1.0000
  C   C464      1.0  0.03637  0.27901  0.58093  1.0000
  C   C465      1.0  0.00931  0.38908  0.54640  1.0000
  H   H552      1.0  0.15547  0.99673  0.56788  1.0000
  H   H553      1.0  0.00989  0.20696  0.49592  1.0000
  S   S139      1.0  0.21089  0.02092  0.55403  1.0000
  H   H554      1.0  0.06939  0.22506  0.45077  1.0000
  C   C466      1.0  0.09059  0.04528  0.49344  1.0000
  C   C467      1.0  0.01985  0.21034  0.57891  1.0000
  H   H555      1.0  0.99705  0.40791  0.58105  1.0000
  C   C468      1.0  0.03557  0.22639  0.49983  1.0000
  C   C469      1.0  0.00611  0.29366  0.58884  1.0000
  H   H556      1.0  0.35174  0.02023  0.51226  1.0000
  H   H557      1.0  0.01929  0.18649  0.49668  1.0000
  H   H558      1.0  0.08885  0.09282  0.49696  1.0000
  H   H559      1.0  0.02535  0.19220  0.57744  1.0000
  H   H560      1.0  0.01517  0.36508  0.51130  1.0000
  C   C470      1.0  0.99876  0.14262  0.49952  1.0000
  S   S140      1.0  0.32847  0.01821  0.44590  1.0000
  H   H561      1.0  0.03604  0.28613  0.47703  1.0000
  H   H562      1.0  0.19809  0.03131  0.48414  1.0000
  S   S141      1.0  0.30100  0.01489  0.45248  1.0000
  H   H563      1.0  0.03028  0.33862  0.50339  1.0000
  H   H564      1.0  0.05267  0.10940  0.52074  1.0000
  H   H565      1.0  0.28680  0.00453  0.41746  1.0000
  H   H566      1.0  0.08635  0.19924  0.50732  1.0000
  H   H567      1.0  0.28846  0.02639  0.56807  1.0000
  C   C471      1.0  0.05916  0.29450  0.54446  1.0000
  C   C472      1.0  0.07235  0.21250  0.41909  1.0000
  H   H568      1.0  0.03901  0.14893  0.53001  1.0000
  S   S142      1.0  0.03362  0.12277  0.50909  1.0000
  H   H569      1.0  0.05711  0.22973  0.47480  1.0000
  H   H570      1.0  0.03318  0.30477  0.50326  1.0000
  C   C473      1.0  0.04044  0.12618  0.51821  1.0000
  C   C474      1.0  0.00914  0.28875  0.42963  1.0000
  S   S143      1.0  0.18122  0.03845  0.54364  1.0000
  S   S144      1.0  0.05020  0.16758  0.52121  1.0000
  H   H571      1.0  0.07376  0.19342  0.53884  1.0000
  C   C475      1.0  0.19871  0.03616  0.49038  1.0000
  H   H572      1.0  0.00500  0.13179  0.54048  1.0000
  C   C476      1.0  0.26019  0.02306  0.53431  1.0000
  C   C477      1.0  0.08072  0.19358  0.53060  1.0000
  C   C478      1.0  0.15556  0.04878  0.50318  1.0000
  C   C479      1.0  0.08978  0.04960  0.51506  1.0000
  H   H573      1.0  0.09217  0.20886  0.44320  1.0000
  Fe  Fe70      1.0  0.12619  0.01935  0.50240  1.0000
  H   H574      1.0  0.03030  0.24916  0.48920  1.0000
  S   S145      1.0  0.12156  0.01349  0.52196  1.0000
  S   S146      1.0  0.29710  0.03855  0.50811  1.0000
  H   H575      1.0  0.01887  0.28141  0.49043  1.0000
  C   C480      1.0  0.17369  0.02094  0.47683  1.0000
  H   H576      1.0  0.06317  0.25190  0.49203  1.0000
  H   H577      1.0  0.04824  0.22970  0.50739  1.0000
  H   H578      1.0  0.05513  0.32617  0.47431  1.0000
  C   C481      1.0  0.42096  0.00556  0.40269  1.0000
  N   N28       1.0  0.07777  0.21893  0.43473  1.0000
  C   C482      1.0  0.00235  0.17286  0.46500  1.0000
  H   H579      1.0  0.27613  0.02360  0.53812  1.0000
  H   H580      1.0  0.02587  0.36961  0.44425  1.0000
  C   C483      1.0  0.22529  0.00711  0.49002  1.0000
  H   H581      1.0  0.10297  0.22994  0.52694  1.0000
  H   H582      1.0  0.29563  0.03899  0.48468  1.0000
  Fe  Fe71      1.0  0.31088  0.02921  0.54613  1.0000
  H   H583      1.0  0.06241  0.11491  0.53320  1.0000
  C   C484      1.0  0.01477  0.24434  0.42203  1.0000
  H   H584      1.0  0.99985  0.37514  0.43331  1.0000
  C   C485      1.0  0.28690  0.00614  0.50879  1.0000
  H   H585      1.0  0.02780  0.38897  0.43152  1.0000
  H   H586      1.0  0.08886  0.21338  0.50577  1.0000
  Fe  Fe72      1.0  0.30191  0.02926  0.52537  1.0000
  H   H587      1.0  0.00907  0.28302  0.55727  1.0000
  C   C486      1.0  0.00768  0.24896  0.46587  1.0000
  C   C487      1.0  0.05075  0.29251  0.53987  1.0000
  H   H588      1.0  0.06972  0.21026  0.54520  1.0000
  C   C488      1.0  0.15833  0.04394  0.54226  1.0000
  S   S147      1.0  0.32014  0.02542  0.52841  1.0000
  H   H589      1.0  0.28715  0.06549  0.42713  1.0000
  C   C489      1.0  0.35065  0.01579  0.56788  1.0000
  S   S148      1.0  0.01906  0.18570  0.52774  1.0000
  C   C490      1.0  0.33649  0.01953  0.55586  1.0000
  H   H590      1.0  0.14628  0.05707  0.48929  1.0000
  H   H591      1.0  0.02623  0.30160  0.55995  1.0000
  Fe  Fe73      1.0  0.01045  0.34425  0.55414  1.0000
  N   N29       1.0  0.09336  0.00107  0.50981  1.0000
  C   C491      1.0  0.02551  0.22148  0.50296  1.0000
  C   C492      1.0  0.08392  0.21267  0.52975  1.0000
  H   H592      1.0  0.09915  0.21778  0.51640  1.0000
  C   C493      1.0  0.17893  0.00979  0.48247  1.0000
  H   H593      1.0  0.15777  0.05186  0.54499  1.0000
  C   C494      1.0  0.03733  0.36900  0.42207  1.0000
  C   C495      1.0  0.01402  0.28965  0.49286  1.0000
  C   C496      1.0  0.03702  0.35306  0.41347  1.0000
  H   H594      1.0  0.00225  0.15331  0.52137  1.0000
  H   H595      1.0  0.38104  0.99515  0.58581  1.0000
  H   H596      1.0  0.18347  0.04647  0.47801  1.0000
  S   S149      1.0  0.04772  0.19038  0.53186  1.0000
  C   C497      1.0  0.15964  0.02355  0.53503  1.0000
  C   C498      1.0  0.03621  0.22074  0.52071  1.0000
  H   H597      1.0  0.01421  0.09660  0.53511  1.0000
  H   H598      1.0  0.16421  0.02384  0.47857  1.0000
  H   H599      1.0  0.01138  0.14703  0.54880  1.0000
  Fe  Fe74      1.0  0.03645  0.17841  0.53270  1.0000
  H   H600      1.0  0.04030  0.22045  0.52764  1.0000
  H   H601      1.0  0.01080  0.27249  0.58099  1.0000
  H   H602      1.0  0.00429  0.30313  0.56089  1.0000
  H   H603      1.0  0.20712  0.03157  0.49322  1.0000
  C   C499      1.0  0.01055  0.17511  0.53299  1.0000
  H   H604      1.0  0.00158  0.09538  0.45994  1.0000
  H   H605      1.0  0.00116  0.10611  0.52206  1.0000
  H   H606      1.0  0.00615  0.40816  0.43328  1.0000
  C   C500      1.0  0.99725  0.34091  0.52156  1.0000
  H   H607      1.0  0.24804  0.05167  0.46521  1.0000
  C   C501      1.0  0.01065  0.21955  0.58287  1.0000
  C   C502      1.0  0.34677  0.01265  0.55962  1.0000
  S   S150      1.0  0.00690  0.32415  0.58533  1.0000
  S   S151      1.0  0.06829  0.16638  0.53718  1.0000
  Fe  Fe75      1.0  0.06501  0.24955  0.51663  1.0000
  C   C503      1.0  0.09356  0.21828  0.52498  1.0000
  H   H608      1.0  0.05301  0.27353  0.56937  1.0000
  Fe  Fe76      1.0  0.15210  0.00728  0.50120  1.0000
  Fe  Fe77      1.0  0.31251  0.02543  0.43806  1.0000
  H   H609      1.0  0.11173  0.00108  0.50518  1.0000
  S   S152      1.0  0.05449  0.26692  0.50911  1.0000
  C   C504      1.0  0.00789  0.15569  0.54400  1.0000
  Fe  Fe78      1.0  0.05507  0.15637  0.53785  1.0000
  H   H610      1.0  0.02313  0.21166  0.53240  1.0000
  N   N30       1.0  0.01440  0.30361  0.45082  1.0000
  S   S153      1.0  0.06505  0.25500  0.53282  1.0000
  H   H611      1.0  0.01372  0.21214  0.51679  1.0000
  Fe  Fe79      1.0  0.19682  0.02335  0.54437  1.0000
  H   H612      1.0  0.24701  0.99653  0.50516  1.0000
  H   H613      1.0  0.19936  0.03897  0.51041  1.0000
  H   H614      1.0  0.08321  0.17966  0.43316  1.0000
  C   C505      1.0  0.27741  0.04488  0.46393  1.0000
  C   C506      1.0  0.21800  0.99696  0.50984  1.0000
  C   C507      1.0  0.99999  0.31027  0.49968  1.0000
  H   H615      1.0  0.09806  0.20028  0.51286  1.0000
  H   H616      1.0  0.34712  0.00165  0.50447  1.0000
  C   C508      1.0  0.28354  0.05789  0.42864  1.0000
  C   C509      1.0  0.08877  0.22703  0.54185  1.0000
  C   C510      1.0  0.26663  0.05759  0.54835  1.0000
  H   H617      1.0  0.18923  0.05197  0.50500  1.0000
  S   S154      1.0  0.05905  0.13669  0.54014  1.0000
  H   H618      1.0  0.14767  0.04937  0.51015  1.0000
  H   H619      1.0  0.26599  0.06807  0.42757  1.0000
  C   C511      1.0  0.16650  0.04352  0.50600  1.0000
  H   H620      1.0  0.27812  0.05370  0.46431  1.0000
  N   N31       1.0  0.18843  0.03632  0.50052  1.0000
  S   S155      1.0  0.04963  0.24128  0.52522  1.0000
  C   C512      1.0  0.03561  0.36724  0.44280  1.0000
  H   H621      1.0  0.18691  0.01909  0.50059  1.0000
  H   H622      1.0  0.04297  0.20389  0.54751  1.0000
  H   H623      1.0  0.18098  0.02319  0.51446  1.0000
  C   C513      1.0  0.00468  0.40244  0.42868  1.0000
  C   C514      1.0  0.01558  0.25283  0.51533  1.0000
  C   C515      1.0  0.09921  0.04128  0.51017  1.0000
  C   C516      1.0  0.09974  0.03920  0.49926  1.0000
  C   C517      1.0  0.18820  0.02393  0.50651  1.0000
  C   C518      1.0  0.30447  0.02901  0.49859  1.0000
  C   C519      1.0  0.30636  0.02237  0.48095  1.0000
  C   C520      1.0  0.05165  0.19863  0.56190  1.0000
  Fe  Fe80      1.0  0.05291  0.17742  0.54760  1.0000
  Fe  Fe81      1.0  0.05286  0.27168  0.52609  1.0000
  S   S156      1.0  0.02587  0.26148  0.50837  1.0000
  H   H624      1.0  0.04035  0.22519  0.54580  1.0000
  C   C521      1.0  0.30163  0.03097  0.48772  1.0000
  H   H625      1.0  0.04508  0.26311  0.55968  1.0000
  H   H626      1.0  0.99935  0.33965  0.53891  1.0000
  H   H627      1.0  0.02409  0.16134  0.53976  1.0000
  H   H628      1.0  0.09043  0.23275  0.54634  1.0000
  C   C522      1.0  0.07944  0.22146  0.54688  1.0000
  S   S157      1.0  0.04019  0.16640  0.54958  1.0000
  Fe  Fe82      1.0  0.22346  0.01613  0.53773  1.0000
  C   C523      1.0  0.25721  0.05292  0.46267  1.0000
  C   C524      1.0  0.03888  0.29485  0.54561  1.0000
  S   S158      1.0  0.02181  0.34293  0.56635  1.0000
  C   C525      1.0  0.01401  0.24790  0.52736  1.0000
  H   H629      1.0  0.01308  0.12148  0.49904  1.0000
  C   C526      1.0  0.99955  0.24523  0.51444  1.0000
  H   H630      1.0  0.99879  0.28858  0.46285  1.0000
  H   H631      1.0  0.30190  0.05171  0.40019  1.0000
  H   H632      1.0  0.01179  0.29439  0.46896  1.0000
  C   C527      1.0  0.08113  0.19768  0.43405  1.0000
  C   C528      1.0  0.03087  0.36109  0.40540  1.0000
  S   S159      1.0  0.05484  0.28951  0.52578  1.0000
  C   C529      1.0  0.04623  0.20681  0.55328  1.0000
  H   H633      1.0  0.34730  0.02832  0.57861  1.0000
  S   S160      1.0  0.13686  0.00151  0.49948  1.0000
  Fe  Fe83      1.0  0.20834  0.00165  0.53465  1.0000
  Fe  Fe84      1.0  0.04854  0.24830  0.54077  1.0000
  H   H634      1.0  0.07388  0.22285  0.55531  1.0000
  C   C530      1.0  0.04374  0.30247  0.55970  1.0000
  H   H635      1.0  0.03839  0.35749  0.44459  1.0000
  C   C531      1.0  0.04471  0.21890  0.55234  1.0000
  H   H636      1.0  0.05716  0.37252  0.43509  1.0000
  Fe  Fe85      1.0  0.00509  0.34382  0.58029  1.0000
  C   C532      1.0  0.00494  0.40213  0.57724  1.0000
  Fe  Fe86      1.0  0.29211  0.01610  0.54961  1.0000
  C   C533      1.0  0.29074  0.04659  0.43054  1.0000
  C   C534      1.0  0.31249  0.01877  0.50237  1.0000
  H   H637      1.0  0.17672  0.03680  0.46413  1.0000
  C   C535      1.0  0.26683  0.04948  0.43132  1.0000
  C   C536      1.0  0.37899  0.99762  0.48584  1.0000
  H   H638      1.0  0.01046  0.20268  0.55100  1.0000
  S   S161      1.0  0.25169  0.05126  0.43279  1.0000
  H   H639      1.0  0.00046  0.21663  0.54920  1.0000
  C   C537      1.0  0.24608  0.03970  0.49982  1.0000
  C   C538      1.0  0.03538  0.29985  0.55551  1.0000
  H   H640      1.0  0.00886  0.23837  0.56431  1.0000
  H   H641      1.0  0.01852  0.24522  0.56724  1.0000
  H   H642      1.0  0.01947  0.24909  0.53240  1.0000
  C   C539      1.0  0.27412  0.03827  0.43299  1.0000
  H   H643      1.0  0.05593  0.21768  0.57539  1.0000
  C   C540      1.0  0.31378  0.01182  0.48519  1.0000
  H   H644      1.0  0.30402  0.02374  0.47265  1.0000
  C   C541      1.0  0.27308  0.04772  0.58315  1.0000
  S   S162      1.0  0.20173  0.03417  0.45685  1.0000
  H   H645      1.0  0.17778  0.01881  0.53650  1.0000
  C   C542      1.0  0.38007  0.99708  0.44204  1.0000
  C   C543      1.0  0.01617  0.23665  0.56873  1.0000
  S   S163      1.0  0.23265  0.02928  0.43485  1.0000
  C   C544      1.0  0.16892  0.03554  0.54109  1.0000
  H   H646      1.0  0.28042  0.04456  0.45446  1.0000
  H   H647      1.0  0.02994  0.29041  0.45380  1.0000
  S   S164      1.0  0.03625  0.26549  0.53525  1.0000
  C   C545      1.0  0.01550  0.40097  0.58025  1.0000
  H   H648      1.0  0.29167  0.02812  0.43329  1.0000
  S   S165      1.0  0.05434  0.18343  0.56293  1.0000
  C   C546      1.0  0.01394  0.23382  0.42020  1.0000
  C   C547      1.0  0.28607  0.03682  0.43241  1.0000
  H   H649      1.0  0.05907  0.19632  0.57673  1.0000
  S   S166      1.0  0.23208  0.03486  0.46003  1.0000
  H   H650      1.0  0.04040  0.38841  0.43646  1.0000
  C   C548      1.0  0.23647  0.00473  0.49234  1.0000
  C   C549      1.0  0.99606  0.15905  0.54340  1.0000
  C   C550      1.0  0.00146  0.28182  0.43700  1.0000
  S   S167      1.0  0.99650  0.43794  0.39318  1.0000
  Fe  Fe87      1.0  0.24284  0.01120  0.44136  1.0000
  Fe  Fe88      1.0  0.24428  0.03528  0.44230  1.0000
  H   H651      1.0  0.27062  0.03070  0.43461  1.0000
  C   C551      1.0  0.25047  0.03935  0.48795  1.0000
  C   C552      1.0  0.26572  0.01383  0.55298  1.0000
  H   H652      1.0  0.24526  0.03661  0.48376  1.0000
  C   C553      1.0  0.29651  0.04546  0.40176  1.0000
  C   C554      1.0  0.04379  0.27319  0.57217  1.0000
  C   C555      1.0  0.00983  0.29609  0.44627  1.0000
  S   S168      1.0  0.29960  0.01073  0.53241  1.0000
  N   N32       1.0  0.26523  0.04306  0.46884  1.0000
  C   C556      1.0  0.01962  0.29853  0.49268  1.0000
  H   H653      1.0  0.01257  0.10166  0.44845  1.0000
  S   S169      1.0  0.30935  0.01078  0.55483  1.0000
  C   C557      1.0  0.00445  0.40635  0.41669  1.0000
  C   C558      1.0  0.18076  0.02824  0.46867  1.0000
  C   C559      1.0  0.04833  0.22283  0.56022  1.0000
  H   H654      1.0  0.01990  0.12368  0.53794  1.0000
  C   C560      1.0  0.02528  0.37352  0.55194  1.0000
  C   C561      1.0  0.00271  0.23963  0.58690  1.0000
  H   H655      1.0  0.99992  0.15761  0.58294  1.0000
  H   H656      1.0  0.00745  0.28732  0.53331  1.0000
  N   N33       1.0  0.04102  0.37286  0.43075  1.0000
  H   H657      1.0  0.27183  0.00467  0.42373  1.0000
  S   S170      1.0  0.01158  0.35324  0.44630  1.0000
  H   H658      1.0  0.38356  0.01399  0.57443  1.0000
  H   H659      1.0  0.35107  0.99954  0.48432  1.0000
  H   H660      1.0  0.22579  0.99655  0.43831  1.0000
  C   C562      1.0  0.43241  0.00755  0.40073  1.0000
  H   H661      1.0  0.02857  0.21174  0.57468  1.0000
  H   H662      1.0  0.01908  0.23088  0.41225  1.0000
  C   C563      1.0  0.01655  0.10530  0.53289  1.0000
  N   N34       1.0  0.36282  0.00298  0.51650  1.0000
  H   H663      1.0  0.04039  0.28369  0.58449  1.0000
  H   H664      1.0  0.24838  0.03913  0.55437  1.0000
  H   H665      1.0  0.99770  0.19390  0.48026  1.0000
  C   C564      1.0  0.00979  0.18901  0.49936  1.0000
  H   H666      1.0  0.00794  0.35961  0.49681  1.0000
  C   C565      1.0  0.28271  0.00796  0.49001  1.0000
  C   C566      1.0  0.35608  0.00093  0.49945  1.0000
  H   H667      1.0  0.19526  0.99744  0.48452  1.0000
  H   H668      1.0  0.03793  0.37011  0.44963  1.0000
  N   N35       1.0  0.00720  0.11391  0.53896  1.0000
  C   C567      1.0  0.01123  0.12504  0.53579  1.0000
  H   H669      1.0  0.01307  0.12107  0.48442  1.0000
  S   S171      1.0  0.00703  0.33377  0.47100  1.0000
  C   C568      1.0  0.00322  0.18043  0.50307  1.0000
  C   C569      1.0  0.41767  0.00432  0.39286  1.0000
  H   H670      1.0  0.26363  0.01033  0.51606  1.0000
  C   C570      1.0  0.02285  0.23011  0.58682  1.0000
  H   H671      1.0  0.34379  0.00882  0.51982  1.0000
  C   C571      1.0  0.00100  0.38769  0.41679  1.0000
  H   H672      1.0  0.16979  0.99819  0.56755  1.0000
  H   H673      1.0  0.02839  0.35809  0.39903  1.0000
  C   C572      1.0  0.00421  0.20083  0.49902  1.0000
  H   H674      1.0  0.02118  0.13918  0.47508  1.0000
  H   H675      1.0  0.25310  0.00518  0.56631  1.0000
  H   H676      1.0  0.27671  0.04421  0.59121  1.0000
  H   H677      1.0  0.29164  0.04038  0.56637  1.0000
  C   C573      1.0  0.37231  0.00694  0.51876  1.0000
  H   H678      1.0  0.27135  0.00869  0.40180  1.0000
  C   C574      1.0  0.00661  0.17001  0.56779  1.0000
  H   H679      1.0  0.27856  0.05690  0.55849  1.0000
  C   C575      1.0  0.01159  0.31595  0.44422  1.0000
  H   H680      1.0  0.25844  0.03169  0.40647  1.0000
  C   C576      1.0  0.99626  0.28098  0.52681  1.0000
  C   C577      1.0  0.29453  0.02533  0.40628  1.0000
  C   C578      1.0  0.02227  0.11590  0.46027  1.0000
  Fe  Fe89      1.0  0.00023  0.34871  0.48028  1.0000
  C   C579      1.0  0.00950  0.30340  0.46353  1.0000
  C   C580      1.0  0.00138  0.34394  0.52974  1.0000
  H   H681      1.0  0.00586  0.41500  0.41204  1.0000
  H   H682      1.0  0.07516  0.00175  0.51832  1.0000
  C   C581      1.0  0.01807  0.19910  0.58043  1.0000
  C   C582      1.0  0.25992  0.03839  0.56528  1.0000
  C   C583      1.0  0.41737  0.00645  0.42360  1.0000
  C   C584      1.0  0.10386  0.00283  0.51235  1.0000
  H   H683      1.0  0.05724  0.35956  0.43094  1.0000
  H   H684      1.0  0.31087  0.03047  0.40347  1.0000
  H   H685      1.0  0.02337  0.13719  0.48934  1.0000
  Fe  Fe90      1.0  0.13326  0.99612  0.51907  1.0000
  C   C585      1.0  0.27739  0.04136  0.40480  1.0000
  H   H686      1.0  0.01366  0.14565  0.50419  1.0000
  H   H687      1.0  0.29889  0.01614  0.40773  1.0000
  C   C586      1.0  0.00431  0.14620  0.50635  1.0000
  Fe  Fe91      1.0  0.99701  0.32651  0.57144  1.0000
  S   S172      1.0  0.00335  0.40295  0.39549  1.0000
  H   H688      1.0  0.38791  0.99614  0.48057  1.0000
  C   C587      1.0  0.00446  0.39567  0.56956  1.0000
  H   H689      1.0  0.08306  0.00926  0.49661  1.0000
  N   N36       1.0  0.27867  0.00420  0.50293  1.0000
  H   H690      1.0  0.99659  0.37803  0.56633  1.0000
  H   H691      1.0  0.03336  0.38091  0.56495  1.0000
  H   H692      1.0  0.36988  0.00920  0.52755  1.0000
  H   H693      1.0  0.42553  0.99985  0.42520  1.0000
  N   N37       1.0  0.41285  0.00430  0.41441  1.0000
  H   H694      1.0  0.99962  0.12171  0.49555  1.0000
  H   H695      1.0  0.99666  0.08691  0.52410  1.0000
  C   C588      1.0  0.00191  0.28897  0.45353  1.0000
  H   H696      1.0  0.00705  0.21859  0.42689  1.0000
  H   H697      1.0  0.40916  0.00269  0.39369  1.0000
  H   H698      1.0  0.01211  0.28850  0.42038  1.0000
  H   H699      1.0  0.00319  0.27281  0.48319  1.0000
  H   H700      1.0  0.01938  0.30086  0.42813  1.0000
  C   C589      1.0  0.99855  0.14226  0.47957  1.0000
  C   C590      1.0  0.00562  0.37317  0.56295  1.0000
  H   H701      1.0  0.02889  0.36679  0.55913  1.0000
  H   H702      1.0  0.00523  0.10660  0.47843  1.0000
  C   C591      1.0  0.40136  0.01274  0.41386  1.0000
  C   C592      1.0  0.02416  0.27907  0.58447  1.0000
  C   C593      1.0  0.01461  0.38784  0.56463  1.0000
  H   H703      1.0  0.00223  0.31863  0.44359  1.0000
  C   C594      1.0  0.28450  0.04940  0.40218  1.0000
  H   H704      1.0  0.00329  0.27395  0.52379  1.0000
  H   H705      1.0  0.16590  0.99978  0.55406  1.0000
  H   H706      1.0  0.40252  0.02193  0.41035  1.0000
  H   H707      1.0  0.39655  0.01087  0.40832  1.0000
  H   H708      1.0  0.39000  0.02294  0.57898  1.0000
  C   C595      1.0  0.99829  0.21907  0.45920  1.0000
  H   H709      1.0  0.00946  0.25597  0.43391  1.0000
  H   H710      1.0  0.99961  0.38191  0.41220  1.0000
  H   H711      1.0  0.00764  0.17131  0.50329  1.0000
  C   C596      1.0  0.99771  0.24062  0.52652  1.0000
  N   N38       1.0  0.01382  0.38101  0.55661  1.0000
  H   H712      1.0  0.40764  0.01690  0.58453  1.0000
  H   H713      1.0  0.01492  0.39552  0.54169  1.0000
  H   H714      1.0  0.00093  0.13589  0.44718  1.0000
  C   C597      1.0  0.16490  0.99467  0.56331  1.0000
  C   C598      1.0  0.99963  0.34651  0.50966  1.0000
  H   H715      1.0  0.02439  0.36855  0.54592  1.0000
  Fe  Fe92      1.0  0.99657  0.34529  0.45790  1.0000
  H   H716      1.0  0.99948  0.22315  0.50453  1.0000
  H   H717      1.0  0.43582  0.00854  0.40760  1.0000
  C   C599      1.0  0.00015  0.23041  0.43932  1.0000
  H   H718      1.0  0.38447  0.99872  0.50046  1.0000
  H   H719      1.0  0.00565  0.18795  0.58705  1.0000
  H   H720      1.0  0.29189  0.02991  0.57992  1.0000
  H   H721      1.0  0.27424  0.02237  0.39233  1.0000
  S   S173      1.0  0.46661  0.99441  0.40278  1.0000
  H   H722      1.0  0.27788  0.05462  0.57763  1.0000
  H   H723      1.0  0.38051  0.99995  0.51892  1.0000
  H   H724      1.0  0.10603  0.99699  0.52066  1.0000
  H   H725      1.0  0.28610  0.01096  0.39703  1.0000
  C   C600      1.0  0.99784  0.15055  0.51635  1.0000
  H   H726      1.0  0.99824  0.22652  0.46283  1.0000
  C   C601      1.0  0.99942  0.21685  0.58816  1.0000
  C   C602      1.0  0.22916  0.99464  0.51216  1.0000
  H   H727      1.0  0.99602  0.39672  0.56766  1.0000
  C   C603      1.0  0.38747  0.99480  0.59089  1.0000
  S   S174      1.0  0.40386  0.99318  0.52483  1.0000
  C   C604      1.0  0.02202  0.41014  0.71548  1.0000
  H   H728      1.0  0.48573  0.00138  0.73336  1.0000
  H   H729      1.0  0.00587  0.42968  0.68346  1.0000
  H   H730      1.0  0.01043  0.47226  0.65989  1.0000
  H   H731      1.0  0.06548  0.48477  0.75517  1.0000
  H   H732      1.0  0.07320  0.44413  0.62803  1.0000
  H   H733      1.0  0.06598  0.42799  0.63821  1.0000
  S   S175      1.0  0.47849  0.05640  0.78171  1.0000
  H   H734      1.0  0.00719  0.38328  0.62814  1.0000
  H   H735      1.0  0.03573  0.36444  0.59494  1.0000
  H   H736      1.0  0.48984  0.06280  0.71661  1.0000
  Fe  Fe93      1.0  0.47857  0.04358  0.77127  1.0000
  S   S176      1.0  0.46352  0.04445  0.76339  1.0000
  H   H737      1.0  0.01448  0.41325  0.72238  1.0000
  C   C605      1.0  0.04522  0.43395  0.63274  1.0000
  C   C606      1.0  0.00382  0.37130  0.65060  1.0000
  C   C607      1.0  0.00491  0.40031  0.66771  1.0000
  H   H738      1.0  0.00732  0.47845  0.72781  1.0000
  Fe  Fe94      1.0  0.47010  0.03950  0.69883  1.0000
  S   S177      1.0  0.47249  0.02033  0.70716  1.0000
  S   S178      1.0  0.47424  0.05080  0.70837  1.0000
  Fe  Fe95      1.0  0.46627  0.03584  0.67626  1.0000
  S   S179      1.0  0.46835  0.01650  0.68325  1.0000
  S   S180      1.0  0.46628  0.04087  0.65701  1.0000
  Fe  Fe96      1.0  0.45708  0.02163  0.69988  1.0000
  S   S181      1.0  0.44357  0.01146  0.71056  1.0000
  Fe  Fe97      1.0  0.48350  0.01759  0.68950  1.0000
  C   C608      1.0  0.09018  0.41717  0.73429  1.0000
  S   S182      1.0  0.45378  0.04107  0.69259  1.0000
  S   S183      1.0  0.48210  0.03670  0.68156  1.0000
  H   H739      1.0  0.09594  0.48342  0.74114  1.0000
  H   H740      1.0  0.01313  0.36954  0.64570  1.0000
  H   H741      1.0  0.03904  0.47480  0.63446  1.0000
  H   H742      1.0  0.00369  0.40209  0.75794  1.0000
  C   C609      1.0  0.10095  0.42321  0.74445  1.0000
  H   H743      1.0  0.03925  0.40098  0.78470  1.0000
  C   C610      1.0  0.49511  0.00203  0.73065  1.0000
  H   H744      1.0  0.07940  0.48157  0.64866  1.0000
  H   H745      1.0  0.03050  0.46563  0.68370  1.0000
  H   H746      1.0  0.09989  0.44762  0.73468  1.0000
  C   C611      1.0  0.05985  0.46306  0.73759  1.0000
  H   H747      1.0  0.01533  0.36316  0.62958  1.0000
  C   C612      1.0  0.00752  0.36009  0.63056  1.0000
  H   H748      1.0  0.08255  0.45828  0.64174  1.0000
  Fe  Fe98      1.0  0.02459  0.39708  0.61807  1.0000
  S   S184      1.0  0.00905  0.41246  0.61918  1.0000
  S   S185      1.0  0.02918  0.38369  0.60650  1.0000
  Fe  Fe99      1.0  0.03479  0.40344  0.63549  1.0000
  S   S186      1.0  0.01988  0.41888  0.63819  1.0000
  S   S187      1.0  0.05003  0.40059  0.64395  1.0000
  Fe  Fe100     1.0  0.00845  0.40724  0.63854  1.0000
  H   H749      1.0  0.46496  0.08102  0.73265  1.0000
  Fe  Fe101     1.0  0.02178  0.42293  0.61878  1.0000
  S   S188      1.0  0.02221  0.44139  0.60824  1.0000
  S   S189      1.0  0.02320  0.39116  0.63765  1.0000
  S   S190      1.0  0.03752  0.40813  0.61585  1.0000
  Fe  Fe102     1.0  0.47265  0.99638  0.61162  1.0000
  H   H750      1.0  0.06059  0.45662  0.72260  1.0000
  H   H751      1.0  0.02880  0.28598  0.60244  1.0000
  C   C613      1.0  0.06444  0.46149  0.72613  1.0000
  C   C614      1.0  0.03712  0.39343  0.70018  1.0000
  H   H752      1.0  0.06745  0.45965  0.67225  1.0000
  C   C615      1.0  0.09210  0.47895  0.73677  1.0000
  H   H753      1.0  0.05238  0.45941  0.74292  1.0000
  C   C616      1.0  0.03916  0.39486  0.71059  1.0000
  C   C617      1.0  0.05955  0.46500  0.65154  1.0000
  H   H754      1.0  0.46616  0.00450  0.66448  1.0000
  Fe  Fe103     1.0  0.06122  0.41955  0.71547  1.0000
  S   S191      1.0  0.06797  0.43591  0.71117  1.0000
  S   S192      1.0  0.06492  0.40459  0.73067  1.0000
  Fe  Fe104     1.0  0.04780  0.42829  0.69562  1.0000
  S   S193      1.0  0.05292  0.44562  0.69004  1.0000
  S   S194      1.0  0.03497  0.42531  0.68714  1.0000
  Fe  Fe105     1.0  0.07069  0.43467  0.69244  1.0000
  S   S195      1.0  0.08661  0.43682  0.67812  1.0000
  Fe  Fe106     1.0  0.04961  0.44517  0.70920  1.0000
  S   S196      1.0  0.03798  0.45936  0.71831  1.0000
  S   S197      1.0  0.06578  0.41730  0.69683  1.0000
  S   S198      1.0  0.04272  0.42883  0.71470  1.0000
  H   H755      1.0  0.99836  0.48961  0.65442  1.0000
  C   C618      1.0  0.00864  0.46939  0.66934  1.0000
  C   C619      1.0  0.03187  0.48606  0.73924  1.0000
  C   C620      1.0  0.03924  0.49213  0.74089  1.0000
  H   H756      1.0  0.04367  0.45305  0.61131  1.0000
  S   S199      1.0  0.01465  0.48254  0.63405  1.0000
  C   C621      1.0  0.06081  0.47006  0.61237  1.0000
  C   C622      1.0  0.04627  0.45158  0.65632  1.0000
  C   C623      1.0  0.99973  0.47209  0.68919  1.0000
  H   H757      1.0  0.05357  0.39362  0.71879  1.0000
  H   H758      1.0  0.06041  0.47067  0.75097  1.0000
  H   H759      1.0  0.04604  0.47324  0.60464  1.0000
  H   H760      1.0  0.06178  0.47911  0.60937  1.0000
  C   C624      1.0  0.05067  0.45516  0.61358  1.0000
  H   H761      1.0  0.08536  0.47724  0.71753  1.0000
  C   C625      1.0  0.02624  0.36714  0.59670  1.0000
  C   C626      1.0  0.08148  0.43424  0.74248  1.0000
  N   N39       1.0  0.06957  0.46800  0.65381  1.0000
  H   H762      1.0  0.01832  0.26971  0.60739  1.0000
  N   N40       1.0  0.01598  0.28518  0.59365  1.0000
  H   H763      1.0  0.06517  0.38572  0.68480  1.0000
  H   H764      1.0  0.01518  0.29650  0.60492  1.0000
  H   H765      1.0  0.09531  0.46932  0.73979  1.0000
  H   H766      1.0  0.00379  0.38763  0.60820  1.0000
  H   H767      1.0  0.03977  0.44794  0.76360  1.0000
  C   C627      1.0  0.06839  0.46174  0.61892  1.0000
  H   H768      1.0  0.00509  0.28068  0.61090  1.0000
  H   H769      1.0  0.00242  0.36321  0.65739  1.0000
  C   C628      1.0  0.99862  0.40366  0.68754  1.0000
  C   C629      1.0  0.10744  0.45082  0.70516  1.0000
  H   H770      1.0  0.01064  0.46405  0.74543  1.0000
  C   C630      1.0  0.09222  0.44861  0.67789  1.0000
  C   C631      1.0  0.10298  0.45006  0.67030  1.0000
  C   C632      1.0  0.10753  0.45959  0.66978  1.0000
  C   C633      1.0  0.10121  0.46781  0.67665  1.0000
  C   C634      1.0  0.09046  0.46633  0.68430  1.0000
  C   C635      1.0  0.08600  0.45665  0.68502  1.0000
  H   H771      1.0  0.10783  0.44378  0.66486  1.0000
  H   H772      1.0  0.11589  0.46069  0.66392  1.0000
  H   H773      1.0  0.08572  0.47255  0.68981  1.0000
  H   H774      1.0  0.07772  0.45549  0.69097  1.0000
  C   C636      1.0  0.02685  0.45213  0.72674  1.0000
  C   C637      1.0  0.01759  0.45260  0.72182  1.0000
  C   C638      1.0  0.01057  0.44433  0.72683  1.0000
  C   C639      1.0  0.01276  0.43566  0.73676  1.0000
  C   C640      1.0  0.02153  0.43567  0.74212  1.0000
  C   C641      1.0  0.02866  0.44383  0.73704  1.0000
  H   H775      1.0  0.01637  0.45881  0.71371  1.0000
  C   C642      1.0  0.39668  0.00583  0.59812  1.0000
  H   H776      1.0  0.02323  0.42901  0.74984  1.0000
  H   H777      1.0  0.03599  0.44324  0.74072  1.0000
  C   C643      1.0  0.05800  0.38808  0.69200  1.0000
  H   H778      1.0  0.12346  0.47379  0.75338  1.0000
  C   C644      1.0  0.01955  0.48878  0.74382  1.0000
  H   H779      1.0  0.03513  0.40968  0.76497  1.0000
  S   S200      1.0  0.11388  0.48846  0.77037  1.0000
  C   C645      1.0  0.01913  0.45301  0.61549  1.0000
  C   C646      1.0  0.01515  0.45140  0.62770  1.0000
  C   C647      1.0  0.01366  0.46055  0.63331  1.0000
  C   C648      1.0  0.01612  0.47139  0.62674  1.0000
  C   C649      1.0  0.01978  0.47313  0.61452  1.0000
  C   C650      1.0  0.02121  0.46399  0.60892  1.0000
  H   H780      1.0  0.01328  0.44311  0.63284  1.0000
  H   H781      1.0  0.05853  0.47429  0.66913  1.0000
  H   H782      1.0  0.02147  0.48154  0.60936  1.0000
  N   N41       1.0  0.01194  0.48210  0.74209  1.0000
  H   H783      1.0  0.45992  0.01928  0.63150  1.0000
  C   C651      1.0  0.04622  0.40683  0.65638  1.0000
  C   C652      1.0  0.03460  0.40884  0.66273  1.0000
  C   C653      1.0  0.03146  0.41412  0.67239  1.0000
  C   C654      1.0  0.03980  0.41777  0.67560  1.0000
  C   C655      1.0  0.05153  0.41562  0.66938  1.0000
  C   C656      1.0  0.05475  0.41003  0.65985  1.0000
  H   H784      1.0  0.02806  0.40608  0.66036  1.0000
  H   H785      1.0  0.02257  0.41517  0.67759  1.0000
  H   H786      1.0  0.05807  0.41823  0.67193  1.0000
  H   H787      1.0  0.06382  0.40827  0.65511  1.0000
  C   C657      1.0  0.01135  0.45306  0.68589  1.0000
  H   H788      1.0  0.01000  0.49284  0.72512  1.0000
  H   H789      1.0  0.01853  0.45177  0.66794  1.0000
  C   C658      1.0  0.04368  0.46918  0.64116  1.0000
  H   H790      1.0  0.04355  0.44357  0.66158  1.0000
  C   C659      1.0  0.10955  0.47668  0.76854  1.0000
  H   H791      1.0  0.03290  0.47666  0.66304  1.0000
  C   C660      1.0  0.99881  0.34769  0.62467  1.0000
  H   H792      1.0  0.03592  0.47928  0.73423  1.0000
  H   H793      1.0  0.08264  0.44201  0.74479  1.0000
  H   H794      1.0  0.07733  0.47196  0.75725  1.0000
  H   H795      1.0  0.48173  0.00652  0.76155  1.0000
  S   S201      1.0  0.07530  0.43415  0.78888  1.0000
  H   H796      1.0  0.08816  0.46087  0.65277  1.0000
  C   C661      1.0  0.00826  0.38006  0.60441  1.0000
  S   S202      1.0  0.10687  0.47984  0.67561  1.0000
  H   H797      1.0  0.00291  0.37836  0.65523  1.0000
  N   N42       1.0  0.48294  0.07537  0.73481  1.0000
  C   C662      1.0  0.07852  0.47311  0.72352  1.0000
  C   C663      1.0  0.10086  0.45966  0.76418  1.0000
  C   C664      1.0  0.01978  0.36109  0.59341  1.0000
  H   H798      1.0  0.49356  0.01871  0.76408  1.0000
  C   C665      1.0  0.05953  0.41239  0.76688  1.0000
  H   H799      1.0  0.43031  0.99935  0.74474  1.0000
  H   H800      1.0  0.06935  0.38789  0.70279  1.0000
  H   H801      1.0  0.03272  0.45673  0.64647  1.0000
  S   S203      1.0  0.06429  0.46303  0.78175  1.0000
  H   H802      1.0  0.99965  0.34140  0.61951  1.0000
  H   H803      1.0  0.42185  0.01464  0.59590  1.0000
  C   C666      1.0  0.07417  0.47479  0.73521  1.0000
  C   C667      1.0  0.01299  0.44267  0.77866  1.0000
  N   N43       1.0  0.38783  0.00672  0.59150  1.0000
  C   C668      1.0  0.03001  0.48042  0.69037  1.0000
  H   H804      1.0  0.08648  0.41143  0.74264  1.0000
  C   C669      1.0  0.00178  0.37386  0.60134  1.0000
  H   H805      1.0  0.01743  0.38956  0.71728  1.0000
  S   S204      1.0  0.06386  0.44564  0.76545  1.0000
  N   N44       1.0  0.07903  0.48225  0.73955  1.0000
  H   H806      1.0  0.02493  0.40248  0.73727  1.0000
  S   S205      1.0  0.00500  0.43186  0.78191  1.0000
  H   H807      1.0  0.48740  0.09139  0.72378  1.0000
  H   H808      1.0  0.02512  0.46576  0.74386  1.0000
  H   H809      1.0  0.06052  0.44841  0.66452  1.0000
  H   H810      1.0  0.07402  0.47189  0.66811  1.0000
  H   H811      1.0  0.27391  0.02530  0.59328  1.0000
  H   H812      1.0  0.48984  0.08829  0.73834  1.0000
  Fe  Fe107     1.0  0.45033  0.99917  0.63078  1.0000
  H   H813      1.0  0.99988  0.23619  0.59650  1.0000
  H   H814      1.0  0.01953  0.48401  0.78513  1.0000
  H   H815      1.0  0.01631  0.41031  0.76119  1.0000
  C   C670      1.0  0.00864  0.35148  0.62449  1.0000
  H   H816      1.0  0.45525  0.00708  0.72944  1.0000
  C   C671      1.0  0.39593  0.99903  0.60979  1.0000
  C   C672      1.0  0.44710  0.01831  0.64793  1.0000
  C   C673      1.0  0.44307  0.02198  0.65861  1.0000
  C   C674      1.0  0.44901  0.02878  0.66147  1.0000
  C   C675      1.0  0.45869  0.03248  0.65338  1.0000
  C   C676      1.0  0.46248  0.02921  0.64249  1.0000
  C   C677      1.0  0.45683  0.02195  0.63984  1.0000
  H   H817      1.0  0.43532  0.01958  0.66468  1.0000
  H   H818      1.0  0.44593  0.03142  0.66982  1.0000
  H   H819      1.0  0.46993  0.03209  0.63616  1.0000
  C   C678      1.0  0.05815  0.41942  0.74632  1.0000
  C   C679      1.0  0.46657  0.04414  0.74835  1.0000
  C   C680      1.0  0.47808  0.04076  0.74199  1.0000
  C   C681      1.0  0.48035  0.04194  0.72975  1.0000
  C   C682      1.0  0.47112  0.04638  0.72382  1.0000
  C   C683      1.0  0.45956  0.04914  0.73027  1.0000
  C   C684      1.0  0.45730  0.04799  0.74249  1.0000
  H   H820      1.0  0.48527  0.03746  0.74641  1.0000
  H   H821      1.0  0.42221  0.01200  0.68203  1.0000
  H   H822      1.0  0.45240  0.05272  0.72575  1.0000
  H   H823      1.0  0.44837  0.05056  0.74734  1.0000
  H   H824      1.0  0.00452  0.38776  0.76755  1.0000
  H   H825      1.0  0.01588  0.39424  0.68032  1.0000
  H   H826      1.0  0.47440  0.00474  0.64967  1.0000
  H   H827      1.0  0.01491  0.44389  0.68937  1.0000
  C   C685      1.0  0.37604  0.01243  0.59755  1.0000
  H   H828      1.0  0.99720  0.39275  0.63724  1.0000
  H   H829      1.0  0.99795  0.44242  0.75938  1.0000
  C   C686      1.0  0.03289  0.49287  0.66705  1.0000
  C   C687      1.0  0.03093  0.40096  0.78309  1.0000
  C   C688      1.0  0.09517  0.46476  0.77387  1.0000
  N   N45       1.0  0.99659  0.48963  0.67261  1.0000
  C   C689      1.0  0.49057  0.00257  0.76286  1.0000
  C   C690      1.0  0.06712  0.45009  0.62291  1.0000
  C   C691      1.0  0.06723  0.46848  0.66635  1.0000
  Fe  Fe108     1.0  0.07712  0.44886  0.77298  1.0000
  H   H830      1.0  0.01172  0.39677  0.66089  1.0000
  C   C692      1.0  0.44200  0.99645  0.68516  1.0000
  C   C693      1.0  0.01113  0.27643  0.60371  1.0000
  N   N46       1.0  0.02913  0.39851  0.72007  1.0000
  H   H831      1.0  0.02895  0.47555  0.69942  1.0000
  H   H832      1.0  0.47851  0.06123  0.74913  1.0000
  H   H833      1.0  0.11571  0.45875  0.74945  1.0000
  C   C694      1.0  0.06230  0.40789  0.74457  1.0000
  C   C695      1.0  0.06478  0.39866  0.75404  1.0000
  H   H834      1.0  0.05601  0.42659  0.73910  1.0000
  H   H835      1.0  0.06794  0.38973  0.75278  1.0000
  H   H836      1.0  0.01103  0.46955  0.78337  1.0000
  H   H837      1.0  0.07488  0.43745  0.73691  1.0000
  H   H838      1.0  0.01415  0.39210  0.73168  1.0000
  C   C696      1.0  0.00448  0.46028  0.69354  1.0000
  H   H839      1.0  0.42340  0.01101  0.69646  1.0000
  C   C697      1.0  0.11122  0.46273  0.75692  1.0000
  H   H840      1.0  0.42029  0.00237  0.61589  1.0000
  C   C698      1.0  0.05195  0.46677  0.60973  1.0000
  S   S206      1.0  0.00525  0.42425  0.74201  1.0000
  C   C699      1.0  0.45555  0.02199  0.79032  1.0000
  H   H841      1.0  0.04509  0.43667  0.64078  1.0000
  C   C700      1.0  0.47363  0.07570  0.72894  1.0000
  C   C701      1.0  0.02158  0.29184  0.59821  1.0000
  H   H842      1.0  0.05341  0.43052  0.75882  1.0000
  H   H843      1.0  0.47581  0.07957  0.71936  1.0000
  H   H844      1.0  0.02814  0.43288  0.76841  1.0000
  H   H845      1.0  0.45961  0.01362  0.77584  1.0000
  C   C702      1.0  0.00748  0.36428  0.59592  1.0000
  H   H846      1.0  0.47520  0.09344  0.73611  1.0000
  H   H847      1.0  0.38894  0.99441  0.61404  1.0000
  S   S207      1.0  0.45413  0.00651  0.61139  1.0000
  C   C703      1.0  0.07188  0.47952  0.64670  1.0000
  H   H848      1.0  0.44440  0.00223  0.68938  1.0000
  H   H849      1.0  0.04342  0.42500  0.63554  1.0000
  C   C704      1.0  0.41440  0.01052  0.59983  1.0000
  C   C705      1.0  0.06333  0.40089  0.76513  1.0000
  H   H850      1.0  0.01832  0.41006  0.70813  1.0000
  C   C706      1.0  0.01339  0.45757  0.67382  1.0000
  H   H851      1.0  0.02829  0.39515  0.69889  1.0000
  H   H852      1.0  0.11117  0.45668  0.69734  1.0000
  C   C707      1.0  0.41356  0.00356  0.61114  1.0000
  C   C708      1.0  0.06462  0.46958  0.74213  1.0000
  C   C709      1.0  0.04642  0.39007  0.69106  1.0000
  C   C710      1.0  0.40431  0.99785  0.61613  1.0000
  C   C711      1.0  0.11562  0.47119  0.75916  1.0000
  H   H853      1.0  0.10212  0.43037  0.74778  1.0000
  H   H854      1.0  0.00596  0.27171  0.60117  1.0000
  H   H855      1.0  0.06537  0.39366  0.77235  1.0000
  S   S208      1.0  0.03491  0.46985  0.77025  1.0000
  H   H856      1.0  0.06431  0.43081  0.60680  1.0000
  C   C712      1.0  0.99934  0.48593  0.74763  1.0000
  C   C713      1.0  0.03099  0.44936  0.76902  1.0000
  C   C714      1.0  0.03232  0.48104  0.66989  1.0000
  H   H857      1.0  0.09771  0.41679  0.75244  1.0000
  H   H858      1.0  0.10978  0.41882  0.73998  1.0000
  H   H859      1.0  0.47886  0.01067  0.65921  1.0000
  C   C715      1.0  0.00816  0.45302  0.78287  1.0000
  H   H860      1.0  0.01421  0.46795  0.75690  1.0000
  C   C716      1.0  0.03092  0.47481  0.68151  1.0000
  H   H861      1.0  0.47003  0.07543  0.75126  1.0000
  H   H862      1.0  0.07934  0.48634  0.75570  1.0000
  H   H863      1.0  0.01711  0.34811  0.61916  1.0000
  C   C717      1.0  0.02438  0.44088  0.77169  1.0000
  C   C718      1.0  0.45789  0.99934  0.72575  1.0000
  H   H864      1.0  0.08347  0.41975  0.72888  1.0000
  C   C719      1.0  0.03053  0.49224  0.68766  1.0000
  H   H865      1.0  0.05624  0.42021  0.61657  1.0000
  H   H866      1.0  0.48931  0.03981  0.72483  1.0000
  C   C720      1.0  0.01782  0.40606  0.76987  1.0000
  C   C721      1.0  0.05824  0.44642  0.62021  1.0000
  H   H867      1.0  0.41238  0.00505  0.69428  1.0000
  C   C722      1.0  0.02861  0.40583  0.77196  1.0000
  H   H868      1.0  0.37602  0.02129  0.59850  1.0000
  C   C723      1.0  0.00726  0.39887  0.67871  1.0000
  H   H869      1.0  0.08749  0.46209  0.77977  1.0000
  H   H870      1.0  0.10834  0.46063  0.71694  1.0000
  H   H871      1.0  0.01054  0.42432  0.66413  1.0000
  H   H872      1.0  0.09598  0.48143  0.72724  1.0000
  H   H873      1.0  0.47381  0.99692  0.78369  1.0000
  C   C724      1.0  0.10424  0.44108  0.70415  1.0000
  C   C725      1.0  0.10582  0.45304  0.71621  1.0000
  S   S209      1.0  0.09459  0.45014  0.76063  1.0000
  C   C726      1.0  0.10101  0.44551  0.72629  1.0000
  H   H874      1.0  0.00382  0.44433  0.72271  1.0000
  C   C727      1.0  0.47523  0.00336  0.65889  1.0000
  C   C728      1.0  0.05643  0.42972  0.61402  1.0000
  H   H875      1.0  0.07764  0.42867  0.75085  1.0000
  H   H876      1.0  0.99801  0.48508  0.75723  1.0000
  H   H877      1.0  0.06474  0.41667  0.63234  1.0000
  H   H878      1.0  0.48752  0.99721  0.67573  1.0000
  H   H879      1.0  0.99758  0.43337  0.65062  1.0000
  H   H880      1.0  0.09472  0.47753  0.78328  1.0000
  H   H881      1.0  0.48491  0.07093  0.75284  1.0000
  C   C729      1.0  0.09936  0.43351  0.71416  1.0000
  C   C730      1.0  0.05675  0.42166  0.75748  1.0000
  H   H882      1.0  0.43162  0.99387  0.70821  1.0000
  H   H883      1.0  0.10553  0.43939  0.69552  1.0000
  H   H884      1.0  0.07483  0.42568  0.62389  1.0000
  C   C731      1.0  0.09769  0.43545  0.72559  1.0000
  N   N47       1.0  0.09269  0.42759  0.73643  1.0000
  H   H885      1.0  0.03771  0.43981  0.62900  1.0000
  C   C732      1.0  0.04017  0.45894  0.64788  1.0000
  C   C733      1.0  0.07380  0.46642  0.71914  1.0000
  H   H886      1.0  0.02198  0.48007  0.72472  1.0000
  H   H887      1.0  0.07718  0.46534  0.71016  1.0000
  H   H888      1.0  0.09828  0.41160  0.72989  1.0000
  C   C734      1.0  0.09937  0.47340  0.77594  1.0000
  H   H889      1.0  0.42628  0.00194  0.66831  1.0000
  C   C735      1.0  0.05316  0.47228  0.64297  1.0000
  H   H890      1.0  0.06413  0.48683  0.64851  1.0000
  C   C736      1.0  0.99646  0.36508  0.63718  1.0000
  S   S210      1.0  0.99888  0.35619  0.59307  1.0000
  C   C737      1.0  0.07510  0.48124  0.75245  1.0000
  C   C738      1.0  0.01289  0.48346  0.72938  1.0000
  C   C739      1.0  0.06033  0.38932  0.70212  1.0000
  C   C740      1.0  0.01477  0.46158  0.78011  1.0000
  N   N48       1.0  0.42999  0.99450  0.69079  1.0000
  H   H891      1.0  0.03989  0.47913  0.78749  1.0000
  S   S211      1.0  0.05828  0.41470  0.78096  1.0000
  S   S212      1.0  0.48825  0.00458  0.60307  1.0000
  H   H892      1.0  0.09696  0.42623  0.71268  1.0000
  H   H893      1.0  0.01086  0.49242  0.65756  1.0000
  C   C741      1.0  0.47897  0.07056  0.74754  1.0000
  H   H894      1.0  0.99936  0.45443  0.78822  1.0000
  H   H895      1.0  0.02736  0.41688  0.71203  1.0000
  C   C742      1.0  0.05591  0.45448  0.65803  1.0000
  N   N49       1.0  0.99746  0.40209  0.77649  1.0000
  C   C743      1.0  0.45268  0.99893  0.71701  1.0000
  C   C744      1.0  0.00023  0.43408  0.67730  1.0000
  C   C745      1.0  0.05110  0.39267  0.71131  1.0000
  C   C746      1.0  0.02053  0.37655  0.60238  1.0000
  C   C747      1.0  0.40616  0.01165  0.59335  1.0000
  H   H896      1.0  0.47225  0.06674  0.73013  1.0000
  H   H897      1.0  0.02671  0.38084  0.72718  1.0000
  N   N50       1.0  0.05661  0.43418  0.62416  1.0000
  H   H898      1.0  0.44291  0.00069  0.67569  1.0000
  C   C748      1.0  0.03269  0.39950  0.73043  1.0000
  Fe  Fe109     1.0  0.05096  0.45814  0.77580  1.0000
  H   H899      1.0  0.05531  0.48040  0.63744  1.0000
  H   H900      1.0  0.07974  0.45004  0.65659  1.0000
  C   C749      1.0  0.42161  0.00610  0.69087  1.0000
  H   H901      1.0  0.04847  0.43423  0.61035  1.0000
  H   H902      1.0  0.02416  0.46536  0.59946  1.0000
  C   C750      1.0  0.01159  0.39652  0.79019  1.0000
  H   H903      1.0  0.03815  0.40613  0.72801  1.0000
  C   C751      1.0  0.02620  0.45971  0.77320  1.0000
  C   C752      1.0  0.06600  0.42585  0.62987  1.0000
  C   C753      1.0  0.08044  0.45891  0.65109  1.0000
  C   C754      1.0  0.01567  0.46943  0.74726  1.0000
  C   C755      1.0  0.46134  0.01301  0.78429  1.0000
  S   S213      1.0  0.43996  0.00897  0.64511  1.0000
  C   C756      1.0  0.48389  0.08765  0.73319  1.0000
  H   H904      1.0  0.04460  0.38931  0.68310  1.0000
  H   H905      1.0  0.03775  0.39095  0.73464  1.0000
  C   C757      1.0  0.02156  0.38986  0.72424  1.0000
  Fe  Fe110     1.0  0.06096  0.43200  0.78186  1.0000
  H   H906      1.0  0.36920  0.01356  0.59259  1.0000
  C   C758      1.0  0.46965  0.00351  0.78887  1.0000
  H   H907      1.0  0.00265  0.45665  0.70291  1.0000
  C   C759      1.0  0.00896  0.40138  0.77890  1.0000
  H   H908      1.0  0.07422  0.47970  0.63711  1.0000
  C   C760      1.0  0.99921  0.39695  0.76621  1.0000
  C   C761      1.0  0.00287  0.43109  0.66644  1.0000
  H   H909      1.0  0.01071  0.45918  0.64276  1.0000
  S   S214      1.0  0.00210  0.40205  0.70102  1.0000
  H   H910      1.0  0.04855  0.49001  0.73710  1.0000
  H   H911      1.0  0.07525  0.46440  0.62093  1.0000
  H   H912      1.0  0.00024  0.29917  0.59509  1.0000
  C   C762      1.0  0.99807  0.38512  0.63351  1.0000
  H   H913      1.0  0.02112  0.22549  0.59622  1.0000
  H   H914      1.0  0.37310  0.00718  0.60647  1.0000
  H   H915      1.0  0.12885  0.48699  0.78455  1.0000
  H   H916      1.0  0.44943  0.02953  0.78650  1.0000
  H   H917      1.0  0.99671  0.42000  0.76667  1.0000
  C   C763      1.0  0.00177  0.47708  0.67696  1.0000
  S   S215      1.0  0.48435  0.02777  0.78480  1.0000
  C   C764      1.0  0.49459  0.06821  0.73021  1.0000
  H   H918      1.0  0.49460  0.02380  0.70000  1.0000
  H   H919      1.0  0.49543  0.01010  0.72352  1.0000
  C   C765      1.0  0.13217  0.46215  0.94780  1.0000
  H   H920      1.0  0.36607  0.42343  0.94833  1.0000
  S   S216      1.0  0.22052  0.42899  0.92816  1.0000
  Fe  Fe111     1.0  0.39669  0.45091  0.98384  1.0000
  H   H921      1.0  0.10716  0.49063  0.79525  1.0000
  C   C766      1.0  0.25796  0.49138  0.93863  1.0000
  C   C767      1.0  0.13061  0.48634  0.79324  1.0000
  H   H922      1.0  0.28515  0.48265  0.91082  1.0000
  H   H923      1.0  0.48339  0.25773  0.94181  1.0000
  C   C768      1.0  0.34800  0.47716  0.97471  1.0000
  H   H924      1.0  0.49323  0.33928  0.95284  1.0000
  H   H925      1.0  0.33615  0.45968  0.93130  1.0000
  H   H926      1.0  0.46216  0.23007  0.96620  1.0000
  S   S217      1.0  0.46687  0.27909  0.94711  1.0000
  C   C769      1.0  0.48527  0.25964  0.91115  1.0000
  H   H927      1.0  0.11428  0.46600  0.80700  1.0000
  H   H928      1.0  0.39703  0.42391  0.93684  1.0000
  C   C770      1.0  0.30805  0.46051  0.92744  1.0000
  C   C771      1.0  0.16603  0.46272  0.97958  1.0000
  H   H929      1.0  0.14335  0.47423  0.87377  1.0000
  S   S218      1.0  0.49083  0.21879  0.92473  1.0000
  C   C772      1.0  0.20584  0.43633  0.92826  1.0000
  C   C773      1.0  0.34446  0.48751  0.93329  1.0000
  C   C774      1.0  0.46572  0.33062  0.98369  1.0000
  H   H930      1.0  0.13057  0.45820  0.83913  1.0000
  C   C775      1.0  0.12754  0.48858  0.81757  1.0000
  S   S219      1.0  0.05752  0.45081  0.81565  1.0000
  C   C776      1.0  0.33845  0.46746  0.93184  1.0000
  H   H931      1.0  0.48409  0.40898  0.96825  1.0000
  H   H932      1.0  0.03765  0.49120  0.79401  1.0000
  H   H933      1.0  0.15020  0.46108  0.91471  1.0000
  C   C777      1.0  0.21611  0.44045  0.98582  1.0000
  H   H934      1.0  0.04481  0.40718  0.83248  1.0000
  H   H935      1.0  0.02717  0.46500  0.79552  1.0000
  S   S220      1.0  0.01048  0.47243  0.86771  1.0000
  C   C778      1.0  0.01383  0.48325  0.83386  1.0000
  C   C779      1.0  0.11878  0.47482  0.93119  1.0000
  Fe  Fe112     1.0  0.09380  0.47210  0.84523  1.0000
  H   H936      1.0  0.21854  0.48021  0.91561  1.0000
  S   S221      1.0  0.09766  0.46519  0.82876  1.0000
  H   H937      1.0  0.38606  0.41543  0.94060  1.0000
  H   H938      1.0  0.23382  0.48385  0.95842  1.0000
  Fe  Fe113     1.0  0.08038  0.47254  0.87032  1.0000
  S   S222      1.0  0.06884  0.46550  0.88742  1.0000
  H   H939      1.0  0.12547  0.44635  0.92350  1.0000
  S   S223      1.0  0.09842  0.46277  0.86268  1.0000
  C   C780      1.0  0.47285  0.24622  0.94169  1.0000
  C   C781      1.0  0.18458  0.45076  0.98384  1.0000
  H   H940      1.0  0.47608  0.17503  0.92053  1.0000
  C   C782      1.0  0.38684  0.39876  0.96984  1.0000
  H   H941      1.0  0.36564  0.47994  0.96983  1.0000
  H   H942      1.0  0.00532  0.45075  0.82640  1.0000
  H   H943      1.0  0.01066  0.41880  0.83765  1.0000
  C   C783      1.0  0.48062  0.12524  0.91589  1.0000
  H   H944      1.0  0.48841  0.00565  0.80975  1.0000
  S   S224      1.0  0.45904  0.23167  0.94195  1.0000
  C   C784      1.0  0.01432  0.41792  0.80935  1.0000
  N   N51       1.0  0.32776  0.47305  0.98066  1.0000
  C   C785      1.0  0.47377  0.26630  0.91503  1.0000
  C   C786      1.0  0.22041  0.45404  0.89955  1.0000
  H   H945      1.0  0.48894  0.27305  0.92426  1.0000
  C   C787      1.0  0.21296  0.45272  0.98293  1.0000
  H   H946      1.0  0.43705  0.23041  0.97831  1.0000
  C   C788      1.0  0.34128  0.48737  0.92318  1.0000
  H   H947      1.0  0.47668  0.12254  0.93923  1.0000
  C   C789      1.0  0.36783  0.43190  0.94846  1.0000
  H   H948      1.0  0.46589  0.34626  0.96988  1.0000
  H   H949      1.0  0.49286  0.02925  0.83480  1.0000
  C   C790      1.0  0.22718  0.47220  0.89205  1.0000
  H   H950      1.0  0.46821  0.01239  0.81369  1.0000
  H   H951      1.0  0.45709  0.24864  0.91382  1.0000
  H   H952      1.0  0.36667  0.45692  0.93727  1.0000
  H   H953      1.0  0.06052  0.49074  0.80438  1.0000
  C   C791      1.0  0.30005  0.48094  0.91828  1.0000
  C   C792      1.0  0.29968  0.45671  0.92454  1.0000
  S   S225      1.0  0.38324  0.44023  0.98746  1.0000
  H   H954      1.0  0.47104  0.12801  0.91961  1.0000
  H   H955      1.0  0.37053  0.44378  0.92622  1.0000
  N   N52       1.0  0.13170  0.46234  0.91654  1.0000
  C   C793      1.0  0.22335  0.48979  0.92530  1.0000
  Fe  Fe114     1.0  0.10445  0.47894  0.86198  1.0000
  C   C794      1.0  0.27439  0.45540  0.95333  1.0000
  S   S226      1.0  0.10134  0.48747  0.84374  1.0000
  H   H956      1.0  0.27442  0.45888  0.94407  1.0000
  S   S227      1.0  0.17260  0.48490  0.92958  1.0000
  H   H957      1.0  0.13756  0.45745  0.95413  1.0000
  H   H958      1.0  0.38902  0.42014  0.95177  1.0000
  S   S228      1.0  0.31983  0.41365  0.96965  1.0000
  Fe  Fe115     1.0  0.33279  0.44140  0.95756  1.0000
  H   H959      1.0  0.27028  0.42898  0.93934  1.0000
  C   C795      1.0  0.13279  0.48023  0.98324  1.0000
  N   N53       1.0  0.24207  0.45351  0.89718  1.0000
  H   H960      1.0  0.02611  0.41322  0.84782  1.0000
  C   C796      1.0  0.19064  0.45429  0.92659  1.0000
  H   H961      1.0  0.25911  0.44994  0.88554  1.0000
  S   S229      1.0  0.24462  0.44764  0.95442  1.0000
  H   H962      1.0  0.18810  0.46374  0.92514  1.0000
  H   H963      1.0  0.19404  0.44316  0.95222  1.0000
  H   H964      1.0  0.45522  0.23394  0.98007  1.0000
  C   C797      1.0  0.24623  0.45856  0.90462  1.0000
  H   H965      1.0  0.04986  0.41781  0.83647  1.0000
  H   H966      1.0  0.12074  0.47386  0.95883  1.0000
  S   S230      1.0  0.22560  0.45546  0.93741  1.0000
  H   H967      1.0  0.26683  0.48396  0.92344  1.0000
  H   H968      1.0  0.24007  0.45855  0.91335  1.0000
  H   H969      1.0  0.34429  0.48638  0.97433  1.0000
  H   H970      1.0  0.46862  0.22281  0.97869  1.0000
  H   H971      1.0  0.17942  0.43049  0.93056  1.0000
  H   H972      1.0  0.24709  0.46778  0.90069  1.0000
  C   C798      1.0  0.03156  0.42212  0.81199  1.0000
  H   H973      1.0  0.22148  0.44468  0.90304  1.0000
  H   H974      1.0  0.03882  0.43903  0.83275  1.0000
  C   C799      1.0  0.36493  0.41334  0.97671  1.0000
  C   C800      1.0  0.47261  0.00290  0.79958  1.0000
  H   H975      1.0  0.01567  0.48274  0.89382  1.0000
  C   C801      1.0  0.29520  0.41463  0.95624  1.0000
  H   H976      1.0  0.05073  0.41865  0.82150  1.0000
  H   H977      1.0  0.49156  0.12220  0.93958  1.0000
  H   H978      1.0  0.46497  0.33559  0.99005  1.0000
  C   C802      1.0  0.46633  0.01209  0.80562  1.0000
  C   C803      1.0  0.01527  0.41914  0.82859  1.0000
  H   H979      1.0  0.99683  0.43627  0.93293  1.0000
  H   H980      1.0  0.24664  0.47718  0.98768  1.0000
  H   H981      1.0  0.29087  0.44300  0.95012  1.0000
  C   C804      1.0  0.46651  0.24855  0.99059  1.0000
  C   C805      1.0  0.13427  0.49121  0.98328  1.0000
  C   C806      1.0  0.02720  0.42242  0.84419  1.0000
  H   H982      1.0  0.31444  0.45409  0.93202  1.0000
  C   C807      1.0  0.13674  0.48084  0.87789  1.0000
  H   H983      1.0  0.16014  0.46721  0.97373  1.0000
  H   H984      1.0  0.38617  0.43860  0.92194  1.0000
  H   H985      1.0  0.30212  0.41057  0.96095  1.0000
  H   H986      1.0  0.23204  0.48971  0.91966  1.0000
  C   C808      1.0  0.06877  0.45462  0.81930  1.0000
  C   C809      1.0  0.07880  0.45690  0.81080  1.0000
  C   C810      1.0  0.08762  0.46007  0.81383  1.0000
  C   C811      1.0  0.08646  0.46102  0.82536  1.0000
  C   C812      1.0  0.07640  0.45877  0.83388  1.0000
  C   C813      1.0  0.06757  0.45559  0.83084  1.0000
  H   H987      1.0  0.46683  0.27260  0.99112  1.0000
  H   H988      1.0  0.09536  0.46177  0.80718  1.0000
  H   H989      1.0  0.07550  0.45934  0.84283  1.0000
  H   H990      1.0  0.05987  0.45375  0.83748  1.0000
  H   H991      1.0  0.10350  0.48552  0.81094  1.0000
  C   C814      1.0  0.13643  0.47628  0.97271  1.0000
  Fe  Fe116     1.0  0.33832  0.41531  0.96715  1.0000
  C   C815      1.0  0.25978  0.48381  0.93114  1.0000
  H   H992      1.0  0.20873  0.45363  0.92575  1.0000
  H   H993      1.0  0.48307  0.16760  0.90224  1.0000
  C   C816      1.0  0.26507  0.45987  0.96183  1.0000
  H   H994      1.0  0.25173  0.47822  0.97231  1.0000
  C   C817      1.0  0.47802  0.16565  0.92095  1.0000
  H   H995      1.0  0.48035  0.23944  0.93909  1.0000
  C   C818      1.0  0.03182  0.45915  0.89518  1.0000
  C   C819      1.0  0.03757  0.45759  0.90412  1.0000
  C   C820      1.0  0.04892  0.45949  0.90145  1.0000
  C   C821      1.0  0.05476  0.46286  0.88979  1.0000
  C   C822      1.0  0.04914  0.46427  0.88070  1.0000
  C   C823      1.0  0.03759  0.46250  0.88342  1.0000
  H   H996      1.0  0.03321  0.45497  0.91321  1.0000
  H   H997      1.0  0.05322  0.45832  0.90850  1.0000
  H   H998      1.0  0.05368  0.46667  0.87165  1.0000
  C   C824      1.0  0.03803  0.48314  0.85013  1.0000
  Fe  Fe117     1.0  0.31446  0.43013  0.97648  1.0000
  C   C825      1.0  0.26463  0.45544  0.97400  1.0000
  H   H999      1.0  0.10897  0.48514  0.94410  1.0000
  C   C826      1.0  0.46498  0.26575  0.94581  1.0000
  H   H1000     1.0  0.46491  0.25860  0.97313  1.0000
  C   C827      1.0  0.12286  0.46836  0.90923  1.0000
  C   C828      1.0  0.46142  0.24479  0.94330  1.0000
  C   C829      1.0  0.45180  0.25385  0.94618  1.0000
  C   C830      1.0  0.45358  0.26432  0.94739  1.0000
  Fe  Fe118     1.0  0.00571  0.46335  0.88646  1.0000
  C   C831      1.0  0.49297  0.39243  0.98505  1.0000
  H   H1001     1.0  0.44295  0.25282  0.94740  1.0000
  H   H1002     1.0  0.44610  0.27135  0.94950  1.0000
  C   C832      1.0  0.44680  0.40028  0.98143  1.0000
  H   H1003     1.0  0.49521  0.17641  0.94124  1.0000
  H   H1004     1.0  0.24746  0.42230  0.98638  1.0000
  N   N54       1.0  0.48210  0.99357  0.80417  1.0000
  H   H1005     1.0  0.00533  0.39301  0.79767  1.0000
  C   C833      1.0  0.04629  0.48444  0.83948  1.0000
  C   C834      1.0  0.47460  0.25666  0.94304  1.0000
  H   H1006     1.0  0.24409  0.44917  0.98201  1.0000
  C   C835      1.0  0.39042  0.49220  0.97456  1.0000
  Fe  Fe119     1.0  0.22547  0.44912  0.95650  1.0000
  H   H1007     1.0  0.03234  0.42422  0.84951  1.0000
  C   C836      1.0  0.11019  0.48915  0.80349  1.0000
  H   H1008     1.0  0.11412  0.46629  0.91369  1.0000
  H   H1009     1.0  0.48431  0.39490  0.96660  1.0000
  H   H1010     1.0  0.12459  0.46053  0.82108  1.0000
  H   H1011     1.0  0.19335  0.44553  0.98156  1.0000
  N   N55       1.0  0.25459  0.46041  0.98277  1.0000
  H   H1012     1.0  0.16816  0.44415  0.96625  1.0000
  C   C837      1.0  0.02441  0.46815  0.80386  1.0000
  C   C838      1.0  0.39381  0.45291  0.94981  1.0000
  C   C839      1.0  0.12539  0.47913  0.81435  1.0000
  H   H1013     1.0  0.16416  0.45919  0.95848  1.0000
  S   S231      1.0  0.48853  0.18427  0.97205  1.0000
  H   H1014     1.0  0.02520  0.44276  0.82819  1.0000
  S   S232      1.0  0.34163  0.45615  0.95419  1.0000
  H   H1015     1.0  0.21836  0.43545  0.97912  1.0000
  C   C840      1.0  0.45793  0.02146  0.80103  1.0000
  Fe  Fe120     1.0  0.39841  0.42549  0.98330  1.0000
  C   C841      1.0  0.20099  0.48993  0.93982  1.0000
  H   H1016     1.0  0.28971  0.47438  0.97730  1.0000
  C   C842      1.0  0.35873  0.45354  0.97531  1.0000
  H   H1017     1.0  0.45579  0.20063  0.97414  1.0000
  S   S233      1.0  0.48649  0.21676  0.95345  1.0000
  C   C843      1.0  0.20668  0.47247  0.89445  1.0000
  H   H1018     1.0  0.17608  0.47283  0.95613  1.0000
  H   H1019     1.0  0.04297  0.47654  0.80172  1.0000
  H   H1020     1.0  0.41659  0.48398  0.98970  1.0000
  H   H1021     1.0  0.39734  0.43473  0.95040  1.0000
  H   H1022     1.0  0.45357  0.02859  0.80558  1.0000
  C   C844      1.0  0.46620  0.33691  0.97207  1.0000
  C   C845      1.0  0.38663  0.46401  0.94700  1.0000
  C   C846      1.0  0.33854  0.47722  0.92231  1.0000
  H   H1023     1.0  0.45511  0.26737  0.91923  1.0000
  H   H1024     1.0  0.13503  0.44718  0.90911  1.0000
  H   H1025     1.0  0.48233  0.12949  0.90640  1.0000
  C   C847      1.0  0.48604  0.24908  0.90785  1.0000
  C   C848      1.0  0.18232  0.44779  0.92800  1.0000
  C   C849      1.0  0.34648  0.45701  0.97814  1.0000
  N   N56       1.0  0.45336  0.21717  0.97885  1.0000
  H   H1026     1.0  0.23659  0.47105  0.94482  1.0000
  C   C850      1.0  0.38825  0.42292  0.94248  1.0000
  C   C851      1.0  0.32366  0.48267  0.97109  1.0000
  C   C852      1.0  0.12274  0.47140  0.95044  1.0000
  C   C853      1.0  0.47597  0.24525  0.90870  1.0000
  N   N57       1.0  0.18112  0.45422  0.96331  1.0000
  C   C854      1.0  0.46822  0.31909  0.96590  1.0000
  C   C855      1.0  0.46750  0.33115  0.96320  1.0000
  C   C856      1.0  0.18389  0.46533  0.95558  1.0000
  S   S234      1.0  0.21240  0.46010  0.96852  1.0000
  Fe  Fe121     1.0  0.24502  0.45256  0.93522  1.0000
  S   S235      1.0  0.01741  0.45685  0.89934  1.0000
  H   H1027     1.0  0.21382  0.48787  0.88807  1.0000
  C   C857      1.0  0.45693  0.39444  0.98581  1.0000
  C   C858      1.0  0.29761  0.42152  0.94488  1.0000
  C   C859      1.0  0.03402  0.43670  0.82746  1.0000
  C   C860      1.0  0.02663  0.42170  0.82415  1.0000
  H   H1028     1.0  0.47940  0.14012  0.94112  1.0000
  H   H1029     1.0  0.05258  0.47662  0.83733  1.0000
  S   S236      1.0  0.12197  0.47646  0.86694  1.0000
  H   H1030     1.0  0.44508  0.39749  0.97449  1.0000
  H   H1031     1.0  0.46824  0.30340  0.97910  1.0000
  H   H1032     1.0  0.05127  0.48920  0.89220  1.0000
  H   H1033     1.0  0.20190  0.45577  0.90115  1.0000
  S   S237      1.0  0.46666  0.38240  0.98018  1.0000
  H   H1034     1.0  0.47221  0.27437  0.91790  1.0000
  H   H1035     1.0  0.19780  0.47735  0.89389  1.0000
  C   C861      1.0  0.28382  0.41270  0.96141  1.0000
  C   C862      1.0  0.19176  0.44462  0.96133  1.0000
  H   H1036     1.0  0.03323  0.46354  0.87648  1.0000
  H   H1037     1.0  0.37644  0.42866  0.92614  1.0000
  C   C863      1.0  0.24284  0.47635  0.94330  1.0000
  N   N58       1.0  0.12193  0.48104  0.80310  1.0000
  S   S238      1.0  0.48719  0.28880  0.95992  1.0000
  H   H1038     1.0  0.17479  0.44887  0.95111  1.0000
  C   C864      1.0  0.27410  0.44613  0.97715  1.0000
  H   H1039     1.0  0.34735  0.47791  0.95030  1.0000
  H   H1040     1.0  0.19102  0.46764  0.95797  1.0000
  C   C865      1.0  0.48645  0.23447  0.97912  1.0000
  H   H1041     1.0  0.01546  0.46655  0.80812  1.0000
  C   C866      1.0  0.48001  0.14566  0.93241  1.0000
  Fe  Fe122     1.0  0.32034  0.42602  0.95206  1.0000
  C   C867      1.0  0.48416  0.14105  0.92206  1.0000
  H   H1042     1.0  0.12553  0.46580  0.90056  1.0000
  H   H1043     1.0  0.24078  0.43615  0.89705  1.0000
  C   C868      1.0  0.00928  0.41725  0.82126  1.0000
  H   H1044     1.0  0.40107  0.45188  0.95382  1.0000
  C   C869      1.0  0.25375  0.47320  0.98092  1.0000
  H   H1045     1.0  0.48668  0.40021  0.98809  1.0000
  C   C870      1.0  0.99912  0.44681  0.83364  1.0000
  H   H1046     1.0  0.03888  0.43865  0.81818  1.0000
  S   S239      1.0  0.16744  0.48389  0.90460  1.0000
  C   C871      1.0  0.04509  0.41662  0.83044  1.0000
  C   C872      1.0  0.46376  0.26239  0.91582  1.0000
  Fe  Fe123     1.0  0.00057  0.46125  0.86426  1.0000
  C   C873      1.0  0.24331  0.44073  0.90239  1.0000
  H   H1047     1.0  0.39531  0.39319  0.96696  1.0000
  C   C874      1.0  0.44211  0.22240  0.97494  1.0000
  H   H1048     1.0  0.19811  0.48619  0.96406  1.0000
  C   C875      1.0  0.13496  0.45919  0.93686  1.0000
  H   H1049     1.0  0.13537  0.46775  0.97268  1.0000
  H   H1050     1.0  0.23389  0.47722  0.88940  1.0000
  C   C876      1.0  0.17164  0.45151  0.95972  1.0000
  Fe  Fe124     1.0  0.22944  0.43634  0.93734  1.0000
  N   N59       1.0  0.37915  0.43396  0.94054  1.0000
  N   N60       1.0  0.02454  0.48077  0.80167  1.0000
  C   C877      1.0  0.49211  0.18921  0.98246  1.0000
  C   C878      1.0  0.27717  0.42487  0.94406  1.0000
  H   H1051     1.0  0.13970  0.48095  0.79329  1.0000
  H   H1052     1.0  0.26214  0.47488  0.98137  1.0000
  S   S240      1.0  0.47778  0.19868  0.94364  1.0000
  C   C879      1.0  0.37656  0.39605  0.96937  1.0000
  H   H1053     1.0  0.38835  0.47150  0.94885  1.0000
  S   S241      1.0  0.16743  0.45465  0.92871  1.0000
  C   C880      1.0  0.48936  0.04301  0.81976  1.0000
  H   H1054     1.0  0.34175  0.45020  0.98001  1.0000
  H   H1055     1.0  0.29041  0.43162  0.92988  1.0000
  H   H1056     1.0  0.24146  0.46350  0.97268  1.0000
  S   S242      1.0  0.33947  0.42615  0.94877  1.0000
  H   H1057     1.0  0.36025  0.43893  0.94606  1.0000
  S   S243      1.0  0.22773  0.43008  0.95680  1.0000
  C   C881      1.0  0.28357  0.44635  0.95671  1.0000
  Fe  Fe125     1.0  0.48604  0.04034  0.79426  1.0000
  H   H1058     1.0  0.43640  0.21595  0.97779  1.0000
  H   H1059     1.0  0.14112  0.44429  0.92152  1.0000
  C   C882      1.0  0.36556  0.46181  0.97229  1.0000
  C   C883      1.0  0.13105  0.48696  0.82803  1.0000
  H   H1060     1.0  0.18694  0.46463  0.94621  1.0000
  Fe  Fe126     1.0  0.16418  0.47431  0.92344  1.0000
  S   S244      1.0  0.24905  0.43403  0.93304  1.0000
  H   H1061     1.0  0.49394  0.07049  0.81454  1.0000
  Fe  Fe127     1.0  0.47596  0.21812  0.94056  1.0000
  C   C884      1.0  0.01791  0.47837  0.82391  1.0000
  H   H1062     1.0  0.43058  0.41354  0.98321  1.0000
  S   S245      1.0  0.31148  0.42498  0.93861  1.0000
  H   H1063     1.0  0.04015  0.42393  0.80795  1.0000
  H   H1064     1.0  0.42758  0.38186  0.98036  1.0000
  H   H1065     1.0  0.31824  0.49233  0.91336  1.0000
  H   H1066     1.0  0.46828  0.33596  0.95414  1.0000
  Fe  Fe128     1.0  0.06150  0.44808  0.79717  1.0000
  C   C885      1.0  0.14161  0.48328  0.96226  1.0000
  H   H1067     1.0  0.31391  0.48568  0.97305  1.0000
  C   C886      1.0  0.24988  0.45481  0.88529  1.0000
  H   H1068     1.0  0.37712  0.38834  0.96626  1.0000
  N   N61       1.0  0.48766  0.12826  0.92233  1.0000
  C   C887      1.0  0.25228  0.47623  0.93351  1.0000
  C   C888      1.0  0.22987  0.45982  0.89633  1.0000
  C   C889      1.0  0.13235  0.47598  0.83565  1.0000
  C   C890      1.0  0.17724  0.45569  0.97563  1.0000
  C   C891      1.0  0.48505  0.14933  0.91115  1.0000
  C   C892      1.0  0.19759  0.42987  0.92939  1.0000
  H   H1069     1.0  0.02426  0.39266  0.80087  1.0000
  C   C893      1.0  0.12126  0.47006  0.80044  1.0000
  H   H1070     1.0  0.24682  0.45138  0.87935  1.0000
  H   H1071     1.0  0.31488  0.47478  0.92709  1.0000
  C   C894      1.0  0.38622  0.40868  0.97386  1.0000
  C   C895      1.0  0.18235  0.48233  0.98719  1.0000
  H   H1072     1.0  0.48858  0.28185  0.90960  1.0000
  C   C896      1.0  0.49336  0.03817  0.83024  1.0000
  H   H1073     1.0  0.01843  0.42854  0.84577  1.0000
  H   H1074     1.0  0.18891  0.47527  0.98369  1.0000
  C   C897      1.0  0.34147  0.46782  0.94199  1.0000
  H   H1075     1.0  0.48522  0.26724  0.97651  1.0000
  H   H1076     1.0  0.33634  0.47698  0.91438  1.0000
  C   C898      1.0  0.02544  0.42034  0.80472  1.0000
  H   H1077     1.0  0.31170  0.46714  0.98480  1.0000
  H   H1078     1.0  0.11345  0.48034  0.92509  1.0000
  H   H1079     1.0  0.01182  0.47767  0.84248  1.0000
  H   H1080     1.0  0.14207  0.47537  0.90912  1.0000
  H   H1081     1.0  0.05539  0.48028  0.81700  1.0000
  N   N62       1.0  0.03305  0.42426  0.83151  1.0000
  Fe  Fe129     1.0  0.48499  0.28101  0.94620  1.0000
  H   H1082     1.0  0.28480  0.46182  0.91657  1.0000
  C   C899      1.0  0.12655  0.46810  0.82246  1.0000
  C   C900      1.0  0.39152  0.44308  0.94779  1.0000
  C   C901      1.0  0.47697  0.15779  0.93179  1.0000
  H   H1083     1.0  0.12980  0.46350  0.80013  1.0000
  H   H1084     1.0  0.27469  0.44227  0.98615  1.0000
  H   H1085     1.0  0.20753  0.46861  0.98941  1.0000
  C   C902      1.0  0.21575  0.47838  0.89118  1.0000
  C   C903      1.0  0.24114  0.48375  0.95091  1.0000
  H   H1086     1.0  0.14269  0.45231  0.93505  1.0000
  C   C904      1.0  0.27472  0.41800  0.95541  1.0000
  C   C905      1.0  0.01819  0.49084  0.88861  1.0000
  C   C906      1.0  0.46644  0.31829  0.98675  1.0000
  H   H1087     1.0  0.49418  0.40348  0.95599  1.0000
  S   S246      1.0  0.25488  0.46635  0.92449  1.0000
  C   C907      1.0  0.36023  0.47359  0.97207  1.0000
  H   H1088     1.0  0.44341  0.36676  0.98862  1.0000
  C   C908      1.0  0.37693  0.46531  0.94243  1.0000
  H   H1089     1.0  0.25505  0.45352  0.90623  1.0000
  H   H1090     1.0  0.40997  0.46832  0.98554  1.0000
  C   C909      1.0  0.20417  0.49177  0.96341  1.0000
  H   H1091     1.0  0.37470  0.42354  0.98061  1.0000
  S   S247      1.0  0.26032  0.41615  0.96222  1.0000
  C   C910      1.0  0.36561  0.40344  0.97259  1.0000
  C   C911      1.0  0.24353  0.45864  0.98133  1.0000
  S   S248      1.0  0.35298  0.39993  0.97145  1.0000
  H   H1092     1.0  0.28207  0.40719  0.97010  1.0000
  S   S249      1.0  0.31380  0.44252  0.95906  1.0000
  C   C912      1.0  0.20902  0.46032  0.89854  1.0000
  C   C913      1.0  0.34071  0.46901  0.97771  1.0000
  C   C914      1.0  0.29383  0.45559  0.98394  1.0000
  C   C915      1.0  0.29167  0.47672  0.91546  1.0000
  H   H1093     1.0  0.02318  0.49182  0.86161  1.0000
  H   H1094     1.0  0.32345  0.45996  0.97472  1.0000
  H   H1095     1.0  0.29043  0.43439  0.97115  1.0000
  H   H1096     1.0  0.14858  0.48389  0.88654  1.0000
  H   H1097     1.0  0.01894  0.46897  0.82545  1.0000
  H   H1098     1.0  0.19047  0.43612  0.96741  1.0000
  C   C916      1.0  0.03677  0.48198  0.79602  1.0000
  C   C917      1.0  0.39616  0.48038  0.97757  1.0000
  S   S250      1.0  0.07531  0.48039  0.85298  1.0000
  C   C918      1.0  0.48999  0.05455  0.81395  1.0000
  H   H1099     1.0  0.19233  0.48960  0.94522  1.0000
  C   C919      1.0  0.38189  0.44415  0.94280  1.0000
  H   H1100     1.0  0.47420  0.16112  0.93978  1.0000
  H   H1101     1.0  0.03072  0.46246  0.80934  1.0000
  H   H1102     1.0  0.29962  0.44745  0.92684  1.0000
  C   C920      1.0  0.29143  0.46480  0.91865  1.0000
  S   S251      1.0  0.39188  0.46963  0.97359  1.0000
  C   C921      1.0  0.48204  0.16143  0.91065  1.0000
  S   S252      1.0  0.39938  0.41258  0.97278  1.0000
  S   S253      1.0  0.33287  0.43056  0.97579  1.0000
  C   C922      1.0  0.02049  0.48552  0.81247  1.0000
  H   H1103     1.0  0.21300  0.48578  0.96347  1.0000
  C   C923      1.0  0.37452  0.45553  0.94045  1.0000
  H   H1104     1.0  0.12182  0.47805  0.90709  1.0000
  H   H1105     1.0  0.37107  0.47387  0.94065  1.0000
  C   C924      1.0  0.48567  0.26820  0.98494  1.0000
  H   H1106     1.0  0.36772  0.43169  0.95769  1.0000
  H   H1107     1.0  0.25814  0.46678  0.95879  1.0000
  H   H1108     1.0  0.29649  0.45363  0.97534  1.0000
  H   H1109     1.0  0.35648  0.41895  0.97944  1.0000
  C   C925      1.0  0.17332  0.48864  0.98144  1.0000
  H   H1110     1.0  0.23781  0.43917  0.91146  1.0000
  H   H1111     1.0  0.00441  0.43021  0.92038  1.0000
  H   H1112     1.0  0.47432  0.99347  0.82259  1.0000
  H   H1113     1.0  0.14450  0.48016  0.95418  1.0000
  S   S254      1.0  0.41177  0.43657  0.97784  1.0000
  C   C926      1.0  0.37524  0.41588  0.97750  1.0000
  C   C927      1.0  0.28862  0.42640  0.93870  1.0000
  C   C928      1.0  0.34475  0.47772  0.94256  1.0000
  C   C929      1.0  0.13338  0.44949  0.91777  1.0000
  C   C930      1.0  0.20234  0.44855  0.92695  1.0000
  C   C931      1.0  0.18581  0.43557  0.92946  1.0000
  S   S255      1.0  0.14595  0.48502  0.92835  1.0000
  H   H1114     1.0  0.14582  0.46391  0.90113  1.0000
  Fe  Fe130     1.0  0.24715  0.42929  0.95261  1.0000
  C   C932      1.0  0.28976  0.46735  0.98506  1.0000
  H   H1115     1.0  0.48783  0.38579  0.98620  1.0000
  H   H1116     1.0  0.19879  0.48040  0.92830  1.0000
  H   H1117     1.0  0.46951  0.31461  0.95890  1.0000
  H   H1118     1.0  0.13492  0.47479  0.84381  1.0000
  H   H1119     1.0  0.32643  0.47968  0.96265  1.0000
  C   C933      1.0  0.20466  0.48444  0.93029  1.0000
  H   H1120     1.0  0.19972  0.44668  0.96234  1.0000
  H   H1121     1.0  0.20028  0.42042  0.93034  1.0000
  C   C934      1.0  0.30823  0.47245  0.92446  1.0000
  C   C935      1.0  0.11609  0.47773  0.94215  1.0000
  C   C936      1.0  0.28333  0.44159  0.96858  1.0000
  H   H1122     1.0  0.00051  0.41555  0.82480  1.0000
  H   H1123     1.0  0.07981  0.45615  0.80189  1.0000
  C   C937      1.0  0.37804  0.43638  0.92818  1.0000
  H   H1124     1.0  0.36295  0.44439  0.97530  1.0000
  C   C938      1.0  0.40547  0.47742  0.98321  1.0000
  H   H1125     1.0  0.25018  0.46414  0.88113  1.0000
  C   C939      1.0  0.46486  0.25184  0.91277  1.0000
  H   H1126     1.0  0.26859  0.42207  0.98125  1.0000
  H   H1127     1.0  0.44359  0.22526  0.96518  1.0000
  S   S256      1.0  0.48366  0.03459  0.81396  1.0000
  C   C940      1.0  0.12529  0.48388  0.87590  1.0000
  C   C941      1.0  0.49012  0.40093  0.96549  1.0000
  H   H1128     1.0  0.25252  0.43623  0.90312  1.0000
  C   C942      1.0  0.14294  0.46579  0.91010  1.0000
  C   C943      1.0  0.13973  0.48628  0.88515  1.0000
  H   H1129     1.0  0.48263  0.24614  0.96312  1.0000
  H   H1130     1.0  0.48832  0.14649  0.90292  1.0000
  H   H1131     1.0  0.06927  0.48241  0.82666  1.0000
  H   H1132     1.0  0.03574  0.48459  0.89081  1.0000
  C   C944      1.0  0.12827  0.46534  0.92824  1.0000
  S   S257      1.0  0.00785  0.45453  0.84762  1.0000
  H   H1133     1.0  0.03809  0.47451  0.85586  1.0000
  H   H1134     1.0  0.37503  0.45911  0.97011  1.0000
  C   C945      1.0  0.46763  0.31274  0.97748  1.0000
  C   C946      1.0  0.49407  0.06139  0.81883  1.0000
  C   C947      1.0  0.12997  0.46661  0.83294  1.0000
  C   C948      1.0  0.40923  0.48631  0.98553  1.0000
  C   C949      1.0  0.46019  0.20808  0.97199  1.0000
  H   H1135     1.0  0.00753  0.48702  0.79724  1.0000
  H   H1136     1.0  0.17284  0.48654  0.97352  1.0000
  C   C950      1.0  0.47991  0.24408  0.97260  1.0000
  H   H1137     1.0  0.32714  0.49059  0.96962  1.0000
  H   H1138     1.0  0.46124  0.21170  0.96236  1.0000
  S   S258      1.0  0.04701  0.44430  0.79185  1.0000
  C   C951      1.0  0.46991  0.25105  0.97830  1.0000
  C   C952      1.0  0.49375  0.27417  0.91489  1.0000
  C   C953      1.0  0.21582  0.48435  0.92307  1.0000
  C   C954      1.0  0.46011  0.22641  0.97585  1.0000
  C   C955      1.0  0.43859  0.40941  0.98634  1.0000
  H   H1139     1.0  0.05275  0.48685  0.87284  1.0000
  H   H1140     1.0  0.48274  0.11560  0.91632  1.0000
  H   H1141     1.0  0.46926  0.20453  0.97354  1.0000
  C   C956      1.0  0.24866  0.49132  0.94851  1.0000
  C   C957      1.0  0.32136  0.46368  0.98266  1.0000
  H   H1142     1.0  0.23580  0.46174  0.98811  1.0000
  H   H1143     1.0  0.48690  0.05837  0.80588  1.0000
  H   H1144     1.0  0.32330  0.45645  0.99024  1.0000
  H   H1145     1.0  0.41984  0.49095  0.95509  1.0000
  H   H1146     1.0  0.40359  0.49163  0.94700  1.0000
  S   S259      1.0  0.99729  0.45093  0.88281  1.0000
  C   C958      1.0  0.99833  0.44757  0.84510  1.0000
  C   C959      1.0  0.42868  0.38156  0.98899  1.0000
  H   H1147     1.0  0.49299  0.34202  0.97245  1.0000
  H   H1148     1.0  0.48876  0.11125  0.93430  1.0000
  S   S260      1.0  0.08671  0.48800  0.87083  1.0000
  H   H1149     1.0  0.00956  0.41666  0.80366  1.0000
  C   C960      1.0  0.05405  0.48986  0.81298  1.0000
  Fe  Fe131     1.0  0.48982  0.19738  0.95505  1.0000
  H   H1150     1.0  0.47677  0.23699  0.90644  1.0000
  H   H1151     1.0  0.49414  0.22899  0.97465  1.0000
  C   C961      1.0  0.49161  0.99891  0.80429  1.0000
  C   C962      1.0  0.48604  0.12079  0.93440  1.0000
  H   H1152     1.0  0.02930  0.42096  0.79539  1.0000
  C   C963      1.0  0.02965  0.49287  0.85339  1.0000
  C   C964      1.0  0.26388  0.42131  0.99037  1.0000
  C   C965      1.0  0.16217  0.46420  0.99115  1.0000
  H   H1153     1.0  0.20960  0.48717  0.99123  1.0000
  H   H1154     1.0  0.99659  0.44914  0.90782  1.0000
  C   C966      1.0  0.02246  0.39629  0.79218  1.0000
  C   C967      1.0  0.02968  0.49205  0.88691  1.0000
  H   H1155     1.0  0.32861  0.48458  0.99086  1.0000
  C   C968      1.0  0.01686  0.48742  0.79330  1.0000
  Fe  Fe132     1.0  0.49405  0.19905  0.92924  1.0000
  S   S261      1.0  0.49583  0.35961  0.98716  1.0000
  S   S262      1.0  0.49434  0.29306  0.93119  1.0000
  C   C969      1.0  0.49526  0.33327  0.97078  1.0000
  H   H1156     1.0  0.49549  0.00333  0.79523  1.0000
  H   H1157     1.0  0.49446  0.24357  0.90480  1.0000
  C   C970      1.0  0.49537  0.33171  0.95972  1.0000
  C   C971      1.0  0.06740  0.49204  0.82318  1.0000
  C   C972      1.0  0.11687  0.49254  0.88118  1.0000
  H   H1158     1.0  0.11897  0.47173  0.79178  1.0000
  H   H1159     1.0  0.04507  0.49291  0.81118  1.0000
  C   C973      1.0  0.48318  0.23196  0.99138  1.0000
  C   C974      1.0  0.33530  0.55252  0.00364  1.0000
  H   H1160     1.0  0.32026  0.50647  0.01771  1.0000
  H   H1161     1.0  0.09302  0.50273  0.06378  1.0000
  H   H1162     1.0  0.33432  0.54946  0.01304  1.0000
  S   S263      1.0  0.07753  0.50849  0.16410  1.0000
  Fe  Fe133     1.0  0.27242  0.56157  0.99491  1.0000
  S   S264      1.0  0.27300  0.54505  0.00874  1.0000
  C   C975      1.0  0.49515  0.88277  0.11893  1.0000
  C   C976      1.0  0.25475  0.50433  0.99441  1.0000
  S   S265      1.0  0.30104  0.54418  0.00539  1.0000
  H   H1163     1.0  0.33841  0.50986  0.99958  1.0000
  Fe  Fe134     1.0  0.29004  0.53819  0.99737  1.0000
  C   C977      1.0  0.01813  0.54035  0.18978  1.0000
  Fe  Fe135     1.0  0.28382  0.55247  0.01577  1.0000
  S   S266      1.0  0.28117  0.54909  0.03533  1.0000
  H   H1164     1.0  0.34842  0.57617  0.02250  1.0000
  S   S267      1.0  0.28188  0.56981  0.00280  1.0000
  Fe  Fe136     1.0  0.48339  0.67792  0.02794  1.0000
  S   S268      1.0  0.46385  0.67922  0.03271  1.0000
  H   H1165     1.0  0.31067  0.52767  0.03682  1.0000
  C   C978      1.0  0.34653  0.55173  0.99627  1.0000
  H   H1166     1.0  0.04409  0.52362  0.17813  1.0000
  H   H1167     1.0  0.22150  0.51229  0.04034  1.0000
  Fe  Fe137     1.0  0.46251  0.69819  0.03283  1.0000
  S   S269      1.0  0.45067  0.70886  0.04585  1.0000
  C   C979      1.0  0.35280  0.52311  0.99489  1.0000
  N   N63       1.0  0.17378  0.49628  0.01395  1.0000
  S   S270      1.0  0.48181  0.69598  0.03022  1.0000
  H   H1168     1.0  0.48575  0.92166  0.17139  1.0000
  Fe  Fe138     1.0  0.20391  0.54021  0.00988  1.0000
  N   N64       1.0  0.36411  0.57598  0.00863  1.0000
  S   S271      1.0  0.21816  0.53912  0.01883  1.0000
  Fe  Fe139     1.0  0.17822  0.54002  0.01432  1.0000
  H   H1169     1.0  0.36147  0.56691  0.02688  1.0000
  S   S272      1.0  0.16266  0.53759  0.02920  1.0000
  C   C980      1.0  0.33508  0.51880  0.02968  1.0000
  H   H1170     1.0  0.05865  0.49500  0.14075  1.0000
  H   H1171     1.0  0.48490  0.69507  0.05826  1.0000
  H   H1172     1.0  0.22812  0.50119  0.03193  1.0000
  S   S273      1.0  0.19442  0.52560  0.01499  1.0000
  S   S274      1.0  0.18752  0.55456  0.01069  1.0000
  C   C981      1.0  0.32529  0.55747  0.99889  1.0000
  H   H1173     1.0  0.16966  0.50860  0.05722  1.0000
  H   H1174     1.0  0.48511  0.89075  0.15523  1.0000
  C   C982      1.0  0.49180  0.72393  0.03913  1.0000
  C   C983      1.0  0.48265  0.77492  0.99529  1.0000
  N   N65       1.0  0.46936  0.74488  0.99310  1.0000
  H   H1175     1.0  0.07218  0.50279  0.09405  1.0000
  H   H1176     1.0  0.48512  0.72578  0.06776  1.0000
  C   C984      1.0  0.49216  0.59962  0.02665  1.0000
  H   H1177     1.0  0.27266  0.51088  0.01690  1.0000
  H   H1178     1.0  0.31719  0.52173  0.01820  1.0000
  S   S275      1.0  0.13396  0.51676  0.00800  1.0000
  C   C985      1.0  0.00612  0.51237  0.13896  1.0000
  C   C986      1.0  0.21232  0.50291  0.99382  1.0000
  H   H1179     1.0  0.20625  0.50044  0.02501  1.0000
  C   C987      1.0  0.21365  0.58427  0.00049  1.0000
  H   H1180     1.0  0.46252  0.64767  0.03431  1.0000
  C   C988      1.0  0.19860  0.50934  0.04448  1.0000
  Fe  Fe140     1.0  0.48105  0.78776  0.03716  1.0000
  H   H1181     1.0  0.07532  0.51659  0.08551  1.0000
  S   S276      1.0  0.48084  0.80686  0.03545  1.0000
  Fe  Fe141     1.0  0.46940  0.76767  0.03907  1.0000
  S   S277      1.0  0.48655  0.75502  0.03505  1.0000
  S   S278      1.0  0.45274  0.76169  0.04161  1.0000
  Fe  Fe142     1.0  0.49192  0.76252  0.04701  1.0000
  H   H1182     1.0  0.18536  0.53842  0.04436  1.0000
  Fe  Fe143     1.0  0.49182  0.77020  0.02120  1.0000
  S   S279      1.0  0.48447  0.68342  0.00860  1.0000
  S   S280      1.0  0.47426  0.77412  0.05242  1.0000
  S   S281      1.0  0.47427  0.78263  0.02434  1.0000
  H   H1183     1.0  0.16243  0.49501  0.03129  1.0000
  H   H1184     1.0  0.48695  0.87226  0.14261  1.0000
  C   C989      1.0  0.45507  0.66597  0.00502  1.0000
  H   H1185     1.0  0.47625  0.87286  0.03499  1.0000
  S   S282      1.0  0.45836  0.67998  0.00084  1.0000
  C   C990      1.0  0.49272  0.90664  0.10832  1.0000
  C   C991      1.0  0.46217  0.73838  0.00358  1.0000
  H   H1186     1.0  0.26965  0.52196  0.00422  1.0000
  C   C992      1.0  0.07298  0.50867  0.15151  1.0000
  C   C993      1.0  0.49434  0.89076  0.12589  1.0000
  N   N66       1.0  0.47888  0.63646  0.02738  1.0000
  H   H1187     1.0  0.45774  0.64284  0.99296  1.0000
  Fe  Fe144     1.0  0.05522  0.49562  0.11770  1.0000
  H   H1188     1.0  0.47596  0.65308  0.01494  1.0000
  C   C994      1.0  0.45989  0.82864  0.05494  1.0000
  H   H1189     1.0  0.30113  0.51815  0.04459  1.0000
  H   H1190     1.0  0.31591  0.49499  0.04986  1.0000
  C   C995      1.0  0.48589  0.81086  0.04572  1.0000
  C   C996      1.0  0.47844  0.61811  0.02193  1.0000
  H   H1191     1.0  0.48173  0.65083  0.03265  1.0000
  H   H1192     1.0  0.27318  0.51399  0.06551  1.0000
  C   C997      1.0  0.48908  0.80811  0.06528  1.0000
  C   C998      1.0  0.48547  0.80426  0.05723  1.0000
  S   S283      1.0  0.01558  0.49564  0.11387  1.0000
  H   H1193     1.0  0.34813  0.49573  0.00085  1.0000
  S   S284      1.0  0.27936  0.49557  0.05252  1.0000
  H   H1194     1.0  0.48213  0.79633  0.05999  1.0000
  H   H1195     1.0  0.06385  0.49461  0.15932  1.0000
  C   C999      1.0  0.45745  0.53105  0.00079  1.0000
  C   C1000     1.0  0.48548  0.64129  0.03281  1.0000
  H   H1196     1.0  0.16543  0.51477  0.00966  1.0000
  H   H1197     1.0  0.36397  0.50678  0.02987  1.0000
  C   C1001     1.0  0.46717  0.84685  0.04816  1.0000
  C   C1002     1.0  0.44084  0.54536  0.99455  1.0000
  C   C1003     1.0  0.47602  0.55783  0.99490  1.0000
  C   C1004     1.0  0.37538  0.56742  0.00582  1.0000
  C   C1005     1.0  0.35685  0.57009  0.01949  1.0000
  H   H1198     1.0  0.49486  0.64047  0.02805  1.0000
  S   S285      1.0  0.46205  0.70507  0.01384  1.0000
  Fe  Fe145     1.0  0.18959  0.55440  0.99178  1.0000
  H   H1199     1.0  0.42732  0.58803  0.99965  1.0000
  Fe  Fe146     1.0  0.46491  0.68605  0.01329  1.0000
  H   H1200     1.0  0.43939  0.64857  0.02732  1.0000
  C   C1006     1.0  0.17636  0.52428  0.05125  1.0000
  C   C1007     1.0  0.31392  0.49833  0.04098  1.0000
  H   H1201     1.0  0.46082  0.63525  0.03037  1.0000
  H   H1202     1.0  0.07644  0.50501  0.07846  1.0000
  S   S286      1.0  0.06337  0.51011  0.11726  1.0000
  C   C1008     1.0  0.38375  0.50531  0.00783  1.0000
  H   H1203     1.0  0.45194  0.86637  0.04108  1.0000
  C   C1009     1.0  0.08304  0.49393  0.01714  1.0000
  S   S287      1.0  0.35889  0.54559  0.00247  1.0000
  H   H1204     1.0  0.34560  0.50416  0.01157  1.0000
  H   H1205     1.0  0.22510  0.57268  0.02966  1.0000
  H   H1206     1.0  0.47440  0.75263  0.00442  1.0000
  C   C1010     1.0  0.35841  0.58009  0.99847  1.0000
  H   H1207     1.0  0.21711  0.51690  0.99777  1.0000
  C   C1011     1.0  0.15282  0.53317  0.02424  1.0000
  C   C1012     1.0  0.14759  0.52392  0.03120  1.0000
  C   C1013     1.0  0.14121  0.51914  0.02647  1.0000
  C   C1014     1.0  0.14008  0.52366  0.01483  1.0000
  C   C1015     1.0  0.14474  0.53334  0.00814  1.0000
  C   C1016     1.0  0.15112  0.53809  0.01285  1.0000
  C   C1017     1.0  0.46651  0.63822  0.03415  1.0000
  H   H1208     1.0  0.48993  0.91861  0.19102  1.0000
  C   C1018     1.0  0.26929  0.51273  0.00882  1.0000
  H   H1209     1.0  0.15479  0.54552  0.00762  1.0000
  H   H1210     1.0  0.14889  0.52014  0.04004  1.0000
  H   H1211     1.0  0.48668  0.69824  0.07684  1.0000
  H   H1212     1.0  0.17328  0.51102  0.02093  1.0000
  H   H1213     1.0  0.22945  0.59144  0.99398  1.0000
  S   S288      1.0  0.29527  0.51942  0.99613  1.0000
  C   C1019     1.0  0.16507  0.50009  0.99641  1.0000
  H   H1214     1.0  0.16782  0.53004  0.05350  1.0000
  C   C1020     1.0  0.02644  0.53394  0.18202  1.0000
  C   C1021     1.0  0.45941  0.86356  0.03391  1.0000
  C   C1022     1.0  0.45186  0.72345  0.04418  1.0000
  C   C1023     1.0  0.44319  0.73052  0.05117  1.0000
  C   C1024     1.0  0.44368  0.74213  0.05026  1.0000
  C   C1025     1.0  0.45303  0.74679  0.04261  1.0000
  C   C1026     1.0  0.46184  0.73975  0.03556  1.0000
  C   C1027     1.0  0.46116  0.72812  0.03624  1.0000
  H   H1215     1.0  0.43595  0.72703  0.05727  1.0000
  H   H1216     1.0  0.43678  0.74751  0.05563  1.0000
  H   H1217     1.0  0.46900  0.74334  0.02949  1.0000
  H   H1218     1.0  0.46785  0.72274  0.03075  1.0000
  C   C1028     1.0  0.24492  0.56123  0.99743  1.0000
  C   C1029     1.0  0.45819  0.55194  0.99449  1.0000
  C   C1030     1.0  0.22870  0.55274  0.99860  1.0000
  C   C1031     1.0  0.22821  0.54788  0.01055  1.0000
  C   C1032     1.0  0.23605  0.54978  0.01595  1.0000
  C   C1033     1.0  0.24432  0.55652  0.00942  1.0000
  C   C1034     1.0  0.45695  0.57027  0.99951  1.0000
  H   H1219     1.0  0.37992  0.56400  0.01326  1.0000
  H   H1220     1.0  0.23562  0.54620  0.02523  1.0000
  H   H1221     1.0  0.24995  0.55841  0.01379  1.0000
  C   C1035     1.0  0.36726  0.50460  0.00035  1.0000
  Fe  Fe147     1.0  0.19594  0.52799  0.99574  1.0000
  C   C1036     1.0  0.48996  0.82125  0.04234  1.0000
  H   H1222     1.0  0.48859  0.80308  0.07422  1.0000
  H   H1223     1.0  0.49209  0.91585  0.10410  1.0000
  S   S289      1.0  0.45298  0.60002  0.00418  1.0000
  C   C1037     1.0  0.44829  0.66213  0.01613  1.0000
  H   H1224     1.0  0.37396  0.55974  0.00359  1.0000
  H   H1225     1.0  0.37298  0.59029  0.00388  1.0000
  C   C1038     1.0  0.34685  0.50478  0.00205  1.0000
  H   H1226     1.0  0.45482  0.73630  0.00139  1.0000
  H   H1227     1.0  0.44536  0.66763  0.02251  1.0000
  H   H1228     1.0  0.34163  0.57479  0.00724  1.0000
  H   H1229     1.0  0.48015  0.81149  0.99227  1.0000
  C   C1039     1.0  0.07333  0.51709  0.13081  1.0000
  H   H1230     1.0  0.47796  0.77589  0.00401  1.0000
  N   N67       1.0  0.49513  0.88692  0.13839  1.0000
  C   C1040     1.0  0.49459  0.88671  0.10710  1.0000
  C   C1041     1.0  0.31056  0.51851  0.04185  1.0000
  H   H1231     1.0  0.24000  0.51913  0.02013  1.0000
  H   H1232     1.0  0.48736  0.72338  0.03283  1.0000
  C   C1042     1.0  0.46254  0.83831  0.04609  1.0000
  C   C1043     1.0  0.41785  0.57667  0.99705  1.0000
  H   H1233     1.0  0.20727  0.56758  0.02844  1.0000
  Fe  Fe148     1.0  0.07239  0.49665  0.18160  1.0000
  C   C1044     1.0  0.28217  0.51554  0.03614  1.0000
  C   C1045     1.0  0.28305  0.52723  0.03242  1.0000
  C   C1046     1.0  0.28001  0.53441  0.04048  1.0000
  C   C1047     1.0  0.27634  0.52967  0.05246  1.0000
  C   C1048     1.0  0.16305  0.49342  0.02252  1.0000
  H   H1234     1.0  0.14372  0.53696  0.99918  1.0000
  H   H1235     1.0  0.28648  0.53051  0.02329  1.0000
  H   H1236     1.0  0.27401  0.53517  0.05877  1.0000
  H   H1237     1.0  0.19816  0.57711  0.99222  1.0000
  H   H1238     1.0  0.45646  0.85828  0.02963  1.0000
  N   N68       1.0  0.31773  0.50952  0.03495  1.0000
  C   C1049     1.0  0.21974  0.50747  0.03469  1.0000
  H   H1239     1.0  0.37050  0.58347  0.01909  1.0000
  C   C1050     1.0  0.31513  0.51309  0.02309  1.0000
  C   C1051     1.0  0.27884  0.51066  0.04802  1.0000
  H   H1240     1.0  0.47209  0.53727  0.00058  1.0000
  H   H1241     1.0  0.35039  0.52611  0.02536  1.0000
  H   H1242     1.0  0.10568  0.51211  0.04656  1.0000
  H   H1243     1.0  0.15802  0.50688  0.99973  1.0000
  C   C1052     1.0  0.25347  0.51332  0.00037  1.0000
  H   H1244     1.0  0.48460  0.73967  0.00051  1.0000
  H   H1245     1.0  0.99802  0.52125  0.15819  1.0000
  H   H1246     1.0  0.28425  0.51029  0.02976  1.0000
  H   H1247     1.0  0.13747  0.51178  0.03172  1.0000
  C   C1053     1.0  0.49454  0.69623  0.07013  1.0000
  H   H1248     1.0  0.48742  0.79752  0.99991  1.0000
  H   H1249     1.0  0.46755  0.86910  0.04954  1.0000
  H   H1250     1.0  0.25116  0.51592  0.02840  1.0000
  H   H1251     1.0  0.48654  0.95807  0.16768  1.0000
  H   H1252     1.0  0.08825  0.51355  0.09907  1.0000
  H   H1253     1.0  0.47558  0.55355  0.00435  1.0000
  S   S290      1.0  0.40615  0.56167  0.99430  1.0000
  H   H1254     1.0  0.44157  0.52682  0.00029  1.0000
  H   H1255     1.0  0.25852  0.49521  0.99776  1.0000
  H   H1256     1.0  0.11834  0.52389  0.04852  1.0000
  H   H1257     1.0  0.23207  0.50377  0.00833  1.0000
  H   H1258     1.0  0.31725  0.50371  0.99909  1.0000
  H   H1259     1.0  0.32951  0.52741  0.02741  1.0000
  C   C1054     1.0  0.21873  0.50754  0.99860  1.0000
  C   C1055     1.0  0.49456  0.91766  0.17275  1.0000
  H   H1260     1.0  0.47863  0.60204  0.01753  1.0000
  H   H1261     1.0  0.22276  0.55134  0.99433  1.0000
  C   C1056     1.0  0.07639  0.51673  0.14119  1.0000
  H   H1262     1.0  0.20280  0.60625  0.99299  1.0000
  H   H1263     1.0  0.46123  0.83881  0.03752  1.0000
  H   H1264     1.0  0.49325  0.90153  0.09255  1.0000
  C   C1057     1.0  0.09842  0.50768  0.06515  1.0000
  N   N69       1.0  0.47001  0.85693  0.03858  1.0000
  H   H1265     1.0  0.48181  0.85994  0.02158  1.0000
  H   H1266     1.0  0.02421  0.53309  0.17433  1.0000
  H   H1267     1.0  0.46106  0.87159  0.02713  1.0000
  C   C1058     1.0  0.49501  0.87431  0.14340  1.0000
  C   C1059     1.0  0.46906  0.84505  0.05963  1.0000
  C   C1060     1.0  0.49478  0.77021  0.99294  1.0000
  C   C1061     1.0  0.46637  0.83534  0.06841  1.0000
  C   C1062     1.0  0.46342  0.53998  0.99874  1.0000
  C   C1063     1.0  0.46180  0.82717  0.06608  1.0000
  C   C1064     1.0  0.10564  0.51309  0.05519  1.0000
  N   N70       1.0  0.25726  0.51080  0.01155  1.0000
  Fe  Fe149     1.0  0.45262  0.61939  0.00060  1.0000
  S   S291      1.0  0.44441  0.63065  0.01412  1.0000
  C   C1065     1.0  0.19727  0.52167  0.04283  1.0000
  C   C1066     1.0  0.24943  0.51872  0.01939  1.0000
  H   H1268     1.0  0.31665  0.55841  0.00466  1.0000
  H   H1269     1.0  0.48557  0.90333  0.14371  1.0000
  H   H1270     1.0  0.47095  0.62278  0.01804  1.0000
  H   H1271     1.0  0.47292  0.85078  0.06201  1.0000
  H   H1272     1.0  0.45496  0.56593  0.00898  1.0000
  H   H1273     1.0  0.46832  0.83388  0.07695  1.0000
  C   C1067     1.0  0.45523  0.64812  0.99947  1.0000
  H   H1274     1.0  0.46012  0.81946  0.07280  1.0000
  C   C1068     1.0  0.44619  0.53374  0.99870  1.0000
  N   N71       1.0  0.46414  0.56169  0.99221  1.0000
  C   C1069     1.0  0.35047  0.49702  0.03460  1.0000
  H   H1275     1.0  0.10251  0.49616  0.12912  1.0000
  H   H1276     1.0  0.25080  0.52784  0.01626  1.0000
  C   C1070     1.0  0.37376  0.51103  0.00325  1.0000
  H   H1277     1.0  0.30426  0.49942  0.04222  1.0000
  H   H1278     1.0  0.21360  0.49780  0.05812  1.0000
  C   C1071     1.0  0.21177  0.57320  0.02097  1.0000
  H   H1279     1.0  0.18870  0.49554  0.05183  1.0000
  C   C1072     1.0  0.17740  0.51222  0.05322  1.0000
  H   H1280     1.0  0.08525  0.49703  0.02389  1.0000
  H   H1281     1.0  0.46795  0.72249  0.99185  1.0000
  S   S292      1.0  0.49153  0.71588  0.00239  1.0000
  H   H1282     1.0  0.30568  0.51395  0.02352  1.0000
  H   H1283     1.0  0.48510  0.63691  0.04222  1.0000
  H   H1284     1.0  0.21769  0.51383  0.02654  1.0000
  C   C1073     1.0  0.06694  0.50929  0.13058  1.0000
  C   C1074     1.0  0.18627  0.52899  0.04608  1.0000
  C   C1075     1.0  0.27580  0.51774  0.05625  1.0000
  H   H1285     1.0  0.49389  0.94175  0.15743  1.0000
  C   C1076     1.0  0.45862  0.65886  0.99676  1.0000
  H   H1286     1.0  0.47657  0.89360  0.14438  1.0000
  H   H1287     1.0  0.19996  0.57452  0.01062  1.0000
  H   H1288     1.0  0.47363  0.64117  0.01079  1.0000
  C   C1077     1.0  0.06357  0.50108  0.14087  1.0000
  H   H1289     1.0  0.46152  0.57731  0.99859  1.0000
  N   N72       1.0  0.35683  0.51032  0.99518  1.0000
  C   C1078     1.0  0.34686  0.57897  0.99926  1.0000
  H   H1290     1.0  0.11806  0.52628  0.06816  1.0000
  H   H1291     1.0  0.10067  0.50098  0.09967  1.0000
  N   N73       1.0  0.21004  0.50131  0.04097  1.0000
  H   H1292     1.0  0.01195  0.50827  0.14529  1.0000
  H   H1293     1.0  0.47683  0.84657  0.02520  1.0000
  H   H1294     1.0  0.08139  0.52278  0.14123  1.0000
  H   H1295     1.0  0.07211  0.49682  0.06050  1.0000
  C   C1079     1.0  0.23714  0.55927  0.99203  1.0000
  H   H1296     1.0  0.49262  0.96696  0.15424  1.0000
  S   S293      1.0  0.47208  0.61702  0.99420  1.0000
  H   H1297     1.0  0.48832  0.64206  0.00972  1.0000
  H   H1298     1.0  0.07430  0.49933  0.01576  1.0000
  C   C1080     1.0  0.47923  0.64347  0.01520  1.0000
  C   C1081     1.0  0.47839  0.74775  0.99720  1.0000
  H   H1299     1.0  0.46588  0.63318  0.04340  1.0000
  C   C1082     1.0  0.47940  0.85259  0.02894  1.0000
  H   H1300     1.0  0.38177  0.57132  0.99828  1.0000
  C   C1083     1.0  0.47420  0.86536  0.04234  1.0000
  S   S294      1.0  0.39204  0.53729  0.99648  1.0000
  C   C1084     1.0  0.06650  0.50084  0.15138  1.0000
  H   H1301     1.0  0.35839  0.59304  0.01289  1.0000
  H   H1302     1.0  0.38888  0.51039  0.00953  1.0000
  C   C1085     1.0  0.42569  0.58426  0.99336  1.0000
  H   H1303     1.0  0.20452  0.52596  0.03883  1.0000
  H   H1304     1.0  0.07592  0.52346  0.12293  1.0000
  C   C1086     1.0  0.48360  0.62383  0.02722  1.0000
  C   C1087     1.0  0.44483  0.65140  0.01880  1.0000
  H   H1305     1.0  0.35490  0.56221  0.01810  1.0000
  C   C1088     1.0  0.49319  0.90281  0.12018  1.0000
  H   H1306     1.0  0.48758  0.84774  0.03209  1.0000
  C   C1089     1.0  0.48514  0.89393  0.14569  1.0000
  C   C1090     1.0  0.20769  0.57723  0.01056  1.0000
  S   S295      1.0  0.17883  0.54108  0.99541  1.0000
  C   C1091     1.0  0.17338  0.50890  0.01255  1.0000
  H   H1307     1.0  0.41353  0.57463  0.00623  1.0000
  H   H1308     1.0  0.08597  0.49919  0.10596  1.0000
  C   C1092     1.0  0.49469  0.96118  0.16263  1.0000
  H   H1309     1.0  0.24840  0.53244  0.99826  1.0000
  C   C1093     1.0  0.44835  0.64433  0.01049  1.0000
  C   C1094     1.0  0.48515  0.72440  0.05050  1.0000
  H   H1310     1.0  0.48256  0.86111  0.04531  1.0000
  Fe  Fe150     1.0  0.29828  0.56072  0.99168  1.0000
  H   H1311     1.0  0.48015  0.56543  0.99321  1.0000
  N   N74       1.0  0.09064  0.50251  0.08701  1.0000
  S   S296      1.0  0.11476  0.49528  0.01554  1.0000
  H   H1312     1.0  0.19093  0.59064  0.99719  1.0000
  H   H1313     1.0  0.10565  0.51705  0.08571  1.0000
  C   C1095     1.0  0.09817  0.50863  0.07661  1.0000
  C   C1096     1.0  0.10541  0.51560  0.07743  1.0000
  H   H1314     1.0  0.25921  0.49701  0.02713  1.0000
  C   C1097     1.0  0.11259  0.52101  0.06737  1.0000
  S   S297      1.0  0.04994  0.49363  0.10222  1.0000
  C   C1098     1.0  0.11275  0.51971  0.05629  1.0000
  H   H1315     1.0  0.37146  0.52050  0.00186  1.0000
  H   H1316     1.0  0.15489  0.49881  0.01966  1.0000
  H   H1317     1.0  0.31358  0.51716  0.05006  1.0000
  Fe  Fe151     1.0  0.48159  0.70167  0.01122  1.0000
  C   C1099     1.0  0.03762  0.52863  0.18418  1.0000
  S   S298      1.0  0.48698  0.58415  0.00296  1.0000
  C   C1100     1.0  0.22182  0.57604  0.02167  1.0000
  H   H1318     1.0  0.08950  0.49610  0.00874  1.0000
  H   H1319     1.0  0.24886  0.49619  0.01948  1.0000
  C   C1101     1.0  0.36658  0.58614  0.01124  1.0000
  H   H1320     1.0  0.49521  0.87181  0.15289  1.0000
  C   C1102     1.0  0.33041  0.50856  0.03372  1.0000
  C   C1103     1.0  0.48271  0.60621  0.02163  1.0000
  C   C1104     1.0  0.24897  0.52503  0.99473  1.0000
  H   H1321     1.0  0.46765  0.73003  0.00768  1.0000
  C   C1105     1.0  0.44673  0.55431  0.99245  1.0000
  Fe  Fe152     1.0  0.13070  0.49909  0.01789  1.0000
  H   H1322     1.0  0.00915  0.52031  0.13313  1.0000
  C   C1106     1.0  0.20906  0.49450  0.03300  1.0000
  H   H1323     1.0  0.23612  0.58446  0.01229  1.0000
  H   H1324     1.0  0.18110  0.51152  0.00592  1.0000
  H   H1325     1.0  0.09831  0.49350  0.15067  1.0000
  C   C1107     1.0  0.33852  0.49758  0.03597  1.0000
  H   H1326     1.0  0.45678  0.82200  0.05302  1.0000
  C   C1108     1.0  0.49312  0.81855  0.06186  1.0000
  H   H1327     1.0  0.43204  0.54747  0.99295  1.0000
  C   C1109     1.0  0.49359  0.82506  0.05034  1.0000
  C   C1110     1.0  0.17410  0.49383  0.00256  1.0000
  C   C1111     1.0  0.49350  0.69446  0.05965  1.0000
  C   C1112     1.0  0.34703  0.51815  0.02842  1.0000
  H   H1328     1.0  0.44844  0.57484  0.99696  1.0000
  C   C1113     1.0  0.22798  0.58274  0.01191  1.0000
  H   H1329     1.0  0.00770  0.50615  0.13322  1.0000
  C   C1114     1.0  0.07814  0.50692  0.08617  1.0000
  H   H1330     1.0  0.35063  0.52490  0.00383  1.0000
  H   H1331     1.0  0.45711  0.76130  0.99534  1.0000
  H   H1332     1.0  0.49003  0.82654  0.03358  1.0000
  C   C1115     1.0  0.18834  0.50483  0.04997  1.0000
  H   H1333     1.0  0.49546  0.59040  0.02629  1.0000
  H   H1334     1.0  0.49548  0.88046  0.10185  1.0000
  H   H1335     1.0  0.49296  0.90936  0.12476  1.0000
  H   H1336     1.0  0.00940  0.54447  0.18814  1.0000
  C   C1116     1.0  0.09151  0.50417  0.09837  1.0000
  C   C1117     1.0  0.49035  0.72512  0.05902  1.0000
  H   H1337     1.0  0.45812  0.74355  0.01058  1.0000
  H   H1338     1.0  0.47586  0.72435  0.05270  1.0000
  C   C1118     1.0  0.22732  0.50009  0.00450  1.0000
  H   H1339     1.0  0.46156  0.52197  0.00403  1.0000
  C   C1119     1.0  0.25739  0.49851  0.01828  1.0000
  C   C1120     1.0  0.49316  0.61681  0.03239  1.0000
  H   H1340     1.0  0.49587  0.73403  0.01574  1.0000
  C   C1121     1.0  0.49336  0.89860  0.10181  1.0000
  C   C1122     1.0  0.22406  0.58671  0.00143  1.0000
  H   H1341     1.0  0.27559  0.50696  0.00304  1.0000
  C   C1123     1.0  0.35470  0.50728  0.03092  1.0000
  Fe  Fe153     1.0  0.47232  0.59817  0.99616  1.0000
  H   H1342     1.0  0.48239  0.89835  0.29954  1.0000
  H   H1343     1.0  0.00163  0.57195  0.21530  1.0000
  N   N75       1.0  0.03487  0.53721  0.21306  1.0000
  C   C1124     1.0  0.07948  0.49357  0.24920  1.0000
  N   N76       1.0  0.47819  0.98811  0.23242  1.0000
  Fe  Fe154     1.0  0.47819  0.97365  0.36967  1.0000
  S   S299      1.0  0.48249  0.95657  0.27846  1.0000
  C   C1125     1.0  0.46739  0.91361  0.27772  1.0000
  S   S300      1.0  0.46342  0.93401  0.23587  1.0000
  C   C1126     1.0  0.04706  0.53123  0.21438  1.0000
  H   H1344     1.0  0.46597  0.95071  0.34896  1.0000
  H   H1345     1.0  0.46812  0.97596  0.22256  1.0000
  S   S301      1.0  0.02546  0.54911  0.35678  1.0000
  H   H1346     1.0  0.45875  0.91402  0.28342  1.0000
  Fe  Fe155     1.0  0.06354  0.49739  0.27658  1.0000
  C   C1127     1.0  0.46688  0.96706  0.35191  1.0000
  C   C1128     1.0  0.01622  0.50993  0.20700  1.0000
  Fe  Fe156     1.0  0.03287  0.52969  0.35819  1.0000
  C   C1129     1.0  0.00235  0.50936  0.33902  1.0000
  H   H1347     1.0  0.00052  0.51573  0.20033  1.0000
  H   H1348     1.0  0.48904  0.95235  0.33340  1.0000
  H   H1349     1.0  0.49202  0.97246  0.23350  1.0000
  S   S302      1.0  0.01989  0.52681  0.35002  1.0000
  S   S303      1.0  0.45618  0.98400  0.31687  1.0000
  C   C1130     1.0  0.99799  0.56444  0.21650  1.0000
  S   S304      1.0  0.05235  0.52267  0.35322  1.0000
  H   H1350     1.0  0.49397  0.96800  0.31700  1.0000
  C   C1131     1.0  0.06547  0.53885  0.31008  1.0000
  S   S305      1.0  0.06132  0.50967  0.25930  1.0000
  H   H1351     1.0  0.02765  0.52259  0.22411  1.0000
  C   C1132     1.0  0.07719  0.50737  0.32885  1.0000
  S   S306      1.0  0.05404  0.50225  0.29390  1.0000
  C   C1133     1.0  0.00729  0.50825  0.20294  1.0000
  C   C1134     1.0  0.46040  0.97735  0.33027  1.0000
  H   H1352     1.0  0.46096  0.91119  0.26393  1.0000
  S   S307      1.0  0.47089  0.96071  0.36548  1.0000
  H   H1353     1.0  0.04929  0.52526  0.19529  1.0000
  H   H1354     1.0  0.02992  0.65848  0.38973  1.0000
  C   C1135     1.0  0.03221  0.53603  0.20232  1.0000
  Fe  Fe157     1.0  0.47879  0.97556  0.27893  1.0000
  C   C1136     1.0  0.45495  0.94464  0.27107  1.0000
  H   H1355     1.0  0.02396  0.55475  0.21308  1.0000
  C   C1137     1.0  0.48880  0.91330  0.26132  1.0000
  C   C1138     1.0  0.01277  0.58022  0.34708  1.0000
  C   C1139     1.0  0.47917  0.91180  0.25832  1.0000
  N   N77       1.0  0.06309  0.53555  0.28047  1.0000
  H   H1356     1.0  0.06000  0.55332  0.27029  1.0000
  S   S308      1.0  0.45109  0.94922  0.28442  1.0000
  C   C1140     1.0  0.46497  0.96008  0.34553  1.0000
  Fe  Fe158     1.0  0.48160  0.93482  0.22508  1.0000
  C   C1141     1.0  0.00810  0.58806  0.36962  1.0000
  C   C1142     1.0  0.02541  0.50047  0.20976  1.0000
  H   H1357     1.0  0.01589  0.58806  0.34115  1.0000
  C   C1143     1.0  0.46883  0.94115  0.25293  1.0000
  C   C1144     1.0  0.05921  0.51721  0.34039  1.0000
  C   C1145     1.0  0.05319  0.51797  0.33181  1.0000
  C   C1146     1.0  0.05919  0.51312  0.32186  1.0000
  C   C1147     1.0  0.07123  0.50781  0.32041  1.0000
  C   C1148     1.0  0.00128  0.60681  0.37535  1.0000
  C   C1149     1.0  0.07120  0.51194  0.33881  1.0000
  H   H1358     1.0  0.49554  0.91600  0.27442  1.0000
  H   H1359     1.0  0.05461  0.51386  0.31515  1.0000
  H   H1360     1.0  0.08651  0.50344  0.32770  1.0000
  H   H1361     1.0  0.07592  0.51144  0.34533  1.0000
  C   C1150     1.0  0.00643  0.51540  0.32768  1.0000
  H   H1362     1.0  0.48886  0.92794  0.28716  1.0000
  C   C1151     1.0  0.07482  0.50302  0.22680  1.0000
  H   H1363     1.0  0.04873  0.52158  0.21504  1.0000
  S   S309      1.0  0.46660  0.95337  0.30589  1.0000
  H   H1364     1.0  0.48774  0.97892  0.24604  1.0000
  H   H1365     1.0  0.46693  0.98371  0.25582  1.0000
  S   S310      1.0  0.03674  0.50278  0.21436  1.0000
  H   H1366     1.0  0.01420  0.54635  0.20555  1.0000
  H   H1367     1.0  0.03945  0.49437  0.32128  1.0000
  Fe  Fe159     1.0  0.46463  0.97267  0.30373  1.0000
  H   H1368     1.0  0.07304  0.50675  0.21816  1.0000
  S   S311      1.0  0.02256  0.53871  0.28877  1.0000
  S   S312      1.0  0.00874  0.55411  0.38948  1.0000
  H   H1369     1.0  0.45103  0.97334  0.26511  1.0000
  C   C1152     1.0  0.07252  0.52466  0.27989  1.0000
  C   C1153     1.0  0.45466  0.97435  0.25573  1.0000
  C   C1154     1.0  0.01929  0.54450  0.32078  1.0000
  C   C1155     1.0  0.49572  0.95668  0.33335  1.0000
  H   H1370     1.0  0.01610  0.51252  0.28302  1.0000
  C   C1156     1.0  0.02352  0.54026  0.31040  1.0000
  H   H1371     1.0  0.47266  0.94715  0.26616  1.0000
  C   C1157     1.0  0.01033  0.49705  0.28381  1.0000
  C   C1158     1.0  0.01671  0.54361  0.30196  1.0000
  C   C1159     1.0  0.46426  0.91746  0.30063  1.0000
  H   H1372     1.0  0.03211  0.55940  0.37968  1.0000
  Fe  Fe160     1.0  0.01151  0.54573  0.35019  1.0000
  C   C1160     1.0  0.99777  0.49951  0.34081  1.0000
  H   H1373     1.0  0.44267  0.93541  0.25429  1.0000
  C   C1161     1.0  0.46034  0.93801  0.24943  1.0000
  C   C1162     1.0  0.44924  0.93792  0.25691  1.0000
  C   C1163     1.0  0.44659  0.94112  0.26774  1.0000
  H   H1374     1.0  0.05280  0.54949  0.32147  1.0000
  S   S313      1.0  0.49056  0.94852  0.22513  1.0000
  C   C1164     1.0  0.00823  0.55212  0.32275  1.0000
  H   H1375     1.0  0.07131  0.53513  0.31614  1.0000
  H   H1376     1.0  0.05913  0.67749  0.38578  1.0000
  H   H1377     1.0  0.07495  0.54702  0.27159  1.0000
  S   S314      1.0  0.06820  0.50424  0.19754  1.0000
  H   H1378     1.0  0.02608  0.49734  0.26280  1.0000
  C   C1165     1.0  0.45048  0.96930  0.24922  1.0000
  H   H1379     1.0  0.00372  0.56769  0.36756  1.0000
  H   H1380     1.0  0.04223  0.57150  0.38521  1.0000
  H   H1381     1.0  0.02146  0.49693  0.37430  1.0000
  C   C1166     1.0  0.07062  0.50373  0.24738  1.0000
  C   C1167     1.0  0.06847  0.50857  0.23611  1.0000
  H   H1382     1.0  0.99624  0.56701  0.35721  1.0000
  C   C1168     1.0  0.99732  0.49529  0.33117  1.0000
  C   C1169     1.0  0.02676  0.53205  0.22361  1.0000
  H   H1383     1.0  0.06169  0.51646  0.23465  1.0000
  Fe  Fe161     1.0  0.05391  0.49433  0.20417  1.0000
  S   S315      1.0  0.48373  0.97216  0.29615  1.0000
  H   H1384     1.0  0.45263  0.96544  0.23246  1.0000
  C   C1170     1.0  0.05014  0.54799  0.29481  1.0000
  H   H1385     1.0  0.03213  0.53445  0.30887  1.0000
  C   C1171     1.0  0.48441  0.90691  0.29891  1.0000
  H   H1386     1.0  0.04401  0.52238  0.33278  1.0000
  Fe  Fe162     1.0  0.46348  0.95798  0.28767  1.0000
  C   C1172     1.0  0.04235  0.49841  0.24224  1.0000
  C   C1173     1.0  0.46852  0.91192  0.26650  1.0000
  C   C1174     1.0  0.05504  0.54693  0.31310  1.0000
  H   H1387     1.0  0.07363  0.52130  0.27190  1.0000
  C   C1175     1.0  0.04745  0.55160  0.30542  1.0000
  H   H1388     1.0  0.47387  0.93545  0.28710  1.0000
  H   H1389     1.0  0.46712  0.98464  0.35221  1.0000
  C   C1176     1.0  0.03339  0.57078  0.38995  1.0000
  S   S316      1.0  0.00297  0.55764  0.33564  1.0000
  S   S317      1.0  0.00168  0.50421  0.27348  1.0000
  C   C1177     1.0  0.06823  0.53513  0.29952  1.0000
  C   C1178     1.0  0.46193  0.96519  0.33460  1.0000
  C   C1179     1.0  0.47706  0.91511  0.28110  1.0000
  H   H1390     1.0  0.05193  0.67735  0.37483  1.0000
  H   H1391     1.0  0.46129  0.90917  0.30233  1.0000
  H   H1392     1.0  0.02834  0.53296  0.23187  1.0000
  H   H1393     1.0  0.04578  0.54140  0.27636  1.0000
  H   H1394     1.0  0.05441  0.52866  0.27136  1.0000
  S   S318      1.0  0.46753  0.99119  0.37295  1.0000
  C   C1180     1.0  0.06692  0.54502  0.27065  1.0000
  C   C1181     1.0  0.01664  0.50331  0.28686  1.0000
  H   H1395     1.0  0.01615  0.51861  0.20774  1.0000
  H   H1396     1.0  0.04803  0.52770  0.28674  1.0000
  C   C1182     1.0  0.44401  0.96877  0.38471  1.0000
  H   H1397     1.0  0.46047  0.95978  0.32968  1.0000
  C   C1183     1.0  0.00832  0.59548  0.37647  1.0000
  S   S319      1.0  0.99767  0.55612  0.26985  1.0000
  H   H1398     1.0  0.06895  0.54251  0.26202  1.0000
  H   H1399     1.0  0.03034  0.67801  0.38033  1.0000
  Fe  Fe163     1.0  0.00935  0.52319  0.36845  1.0000
  H   H1400     1.0  0.43512  0.97433  0.38406  1.0000
  C   C1184     1.0  0.06048  0.53939  0.29167  1.0000
  H   H1401     1.0  0.02732  0.68919  0.38844  1.0000
  H   H1402     1.0  0.00930  0.51625  0.30921  1.0000
  C   C1185     1.0  0.05242  0.53323  0.27869  1.0000
  C   C1186     1.0  0.04052  0.52966  0.19414  1.0000
  C   C1187     1.0  0.00136  0.55539  0.31436  1.0000
  H   H1403     1.0  0.07635  0.52866  0.29790  1.0000
  H   H1404     1.0  0.47752  0.94089  0.24742  1.0000
  Fe  Fe164     1.0  0.48535  0.95327  0.29661  1.0000
  H   H1405     1.0  0.03930  0.55787  0.30780  1.0000
  H   H1406     1.0  0.03882  0.55419  0.20484  1.0000
  H   H1407     1.0  0.46437  0.96328  0.39015  1.0000
  H   H1408     1.0  0.07051  0.51750  0.28762  1.0000
  C   C1188     1.0  0.46611  0.94456  0.26369  1.0000
  H   H1409     1.0  0.44559  0.96092  0.38096  1.0000
  Fe  Fe165     1.0  0.01462  0.54380  0.37490  1.0000
  S   S320      1.0  0.48517  0.98969  0.26446  1.0000
  H   H1410     1.0  0.43795  0.94114  0.27343  1.0000
  C   C1189     1.0  0.46559  0.97917  0.34742  1.0000
  H   H1411     1.0  0.04391  0.55185  0.28921  1.0000
  H   H1412     1.0  0.03930  0.50301  0.34329  1.0000
  H   H1413     1.0  0.08126  0.52608  0.27956  1.0000
  H   H1414     1.0  0.01744  0.53641  0.22362  1.0000
  H   H1415     1.0  0.49477  0.98625  0.30656  1.0000
  Fe  Fe166     1.0  0.00935  0.54010  0.27849  1.0000
  C   C1190     1.0  0.48906  0.98100  0.23632  1.0000
  H   H1416     1.0  0.03365  0.50226  0.23986  1.0000
  H   H1417     1.0  0.00986  0.52310  0.32635  1.0000
  H   H1418     1.0  0.03538  0.55108  0.22070  1.0000
  H   H1419     1.0  0.02476  0.54213  0.32708  1.0000
  C   C1191     1.0  0.48081  0.99055  0.21938  1.0000
  H   H1420     1.0  0.01933  0.57549  0.35255  1.0000
  S   S321      1.0  0.02305  0.52445  0.37689  1.0000
  S   S322      1.0  0.48644  0.93683  0.20543  1.0000
  S   S323      1.0  0.01516  0.53169  0.26291  1.0000
  C   C1192     1.0  0.99720  0.57296  0.36221  1.0000
  H   H1421     1.0  0.46386  0.91905  0.30934  1.0000
  H   H1422     1.0  0.04518  0.50555  0.24404  1.0000
  N   N78       1.0  0.47625  0.91680  0.29294  1.0000
  S   S324      1.0  0.00641  0.55625  0.23634  1.0000
  H   H1423     1.0  0.45038  0.97406  0.37875  1.0000
  H   H1424     1.0  0.45773  0.92491  0.29667  1.0000
  H   H1425     1.0  0.05369  0.53487  0.20688  1.0000
  H   H1426     1.0  0.47874  0.92968  0.30064  1.0000
  H   H1427     1.0  0.00175  0.49770  0.22681  1.0000
  H   H1428     1.0  0.01306  0.57418  0.34153  1.0000
  C   C1193     1.0  0.02400  0.49758  0.29469  1.0000
  H   H1429     1.0  0.00143  0.61249  0.38075  1.0000
  H   H1430     1.0  0.01363  0.57930  0.37092  1.0000
  H   H1431     1.0  0.04875  0.53232  0.22250  1.0000
  S   S325      1.0  0.99998  0.54198  0.36807  1.0000
  C   C1194     1.0  0.00556  0.55106  0.30400  1.0000
  Fe  Fe167     1.0  0.00199  0.54668  0.25512  1.0000
  C   C1195     1.0  0.02767  0.56392  0.38678  1.0000
  H   H1432     1.0  0.49374  0.90651  0.29416  1.0000
  Fe  Fe168     1.0  0.99978  0.52340  0.27153  1.0000
  C   C1196     1.0  0.47961  0.92791  0.29189  1.0000
  C   C1197     1.0  0.00153  0.50168  0.31974  1.0000
  C   C1198     1.0  0.48783  0.91484  0.27256  1.0000
  H   H1433     1.0  0.48383  0.90775  0.30796  1.0000
  H   H1434     1.0  0.02886  0.50250  0.29696  1.0000
  C   C1199     1.0  0.45553  0.96991  0.23733  1.0000
  Fe  Fe169     1.0  0.47789  0.98792  0.38659  1.0000
  H   H1435     1.0  0.44357  0.96453  0.25350  1.0000
  C   C1200     1.0  0.00606  0.51155  0.31805  1.0000
  S   S326      1.0  0.49225  0.98108  0.35599  1.0000
  C   C1201     1.0  0.00719  0.49700  0.20222  1.0000
  C   C1202     1.0  0.03545  0.49332  0.26304  1.0000
  S   S327      1.0  0.45952  0.97742  0.28642  1.0000
  H   H1436     1.0  0.47978  0.91092  0.24952  1.0000
  C   C1203     1.0  0.05049  0.67997  0.38330  1.0000
  S   S328      1.0  0.07949  0.50238  0.30785  1.0000
  H   H1437     1.0  0.04777  0.68974  0.38169  1.0000
  C   C1204     1.0  0.99848  0.55552  0.22661  1.0000
  H   H1438     1.0  0.03936  0.50032  0.26368  1.0000
  H   H1439     1.0  0.02661  0.49777  0.35184  1.0000
  C   C1205     1.0  0.03006  0.67952  0.38902  1.0000
  H   H1440     1.0  0.04892  0.49598  0.23435  1.0000
  C   C1206     1.0  0.46218  0.98433  0.33672  1.0000
  C   C1207     1.0  0.02096  0.54140  0.19976  1.0000
  H   H1441     1.0  0.00262  0.51238  0.34653  1.0000
  C   C1208     1.0  0.46867  0.98166  0.23804  1.0000
  H   H1442     1.0  0.00127  0.49913  0.31198  1.0000
  H   H1443     1.0  0.48463  0.98236  0.21597  1.0000
  C   C1209     1.0  0.00083  0.59178  0.36137  1.0000
  S   S329      1.0  0.99771  0.51037  0.37282  1.0000
  H   H1444     1.0  0.00031  0.55373  0.29746  1.0000
  C   C1210     1.0  0.46371  0.98032  0.25029  1.0000
  N   N79       1.0  0.00078  0.58367  0.35428  1.0000
  C   C1211     1.0  0.46451  0.97598  0.23176  1.0000
  C   C1212     1.0  0.00428  0.49530  0.37433  1.0000
  H   H1445     1.0  0.00578  0.50206  0.24811  1.0000
  H   H1446     1.0  0.02750  0.50474  0.33659  1.0000
  C   C1213     1.0  0.03261  0.49861  0.34300  1.0000
  H   H1447     1.0  0.01394  0.59239  0.38273  1.0000
  Fe  Fe170     1.0  0.07141  0.49396  0.29884  1.0000
  C   C1214     1.0  0.03323  0.54983  0.21287  1.0000
  S   S330      1.0  0.48740  0.96954  0.38438  1.0000
  H   H1448     1.0  0.01982  0.72399  0.58965  1.0000
  S   S331      1.0  0.40051  0.96849  0.55292  1.0000
  C   C1215     1.0  0.11272  0.81254  0.45106  1.0000
  S   S332      1.0  0.10019  0.75142  0.45025  1.0000
  C   C1216     1.0  0.01149  0.69803  0.58254  1.0000
  S   S333      1.0  0.99750  0.85890  0.48064  1.0000
  H   H1449     1.0  0.34931  0.97544  0.41602  1.0000
  H   H1450     1.0  0.34208  0.98652  0.47642  1.0000
  Fe  Fe171     1.0  0.38104  0.96959  0.55767  1.0000
  H   H1451     1.0  0.09224  0.58708  0.52041  1.0000
  H   H1452     1.0  0.44480  0.95569  0.42050  1.0000
  S   S334      1.0  0.37616  0.98822  0.54796  1.0000
  H   H1453     1.0  0.41062  0.97965  0.48852  1.0000
  H   H1454     1.0  0.25749  0.98270  0.48904  1.0000
  C   C1217     1.0  0.11639  0.74330  0.48445  1.0000
  H   H1455     1.0  0.47416  0.96912  0.41072  1.0000
  H   H1456     1.0  0.03645  0.65571  0.47484  1.0000
  H   H1457     1.0  0.09761  0.68427  0.48017  1.0000
  S   S335      1.0  0.08477  0.72846  0.47462  1.0000
  C   C1218     1.0  0.46630  0.97232  0.41686  1.0000
  C   C1219     1.0  0.05273  0.65415  0.42931  1.0000
  H   H1458     1.0  0.11952  0.66586  0.49131  1.0000
  H   H1459     1.0  0.15468  0.88293  0.53932  1.0000
  C   C1220     1.0  0.28860  0.98311  0.50227  1.0000
  H   H1460     1.0  0.01238  0.53807  0.42249  1.0000
  S   S336      1.0  0.32875  0.92852  0.54343  1.0000
  S   S337      1.0  0.30246  0.92511  0.54351  1.0000
  Fe  Fe172     1.0  0.31881  0.91420  0.54953  1.0000
  S   S338      1.0  0.32721  0.89711  0.54405  1.0000
  Fe  Fe173     1.0  0.31180  0.93970  0.53891  1.0000
  Fe  Fe174     1.0  0.40678  0.96239  0.47621  1.0000
  S   S339      1.0  0.41823  0.94848  0.46656  1.0000
  S   S340      1.0  0.40188  0.95812  0.49593  1.0000
  Fe  Fe175     1.0  0.40192  0.97956  0.45398  1.0000
  S   S341      1.0  0.41302  0.96732  0.44218  1.0000
  C   C1221     1.0  0.13207  0.67598  0.48860  1.0000
  Fe  Fe176     1.0  0.40465  0.95368  0.45588  1.0000
  S   S342      1.0  0.39901  0.93955  0.45170  1.0000
  Fe  Fe177     1.0  0.42579  0.96313  0.45373  1.0000
  S   S343      1.0  0.39241  0.96629  0.46670  1.0000
  S   S344      1.0  0.41551  0.97671  0.46432  1.0000
  Fe  Fe178     1.0  0.33450  0.94181  0.46172  1.0000
  S   S345      1.0  0.32678  0.93698  0.48092  1.0000
  S   S346      1.0  0.34447  0.95607  0.45568  1.0000
  Fe  Fe179     1.0  0.32216  0.92653  0.45545  1.0000
  S   S347      1.0  0.31343  0.92029  0.47421  1.0000
  S   S348      1.0  0.31955  0.92192  0.43986  1.0000
  Fe  Fe180     1.0  0.31014  0.93911  0.47533  1.0000
  S   S349      1.0  0.29356  0.95099  0.48275  1.0000
  Fe  Fe181     1.0  0.33098  0.91876  0.47786  1.0000
  S   S350      1.0  0.34048  0.90295  0.48898  1.0000
  S   S351      1.0  0.31760  0.94543  0.45627  1.0000
  S   S352      1.0  0.34009  0.92343  0.45892  1.0000
  C   C1222     1.0  0.13413  0.86129  0.56967  1.0000
  C   C1223     1.0  0.15988  0.96302  0.51205  1.0000
  C   C1224     1.0  0.12111  0.67750  0.47386  1.0000
  H   H1461     1.0  0.29723  0.99064  0.46146  1.0000
  H   H1462     1.0  0.10437  0.69510  0.49253  1.0000
  C   C1225     1.0  0.11260  0.70233  0.50616  1.0000
  C   C1226     1.0  0.36155  0.99167  0.52478  1.0000
  C   C1227     1.0  0.04150  0.80596  0.43733  1.0000
  H   H1463     1.0  0.17589  0.97597  0.53339  1.0000
  C   C1228     1.0  0.25872  0.98288  0.46626  1.0000
  H   H1464     1.0  0.15365  0.94701  0.51777  1.0000
  H   H1465     1.0  0.00533  0.64274  0.48418  1.0000
  C   C1229     1.0  0.06368  0.59858  0.56007  1.0000
  S   S353      1.0  0.20563  0.94690  0.54443  1.0000
  Fe  Fe182     1.0  0.22479  0.94552  0.54177  1.0000
  S   S354      1.0  0.23395  0.95943  0.53004  1.0000
  Fe  Fe183     1.0  0.07324  0.77281  0.46439  1.0000
  S   S355      1.0  0.08618  0.76060  0.47478  1.0000
  S   S356      1.0  0.05756  0.78626  0.47069  1.0000
  S   S357      1.0  0.07110  0.75883  0.45705  1.0000
  S   S358      1.0  0.08657  0.77911  0.44873  1.0000
  Fe  Fe184     1.0  0.04820  0.74383  0.55773  1.0000
  S   S359      1.0  0.06476  0.74857  0.55746  1.0000
  S   S360      1.0  0.03942  0.73171  0.57295  1.0000
  Fe  Fe185     1.0  0.04578  0.75992  0.53429  1.0000
  S   S361      1.0  0.06211  0.76627  0.53179  1.0000
  S   S362      1.0  0.03309  0.76637  0.52256  1.0000
  Fe  Fe186     1.0  0.06968  0.74714  0.53861  1.0000
  S   S363      1.0  0.08801  0.73831  0.53076  1.0000
  Fe  Fe187     1.0  0.05562  0.76709  0.55076  1.0000
  S   S364      1.0  0.05456  0.78155  0.55941  1.0000
  S   S365      1.0  0.05386  0.74078  0.53944  1.0000
  S   S366      1.0  0.03859  0.76242  0.55265  1.0000
  Fe  Fe188     1.0  0.15272  0.90772  0.52268  1.0000
  S   S367      1.0  0.15662  0.92131  0.50623  1.0000
  S   S368      1.0  0.15870  0.90597  0.53914  1.0000
  Fe  Fe189     1.0  0.13828  0.89756  0.51271  1.0000
  S   S369      1.0  0.14077  0.91047  0.49541  1.0000
  S   S370      1.0  0.12976  0.88182  0.51878  1.0000
  Fe  Fe190     1.0  0.15950  0.90688  0.49692  1.0000
  S   S371      1.0  0.17413  0.90471  0.48099  1.0000
  Fe  Fe191     1.0  0.13768  0.92395  0.50610  1.0000
  S   S372      1.0  0.12782  0.94260  0.50075  1.0000
  S   S373      1.0  0.15739  0.89294  0.51340  1.0000
  S   S374      1.0  0.13341  0.91144  0.52335  1.0000
  Fe  Fe192     1.0  0.10052  0.82185  0.49349  1.0000
  S   S375      1.0  0.08173  0.82083  0.50126  1.0000
  S   S376      1.0  0.11496  0.80652  0.48871  1.0000
  Fe  Fe193     1.0  0.09670  0.84742  0.49545  1.0000
  S   S377      1.0  0.07741  0.84856  0.50333  1.0000
  S   S378      1.0  0.10485  0.86344  0.48985  1.0000
  Fe  Fe194     1.0  0.08305  0.83042  0.51397  1.0000
  S   S379      1.0  0.07532  0.82651  0.53334  1.0000
  Fe  Fe195     1.0  0.07765  0.83889  0.48999  1.0000
  S   S380      1.0  0.06378  0.84448  0.47931  1.0000
  S   S381      1.0  0.10231  0.82999  0.50722  1.0000
  S   S382      1.0  0.09648  0.83918  0.48105  1.0000
  Fe  Fe196     1.0  0.25603  0.91768  0.45973  1.0000
  S   S383      1.0  0.25552  0.93510  0.46288  1.0000
  S   S384      1.0  0.27008  0.91126  0.44498  1.0000
  Fe  Fe197     1.0  0.23455  0.91402  0.47918  1.0000
  S   S385      1.0  0.23223  0.93131  0.48370  1.0000
  S   S386      1.0  0.22273  0.90247  0.49167  1.0000
  Fe  Fe198     1.0  0.23614  0.93844  0.46432  1.0000
  S   S387      1.0  0.22465  0.95547  0.45692  1.0000
  Fe  Fe199     1.0  0.25177  0.92632  0.48184  1.0000
  S   S388      1.0  0.26204  0.92852  0.49343  1.0000
  S   S389      1.0  0.23676  0.92155  0.45981  1.0000
  S   S390      1.0  0.25393  0.90850  0.47866  1.0000
  Fe  Fe200     1.0  0.01088  0.75571  0.45586  1.0000
  H   H1466     1.0  0.32705  0.98002  0.49534  1.0000
  S   S391      1.0  0.00962  0.74143  0.47202  1.0000
  C   C1230     1.0  0.02514  0.55810  0.58918  1.0000
  Fe  Fe201     1.0  0.01177  0.78130  0.44882  1.0000
  S   S392      1.0  0.02581  0.76474  0.44854  1.0000
  H   H1467     1.0  0.05308  0.57386  0.57199  1.0000
  C   C1231     1.0  0.35760  0.92391  0.48391  1.0000
  H   H1468     1.0  0.26058  0.96679  0.49353  1.0000
  H   H1469     1.0  0.03849  0.81539  0.41993  1.0000
  C   C1232     1.0  0.37542  0.93227  0.49733  1.0000
  C   C1233     1.0  0.16323  0.97669  0.55849  1.0000
  H   H1470     1.0  0.35678  0.96092  0.57164  1.0000
  H   H1471     1.0  0.21574  0.98006  0.44824  1.0000
  C   C1234     1.0  0.26600  0.93304  0.41658  1.0000
  H   H1472     1.0  0.41937  0.95559  0.52367  1.0000
  C   C1235     1.0  0.45793  0.95848  0.39671  1.0000
  C   C1236     1.0  0.26839  0.98730  0.51312  1.0000
  C   C1237     1.0  0.19904  0.97259  0.58767  1.0000
  H   H1473     1.0  0.02493  0.63865  0.53407  1.0000
  H   H1474     1.0  0.06068  0.60734  0.44792  1.0000
  H   H1475     1.0  0.04856  0.59783  0.47233  1.0000
  S   S393      1.0  0.01336  0.83454  0.50495  1.0000
  C   C1238     1.0  0.22524  0.97838  0.44627  1.0000
  H   H1476     1.0  0.15320  0.87212  0.56427  1.0000
  H   H1477     1.0  0.04908  0.67504  0.40640  1.0000
  H   H1478     1.0  0.00097  0.70969  0.56446  1.0000
  H   H1479     1.0  0.03025  0.83466  0.42492  1.0000
  S   S394      1.0  0.00046  0.68622  0.44763  1.0000
  C   C1239     1.0  0.27948  0.98060  0.53949  1.0000
  C   C1240     1.0  0.00193  0.80870  0.52806  1.0000
  C   C1241     1.0  0.31674  0.94863  0.41757  1.0000
  S   S395      1.0  0.32315  0.99233  0.44911  1.0000
  C   C1242     1.0  0.05877  0.62444  0.49137  1.0000
  H   H1480     1.0  0.04169  0.79035  0.53737  1.0000
  H   H1481     1.0  0.45677  0.94658  0.48978  1.0000
  C   C1243     1.0  0.00549  0.80411  0.50927  1.0000
  C   C1244     1.0  0.02312  0.54358  0.56443  1.0000
  C   C1245     1.0  0.42064  0.98411  0.57902  1.0000
  H   H1482     1.0  0.17274  0.97989  0.58107  1.0000
  H   H1483     1.0  0.04600  0.61487  0.50283  1.0000
  H   H1484     1.0  0.34916  0.92393  0.50887  1.0000
  H   H1485     1.0  0.06566  0.56839  0.55396  1.0000
  H   H1486     1.0  0.03524  0.60918  0.47177  1.0000
  H   H1487     1.0  0.06091  0.62664  0.49845  1.0000
  C   C1246     1.0  0.36646  0.92642  0.49830  1.0000
  C   C1247     1.0  0.23092  0.98771  0.44067  1.0000
  H   H1488     1.0  0.04153  0.54031  0.44515  1.0000
  H   H1489     1.0  0.14153  0.98377  0.54310  1.0000
  H   H1490     1.0  0.18492  0.96169  0.53739  1.0000
  C   C1248     1.0  0.25177  0.95429  0.56604  1.0000
  C   C1249     1.0  0.18978  0.97377  0.47684  1.0000
  H   H1491     1.0  0.15078  0.88748  0.55805  1.0000
  H   H1492     1.0  0.06819  0.60326  0.45975  1.0000
  H   H1493     1.0  0.12444  0.89137  0.55782  1.0000
  H   H1494     1.0  0.15105  0.99295  0.55195  1.0000
  C   C1250     1.0  0.07293  0.71643  0.42081  1.0000
  C   C1251     1.0  0.07253  0.76347  0.42098  1.0000
  S   S396      1.0  0.12849  0.97885  0.52914  1.0000
  H   H1495     1.0  0.01989  0.72956  0.43824  1.0000
  C   C1252     1.0  0.03329  0.82715  0.43150  1.0000
  H   H1496     1.0  0.13620  0.89725  0.54730  1.0000
  C   C1253     1.0  0.27348  0.94637  0.42938  1.0000
  H   H1497     1.0  0.04548  0.54213  0.39943  1.0000
  N   N80       1.0  0.36734  0.91895  0.49018  1.0000
  H   H1498     1.0  0.03578  0.72792  0.40750  1.0000
  H   H1499     1.0  0.25689  0.94779  0.56053  1.0000
  H   H1500     1.0  0.27306  0.95473  0.55534  1.0000
  Fe  Fe202     1.0  0.04341  0.60253  0.52856  1.0000
  S   S397      1.0  0.02463  0.61126  0.52841  1.0000
  S   S398      1.0  0.05813  0.61198  0.52181  1.0000
  Fe  Fe203     1.0  0.03864  0.57808  0.53718  1.0000
  S   S399      1.0  0.01931  0.58462  0.53747  1.0000
  S   S400      1.0  0.04901  0.56007  0.54417  1.0000
  Fe  Fe204     1.0  0.02493  0.59674  0.52014  1.0000
  S   S401      1.0  0.01549  0.60414  0.50510  1.0000
  Fe  Fe205     1.0  0.02049  0.59859  0.54559  1.0000
  C   C1254     1.0  0.04451  0.63934  0.42646  1.0000
  S   S402      1.0  0.04418  0.58888  0.51905  1.0000
  S   S403      1.0  0.03935  0.59128  0.54647  1.0000
  H   H1501     1.0  0.28325  0.91309  0.55870  1.0000
  H   H1502     1.0  0.42615  0.95109  0.50439  1.0000
  H   H1503     1.0  0.20539  0.96499  0.51625  1.0000
  Fe  Fe206     1.0  0.29661  0.92873  0.56160  1.0000
  C   C1255     1.0  0.42796  0.98962  0.58175  1.0000
  C   C1256     1.0  0.34195  0.97349  0.41364  1.0000
  C   C1257     1.0  0.28659  0.95094  0.58387  1.0000
  C   C1258     1.0  0.05608  0.65521  0.39702  1.0000
  S   S404      1.0  0.01083  0.69341  0.53827  1.0000
  C   C1259     1.0  0.02374  0.69101  0.45957  1.0000
  H   H1504     1.0  0.17322  0.95860  0.56311  1.0000
  C   C1260     1.0  0.08786  0.81596  0.45624  1.0000
  C   C1261     1.0  0.42138  0.94535  0.42182  1.0000
  Fe  Fe207     1.0  0.07306  0.65912  0.53589  1.0000
  S   S405      1.0  0.07350  0.66108  0.51693  1.0000
  S   S406      1.0  0.06193  0.64734  0.54921  1.0000
  Fe  Fe208     1.0  0.09003  0.67511  0.53023  1.0000
  S   S407      1.0  0.09221  0.67796  0.51077  1.0000
  S   S408      1.0  0.10079  0.68320  0.53669  1.0000
  Fe  Fe209     1.0  0.07268  0.68004  0.51519  1.0000
  S   S409      1.0  0.06073  0.69338  0.50439  1.0000
  Fe  Fe210     1.0  0.09295  0.65867  0.51436  1.0000
  S   S410      1.0  0.10695  0.64673  0.50372  1.0000
  S   S411      1.0  0.07036  0.67850  0.53450  1.0000
  S   S412      1.0  0.09261  0.65551  0.53348  1.0000
  H   H1505     1.0  0.37348  0.90285  0.50196  1.0000
  S   S413      1.0  0.00890  0.71226  0.45494  1.0000
  Fe  Fe211     1.0  0.02704  0.59435  0.44337  1.0000
  S   S414      1.0  0.04287  0.59163  0.42875  1.0000
  S   S415      1.0  0.02835  0.58147  0.46062  1.0000
  Fe  Fe212     1.0  0.01504  0.61613  0.42827  1.0000
  H   H1506     1.0  0.17361  0.98651  0.47513  1.0000
  H   H1507     1.0  0.09237  0.59170  0.53313  1.0000
  Fe  Fe213     1.0  0.03020  0.59580  0.41703  1.0000
  H   H1508     1.0  0.04283  0.66756  0.52288  1.0000
  Fe  Fe214     1.0  0.04124  0.61100  0.42549  1.0000
  H   H1509     1.0  0.00810  0.73007  0.53374  1.0000
  S   S416      1.0  0.01431  0.59708  0.43203  1.0000
  S   S417      1.0  0.02633  0.61342  0.44095  1.0000
  H   H1510     1.0  0.16344  0.95003  0.55366  1.0000
  H   H1511     1.0  0.36705  0.90100  0.49108  1.0000
  H   H1512     1.0  0.31609  0.96130  0.56161  1.0000
  H   H1513     1.0  0.30909  0.98878  0.57130  1.0000
  H   H1514     1.0  0.01393  0.64045  0.44535  1.0000
  H   H1515     1.0  0.03218  0.72133  0.44458  1.0000
  H   H1516     1.0  0.38336  0.93176  0.49050  1.0000
  H   H1517     1.0  0.06735  0.61750  0.44999  1.0000
  H   H1518     1.0  0.02713  0.65615  0.55891  1.0000
  S   S418      1.0  0.08500  0.76627  0.42332  1.0000
  S   S419      1.0  0.06108  0.65677  0.45951  1.0000
  S   S420      1.0  0.07808  0.67048  0.46508  1.0000
  Fe  Fe215     1.0  0.08032  0.65562  0.45652  1.0000
  S   S421      1.0  0.09267  0.63843  0.46161  1.0000
  Fe  Fe216     1.0  0.05895  0.67259  0.46644  1.0000
  H   H1519     1.0  0.07557  0.60218  0.54381  1.0000
  C   C1262     1.0  0.01673  0.70081  0.46394  1.0000
  C   C1263     1.0  0.03278  0.68459  0.47634  1.0000
  C   C1264     1.0  0.02498  0.69379  0.48126  1.0000
  C   C1265     1.0  0.01705  0.70204  0.47495  1.0000
  H   H1520     1.0  0.02560  0.69503  0.48950  1.0000
  H   H1521     1.0  0.01162  0.70968  0.47830  1.0000
  C   C1266     1.0  0.04126  0.54882  0.41517  1.0000
  H   H1522     1.0  0.28418  0.97046  0.42560  1.0000
  C   C1267     1.0  0.07106  0.59558  0.54971  1.0000
  C   C1268     1.0  0.44102  0.97221  0.47641  1.0000
  H   H1523     1.0  0.07779  0.57711  0.52068  1.0000
  H   H1524     1.0  0.08422  0.56242  0.54378  1.0000
  H   H1525     1.0  0.33688  0.97771  0.47023  1.0000
  S   S422      1.0  0.05118  0.66862  0.43048  1.0000
  H   H1526     1.0  0.15300  0.96773  0.50731  1.0000
  C   C1269     1.0  0.00577  0.66734  0.41989  1.0000
  C   C1270     1.0  0.01491  0.65771  0.41739  1.0000
  C   C1271     1.0  0.01274  0.64642  0.42014  1.0000
  C   C1272     1.0  0.03545  0.66263  0.54104  1.0000
  H   H1527     1.0  0.11581  0.70225  0.48331  1.0000
  H   H1528     1.0  0.01986  0.63904  0.41827  1.0000
  H   H1529     1.0  0.02892  0.79234  0.43540  1.0000
  H   H1530     1.0  0.40322  0.94567  0.57209  1.0000
  C   C1273     1.0  0.01639  0.57561  0.40531  1.0000
  H   H1531     1.0  0.45871  0.95319  0.47432  1.0000
  C   C1274     1.0  0.04142  0.72508  0.52001  1.0000
  H   H1532     1.0  0.04535  0.72149  0.51194  1.0000
  H   H1533     1.0  0.14768  0.96256  0.54346  1.0000
  H   H1534     1.0  0.01191  0.58017  0.41237  1.0000
  H   H1535     1.0  0.02492  0.57330  0.42656  1.0000
  C   C1275     1.0  0.03298  0.55058  0.42580  1.0000
  C   C1276     1.0  0.10212  0.64245  0.49358  1.0000
  C   C1277     1.0  0.11005  0.63489  0.48658  1.0000
  C   C1278     1.0  0.10691  0.63297  0.47713  1.0000
  C   C1279     1.0  0.09579  0.63851  0.47479  1.0000
  C   C1280     1.0  0.08758  0.64524  0.48238  1.0000
  C   C1281     1.0  0.09080  0.64739  0.49161  1.0000
  H   H1536     1.0  0.11882  0.63099  0.48811  1.0000
  H   H1537     1.0  0.11327  0.62768  0.47132  1.0000
  H   H1538     1.0  0.07879  0.64908  0.48096  1.0000
  H   H1539     1.0  0.08464  0.65323  0.49688  1.0000
  H   H1540     1.0  0.25441  0.99190  0.46770  1.0000
  H   H1541     1.0  0.18333  0.98476  0.54861  1.0000
  S   S423      1.0  0.20999  0.99088  0.57690  1.0000
  C   C1282     1.0  0.36643  0.90688  0.49693  1.0000
  C   C1283     1.0  0.01630  0.56281  0.39292  1.0000
  H   H1542     1.0  0.33143  0.94348  0.42528  1.0000
  C   C1284     1.0  0.40737  0.98591  0.50436  1.0000
  C   C1285     1.0  0.12169  0.85715  0.55567  1.0000
  H   H1543     1.0  0.05228  0.70376  0.56364  1.0000
  S   S424      1.0  0.99862  0.63053  0.42924  1.0000
  C   C1286     1.0  0.02456  0.69327  0.52860  1.0000
  C   C1287     1.0  0.02669  0.69127  0.51731  1.0000
  C   C1288     1.0  0.03774  0.69164  0.50967  1.0000
  C   C1289     1.0  0.04668  0.69366  0.51346  1.0000
  C   C1290     1.0  0.04459  0.69536  0.52482  1.0000
  C   C1291     1.0  0.03351  0.69537  0.53230  1.0000
  H   H1544     1.0  0.01979  0.68961  0.51444  1.0000
  H   H1545     1.0  0.03952  0.68998  0.50099  1.0000
  H   H1546     1.0  0.05146  0.69695  0.52778  1.0000
  H   H1547     1.0  0.03193  0.69689  0.54101  1.0000
  C   C1292     1.0  0.01921  0.59758  0.49290  1.0000
  C   C1293     1.0  0.01390  0.60340  0.48335  1.0000
  C   C1294     1.0  0.01675  0.59858  0.47338  1.0000
  C   C1295     1.0  0.02474  0.58775  0.47300  1.0000
  C   C1296     1.0  0.02995  0.58187  0.48261  1.0000
  C   C1297     1.0  0.02731  0.58683  0.49249  1.0000
  H   H1548     1.0  0.00759  0.61168  0.48366  1.0000
  H   H1549     1.0  0.01257  0.60310  0.46608  1.0000
  H   H1550     1.0  0.03611  0.57347  0.48239  1.0000
  H   H1551     1.0  0.03140  0.58225  0.49983  1.0000
  C   C1298     1.0  0.05952  0.62077  0.53037  1.0000
  C   C1299     1.0  0.05127  0.62263  0.54073  1.0000
  C   C1300     1.0  0.05237  0.63031  0.54695  1.0000
  C   C1301     1.0  0.06155  0.63627  0.54267  1.0000
  C   C1302     1.0  0.07014  0.63379  0.53273  1.0000
  C   C1303     1.0  0.06910  0.62612  0.52655  1.0000
  H   H1552     1.0  0.04395  0.61835  0.54384  1.0000
  H   H1553     1.0  0.04589  0.63195  0.55482  1.0000
  H   H1554     1.0  0.07762  0.63781  0.52974  1.0000
  H   H1555     1.0  0.07564  0.62454  0.51867  1.0000
  H   H1556     1.0  0.30869  0.98683  0.55097  1.0000
  H   H1557     1.0  0.23494  0.96248  0.55411  1.0000
  H   H1558     1.0  0.04265  0.80061  0.45585  1.0000
  C   C1304     1.0  0.27846  0.99158  0.50610  1.0000
  H   H1559     1.0  0.19509  0.98029  0.47324  1.0000
  H   H1560     1.0  0.25684  0.95379  0.57253  1.0000
  C   C1305     1.0  0.11549  0.73731  0.47662  1.0000
  S   S425      1.0  0.02010  0.52656  0.58448  1.0000
  Fe  Fe217     1.0  0.39789  0.97519  0.56915  1.0000
  H   H1561     1.0  0.27170  0.92739  0.42268  1.0000
  C   C1306     1.0  0.04103  0.55066  0.55531  1.0000
  H   H1562     1.0  0.11688  0.85555  0.55020  1.0000
  H   H1563     1.0  0.00224  0.75446  0.58299  1.0000
  C   C1307     1.0  0.14942  0.87605  0.54288  1.0000
  C   C1308     1.0  0.02927  0.55135  0.55570  1.0000
  S   S426      1.0  0.00915  0.75489  0.43834  1.0000
  H   H1564     1.0  0.12514  0.65954  0.46321  1.0000
  H   H1565     1.0  0.02500  0.55764  0.54908  1.0000
  H   H1566     1.0  0.09142  0.71734  0.51105  1.0000
  H   H1567     1.0  0.02072  0.64736  0.48978  1.0000
  C   C1309     1.0  0.05915  0.76714  0.40819  1.0000
  H   H1568     1.0  0.30701  0.97990  0.51511  1.0000
  C   C1310     1.0  0.01079  0.72697  0.52569  1.0000
  C   C1311     1.0  0.05375  0.61814  0.47281  1.0000
  H   H1569     1.0  0.24043  0.92159  0.57622  1.0000
  C   C1312     1.0  0.26919  0.92308  0.56979  1.0000
  C   C1313     1.0  0.26509  0.95097  0.42221  1.0000
  C   C1314     1.0  0.07095  0.81468  0.47254  1.0000
  H   H1570     1.0  0.12615  0.69012  0.45746  1.0000
  S   S427      1.0  0.27783  0.93138  0.57193  1.0000
  C   C1315     1.0  0.05561  0.70880  0.42421  1.0000
  H   H1571     1.0  0.38628  0.91383  0.48526  1.0000
  H   H1572     1.0  0.29337  0.99126  0.57436  1.0000
  H   H1573     1.0  0.35788  0.90668  0.50333  1.0000
  C   C1316     1.0  0.04450  0.62581  0.45633  1.0000
  C   C1317     1.0  0.35787  0.92793  0.58688  1.0000
  C   C1318     1.0  0.37442  0.93896  0.50540  1.0000
  H   H1574     1.0  0.18778  0.92035  0.54903  1.0000
  C   C1319     1.0  0.35450  0.95567  0.56712  1.0000
  H   H1575     1.0  0.04201  0.81578  0.54802  1.0000
  C   C1320     1.0  0.27394  0.91492  0.56256  1.0000
  C   C1321     1.0  0.24989  0.94939  0.41307  1.0000
  H   H1576     1.0  0.13986  0.88212  0.57003  1.0000
  H   H1577     1.0  0.04219  0.62390  0.44893  1.0000
  H   H1578     1.0  0.11915  0.75157  0.48114  1.0000
  C   C1322     1.0  0.25716  0.92513  0.57500  1.0000
  N   N81       1.0  0.01519  0.69596  0.57043  1.0000
  H   H1579     1.0  0.10293  0.67741  0.45659  1.0000
  C   C1323     1.0  0.08849  0.72366  0.45288  1.0000
  C   C1324     1.0  0.43031  0.94762  0.42532  1.0000
  C   C1325     1.0  0.25439  0.91196  0.56476  1.0000
  H   H1580     1.0  0.12718  0.87150  0.54273  1.0000
  H   H1581     1.0  0.46043  0.95662  0.40526  1.0000
  S   S428      1.0  0.03732  0.76235  0.41557  1.0000
  C   C1326     1.0  0.02976  0.65565  0.46024  1.0000
  H   H1582     1.0  0.35807  0.91860  0.47757  1.0000
  H   H1583     1.0  0.09026  0.73232  0.44920  1.0000
  C   C1327     1.0  0.10567  0.82071  0.45769  1.0000
  C   C1328     1.0  0.03236  0.82859  0.44272  1.0000
  C   C1329     1.0  0.02092  0.65311  0.45675  1.0000
  C   C1330     1.0  0.11357  0.73872  0.49648  1.0000
  C   C1331     1.0  0.08675  0.70525  0.44998  1.0000
  C   C1332     1.0  0.01201  0.64616  0.47715  1.0000
  C   C1333     1.0  0.06234  0.61062  0.45487  1.0000
  Fe  Fe218     1.0  0.22922  0.92051  0.55630  1.0000
  C   C1334     1.0  0.05540  0.63137  0.42624  1.0000
  H   H1584     1.0  0.19807  0.93812  0.47006  1.0000
  C   C1335     1.0  0.12194  0.85008  0.56683  1.0000
  H   H1585     1.0  0.07586  0.77211  0.40270  1.0000
  H   H1586     1.0  0.11026  0.65761  0.46754  1.0000
  C   C1336     1.0  0.01069  0.56873  0.40215  1.0000
  C   C1337     1.0  0.05107  0.76220  0.41760  1.0000
  C   C1338     1.0  0.24068  0.97390  0.56681  1.0000
  H   H1587     1.0  0.00110  0.63463  0.45071  1.0000
  C   C1339     1.0  0.13402  0.86869  0.55831  1.0000
  N   N82       1.0  0.11237  0.67359  0.47037  1.0000
  C   C1340     1.0  0.14859  0.97842  0.54738  1.0000
  H   H1588     1.0  0.38868  0.98032  0.43749  1.0000
  H   H1589     1.0  0.19148  0.97419  0.53158  1.0000
  C   C1341     1.0  0.06984  0.76785  0.40989  1.0000
  H   H1590     1.0  0.08055  0.59843  0.52546  1.0000
  C   C1342     1.0  0.12375  0.67257  0.48513  1.0000
  N   N83       1.0  0.25803  0.94336  0.42111  1.0000
  C   C1343     1.0  0.25079  0.93912  0.43277  1.0000
  C   C1344     1.0  0.00815  0.74808  0.48355  1.0000
  C   C1345     1.0  0.45098  0.98844  0.42324  1.0000
  H   H1591     1.0  0.00222  0.66027  0.44598  1.0000
  C   C1346     1.0  0.00482  0.75984  0.50143  1.0000
  C   C1347     1.0  0.01188  0.76327  0.49041  1.0000
  C   C1348     1.0  0.01337  0.75753  0.48144  1.0000
  H   H1592     1.0  0.36638  0.92171  0.57101  1.0000
  C   C1349     1.0  0.25843  0.98323  0.54696  1.0000
  H   H1593     1.0  0.01611  0.77048  0.48873  1.0000
  H   H1594     1.0  0.01863  0.76044  0.47292  1.0000
  C   C1350     1.0  0.00941  0.80728  0.45729  1.0000
  H   H1595     1.0  0.07512  0.80545  0.47623  1.0000
  C   C1351     1.0  0.26826  0.98787  0.54067  1.0000
  C   C1352     1.0  0.43836  0.97366  0.51176  1.0000
  C   C1353     1.0  0.00641  0.82508  0.46408  1.0000
  C   C1354     1.0  0.01122  0.81307  0.46485  1.0000
  H   H1596     1.0  0.37947  0.96890  0.49031  1.0000
  H   H1597     1.0  0.01463  0.68998  0.58894  1.0000
  H   H1598     1.0  0.00823  0.82954  0.46968  1.0000
  H   H1599     1.0  0.01649  0.80826  0.47125  1.0000
  C   C1355     1.0  0.23184  0.96696  0.44947  1.0000
  H   H1600     1.0  0.36996  0.98490  0.52392  1.0000
  C   C1356     1.0  0.24320  0.98554  0.43807  1.0000
  C   C1357     1.0  0.29566  0.95696  0.57880  1.0000
  C   C1358     1.0  0.24975  0.97417  0.44130  1.0000
  C   C1359     1.0  0.24410  0.96491  0.44692  1.0000
  H   H1601     1.0  0.26103  0.92718  0.41545  1.0000
  C   C1360     1.0  0.27496  0.95683  0.58392  1.0000
  H   H1602     1.0  0.25917  0.97258  0.43985  1.0000
  H   H1603     1.0  0.24929  0.95624  0.44929  1.0000
  C   C1361     1.0  0.05004  0.84089  0.48606  1.0000
  C   C1362     1.0  0.04848  0.83250  0.49657  1.0000
  C   C1363     1.0  0.03722  0.83045  0.50217  1.0000
  C   C1364     1.0  0.02750  0.83666  0.49723  1.0000
  C   C1365     1.0  0.02916  0.84469  0.48649  1.0000
  C   C1366     1.0  0.04041  0.84678  0.48090  1.0000
  H   H1604     1.0  0.05586  0.82781  0.50057  1.0000
  H   H1605     1.0  0.03602  0.82419  0.51046  1.0000
  H   H1606     1.0  0.02177  0.84949  0.48257  1.0000
  H   H1607     1.0  0.04158  0.85324  0.47273  1.0000
  C   C1367     1.0  0.12873  0.95245  0.50851  1.0000
  C   C1368     1.0  0.12943  0.94873  0.52032  1.0000
  C   C1369     1.0  0.12927  0.95692  0.52660  1.0000
  C   C1370     1.0  0.12869  0.96879  0.52103  1.0000
  C   C1371     1.0  0.12814  0.97245  0.50919  1.0000
  C   C1372     1.0  0.12811  0.96431  0.50297  1.0000
  H   H1608     1.0  0.12982  0.93960  0.52468  1.0000
  H   H1609     1.0  0.12966  0.95404  0.53577  1.0000
  H   H1610     1.0  0.12742  0.98157  0.50487  1.0000
  H   H1611     1.0  0.12741  0.96725  0.49388  1.0000
  C   C1373     1.0  0.18783  0.90361  0.48382  1.0000
  C   C1374     1.0  0.19711  0.90667  0.47456  1.0000
  C   C1375     1.0  0.20795  0.90622  0.47682  1.0000
  C   C1376     1.0  0.20955  0.90257  0.48835  1.0000
  C   C1377     1.0  0.20038  0.89918  0.49755  1.0000
  C   C1378     1.0  0.18949  0.89984  0.49531  1.0000
  H   H1612     1.0  0.19586  0.90953  0.46564  1.0000
  H   H1613     1.0  0.21506  0.90868  0.46967  1.0000
  H   H1614     1.0  0.20162  0.89627  0.50647  1.0000
  H   H1615     1.0  0.18242  0.89737  0.50248  1.0000
  C   C1379     1.0  0.12248  0.87711  0.51074  1.0000
  C   C1380     1.0  0.11842  0.86667  0.51570  1.0000
  C   C1381     1.0  0.11280  0.86247  0.50953  1.0000
  C   C1382     1.0  0.11125  0.86865  0.49830  1.0000
  C   C1383     1.0  0.11528  0.87912  0.49338  1.0000
  C   C1384     1.0  0.12082  0.88336  0.49957  1.0000
  H   H1616     1.0  0.11964  0.86176  0.52434  1.0000
  H   H1617     1.0  0.10978  0.85439  0.51341  1.0000
  H   H1618     1.0  0.11413  0.88396  0.48469  1.0000
  H   H1619     1.0  0.12375  0.89148  0.49573  1.0000
  C   C1385     1.0  0.09058  0.72288  0.53401  1.0000
  C   C1386     1.0  0.08215  0.71709  0.53391  1.0000
  C   C1387     1.0  0.08506  0.70482  0.53495  1.0000
  C   C1388     1.0  0.09625  0.69832  0.53651  1.0000
  C   C1389     1.0  0.10439  0.70406  0.53726  1.0000
  C   C1390     1.0  0.10166  0.71631  0.53575  1.0000
  H   H1620     1.0  0.07362  0.72211  0.53242  1.0000
  H   H1621     1.0  0.07871  0.70042  0.53442  1.0000
  H   H1622     1.0  0.11302  0.69906  0.53856  1.0000
  H   H1623     1.0  0.10819  0.72071  0.53589  1.0000
  C   C1391     1.0  0.02512  0.73304  0.57176  1.0000
  C   C1392     1.0  0.01714  0.72832  0.58145  1.0000
  C   C1393     1.0  0.00567  0.72925  0.58056  1.0000
  C   C1394     1.0  0.00222  0.73485  0.56996  1.0000
  C   C1395     1.0  0.01021  0.73951  0.56023  1.0000
  C   C1396     1.0  0.02166  0.73867  0.56116  1.0000
  C   C1397     1.0  0.26656  0.90920  0.56023  1.0000
  C   C1398     1.0  0.03921  0.54313  0.40764  1.0000
  H   H1624     1.0  0.00757  0.74374  0.55202  1.0000
  H   H1625     1.0  0.02783  0.74230  0.55366  1.0000
  C   C1399     1.0  0.06073  0.79367  0.55160  1.0000
  C   C1400     1.0  0.06136  0.80135  0.55796  1.0000
  C   C1401     1.0  0.06597  0.81128  0.55219  1.0000
  C   C1402     1.0  0.06992  0.81369  0.53998  1.0000
  C   C1403     1.0  0.06925  0.80606  0.53352  1.0000
  C   C1404     1.0  0.06473  0.79597  0.53936  1.0000
  H   H1626     1.0  0.05830  0.79959  0.56741  1.0000
  H   H1627     1.0  0.06645  0.81713  0.55722  1.0000
  H   H1628     1.0  0.07230  0.80784  0.52410  1.0000
  H   H1629     1.0  0.06445  0.78993  0.53447  1.0000
  H   H1630     1.0  0.12214  0.70068  0.50193  1.0000
  H   H1631     1.0  0.04056  0.78242  0.42777  1.0000
  C   C1405     1.0  0.05080  0.78049  0.48501  1.0000
  C   C1406     1.0  0.03855  0.78230  0.48829  1.0000
  C   C1407     1.0  0.03315  0.77758  0.49977  1.0000
  C   C1408     1.0  0.03996  0.77139  0.50803  1.0000
  C   C1409     1.0  0.05221  0.76938  0.50467  1.0000
  C   C1410     1.0  0.05764  0.77392  0.49314  1.0000
  H   H1632     1.0  0.03326  0.78719  0.48193  1.0000
  H   H1633     1.0  0.02369  0.77882  0.50229  1.0000
  H   H1634     1.0  0.05751  0.76428  0.51091  1.0000
  H   H1635     1.0  0.06710  0.77254  0.49064  1.0000
  C   C1411     1.0  0.11478  0.78028  0.46817  1.0000
  C   C1412     1.0  0.12519  0.78135  0.47006  1.0000
  C   C1413     1.0  0.12499  0.78952  0.47628  1.0000
  C   C1414     1.0  0.11440  0.79691  0.48051  1.0000
  C   C1415     1.0  0.10388  0.79595  0.47864  1.0000
  C   C1416     1.0  0.10404  0.78748  0.47259  1.0000
  H   H1636     1.0  0.13349  0.77583  0.46669  1.0000
  H   H1637     1.0  0.13313  0.79017  0.47775  1.0000
  H   H1638     1.0  0.09568  0.80168  0.48186  1.0000
  H   H1639     1.0  0.09596  0.78671  0.47111  1.0000
  H   H1640     1.0  0.03840  0.66924  0.54316  1.0000
  C   C1417     1.0  0.02541  0.64672  0.54716  1.0000
  C   C1418     1.0  0.05727  0.59076  0.56812  1.0000
  H   H1641     1.0  0.02039  0.64107  0.55407  1.0000
  C   C1419     1.0  0.24152  0.95290  0.51820  1.0000
  C   C1420     1.0  0.25374  0.95107  0.51482  1.0000
  C   C1421     1.0  0.26002  0.94384  0.50690  1.0000
  C   C1422     1.0  0.25405  0.93851  0.50233  1.0000
  C   C1423     1.0  0.24178  0.94091  0.50522  1.0000
  C   C1424     1.0  0.23551  0.94802  0.51323  1.0000
  H   H1642     1.0  0.25836  0.95461  0.51887  1.0000
  H   H1643     1.0  0.26950  0.94224  0.50451  1.0000
  H   H1644     1.0  0.23710  0.93686  0.50178  1.0000
  H   H1645     1.0  0.22604  0.94933  0.51594  1.0000
  H   H1646     1.0  0.05146  0.59322  0.57605  1.0000
  C   C1425     1.0  0.18928  0.91584  0.52222  1.0000
  C   C1426     1.0  0.17902  0.91170  0.52477  1.0000
  C   C1427     1.0  0.17187  0.91064  0.53608  1.0000
  H   H1647     1.0  0.39700  0.93817  0.56553  1.0000
  H   H1648     1.0  0.19489  0.91638  0.51354  1.0000
  H   H1649     1.0  0.17670  0.90922  0.51800  1.0000
  H   H1650     1.0  0.09374  0.57076  0.54491  1.0000
  H   H1651     1.0  0.40497  0.99087  0.42714  1.0000
  H   H1652     1.0  0.38143  0.94323  0.50459  1.0000
  C   C1428     1.0  0.10922  0.72158  0.49300  1.0000
  C   C1429     1.0  0.32551  0.95104  0.42131  1.0000
  H   H1653     1.0  0.43109  0.94446  0.43442  1.0000
  H   H1654     1.0  0.00437  0.81736  0.52426  1.0000
  C   C1430     1.0  0.04786  0.61467  0.48471  1.0000
  C   C1431     1.0  0.06780  0.70701  0.42257  1.0000
  Fe  Fe219     1.0  0.99795  0.84398  0.49644  1.0000
  C   C1432     1.0  0.05981  0.64303  0.39824  1.0000
  C   C1433     1.0  0.30568  0.91909  0.44158  1.0000
  C   C1434     1.0  0.29661  0.92103  0.45140  1.0000
  C   C1435     1.0  0.28569  0.91846  0.45263  1.0000
  C   C1436     1.0  0.28381  0.91405  0.44399  1.0000
  C   C1437     1.0  0.29284  0.91227  0.43412  1.0000
  C   C1438     1.0  0.30372  0.91481  0.43290  1.0000
  H   H1655     1.0  0.29799  0.92444  0.45808  1.0000
  H   H1656     1.0  0.27883  0.91974  0.46036  1.0000
  H   H1657     1.0  0.29146  0.90885  0.42742  1.0000
  H   H1658     1.0  0.31071  0.91327  0.42531  1.0000
  C   C1439     1.0  0.29248  0.96297  0.47083  1.0000
  C   C1440     1.0  0.29440  0.97362  0.47128  1.0000
  C   C1441     1.0  0.29535  0.98259  0.46114  1.0000
  C   C1442     1.0  0.29432  0.98094  0.45057  1.0000
  C   C1443     1.0  0.29196  0.97046  0.45022  1.0000
  C   C1444     1.0  0.29114  0.96145  0.46032  1.0000
  H   H1659     1.0  0.29574  0.97474  0.47928  1.0000
  H   H1660     1.0  0.28863  0.94156  0.58761  1.0000
  H   H1661     1.0  0.29142  0.96906  0.44203  1.0000
  H   H1662     1.0  0.28995  0.95310  0.45987  1.0000
  H   H1663     1.0  0.04925  0.55200  0.41228  1.0000
  H   H1664     1.0  0.11733  0.84298  0.57006  1.0000
  H   H1665     1.0  0.30201  0.97580  0.55008  1.0000
  H   H1666     1.0  0.01028  0.79781  0.50345  1.0000
  H   H1667     1.0  0.06131  0.78579  0.42281  1.0000
  C   C1445     1.0  0.18831  0.95314  0.48468  1.0000
  H   H1668     1.0  0.11781  0.67872  0.45146  1.0000
  H   H1669     1.0  0.27191  0.93582  0.40799  1.0000
  H   H1670     1.0  0.30224  0.97649  0.40794  1.0000
  H   H1671     1.0  0.43770  0.94430  0.48843  1.0000
  C   C1446     1.0  0.38407  0.94416  0.45145  1.0000
  C   C1447     1.0  0.37753  0.93595  0.45266  1.0000
  C   C1448     1.0  0.36530  0.93954  0.45378  1.0000
  C   C1449     1.0  0.35973  0.95137  0.45342  1.0000
  C   C1450     1.0  0.36638  0.95965  0.45155  1.0000
  C   C1451     1.0  0.37853  0.95602  0.45065  1.0000
  H   H1672     1.0  0.38186  0.92678  0.45304  1.0000
  H   H1673     1.0  0.36023  0.93315  0.45500  1.0000
  H   H1674     1.0  0.36213  0.96886  0.45090  1.0000
  H   H1675     1.0  0.38361  0.96243  0.44927  1.0000
  H   H1676     1.0  0.01171  0.67853  0.57666  1.0000
  S   S429      1.0  0.00731  0.60178  0.56224  1.0000
  H   H1677     1.0  0.24452  0.94655  0.43647  1.0000
  C   C1452     1.0  0.33072  0.89902  0.52873  1.0000
  C   C1453     1.0  0.33607  0.88922  0.52372  1.0000
  C   C1454     1.0  0.33894  0.89054  0.51150  1.0000
  C   C1455     1.0  0.33633  0.90165  0.50423  1.0000
  C   C1456     1.0  0.33107  0.91152  0.50919  1.0000
  C   C1457     1.0  0.32829  0.91021  0.52145  1.0000
  H   H1678     1.0  0.33800  0.88058  0.52932  1.0000
  H   H1679     1.0  0.34313  0.88291  0.50769  1.0000
  H   H1680     1.0  0.32937  0.92015  0.50361  1.0000
  H   H1681     1.0  0.32433  0.91783  0.52528  1.0000
  H   H1682     1.0  0.44305  0.97082  0.46728  1.0000
  C   C1458     1.0  0.02911  0.65528  0.54990  1.0000
  H   H1683     1.0  0.06280  0.60714  0.56176  1.0000
  H   H1684     1.0  0.13876  0.86237  0.57553  1.0000
  C   C1459     1.0  0.02089  0.64876  0.48053  1.0000
  C   C1460     1.0  0.13813  0.68428  0.48092  1.0000
  H   H1685     1.0  0.13394  0.67199  0.49724  1.0000
  H   H1686     1.0  0.01409  0.54399  0.56453  1.0000
  C   C1461     1.0  0.09965  0.96761  0.51762  1.0000
  C   C1462     1.0  0.30161  0.98430  0.57459  1.0000
  H   H1687     1.0  0.35482  0.98811  0.52322  1.0000
  C   C1463     1.0  0.28093  0.96869  0.54474  1.0000
  H   H1688     1.0  0.08720  0.71821  0.49791  1.0000
  C   C1464     1.0  0.32554  0.98125  0.53088  1.0000
  H   H1689     1.0  0.00242  0.57777  0.57871  1.0000
  H   H1690     1.0  0.24509  0.97541  0.57293  1.0000
  H   H1691     1.0  0.35866  0.99265  0.53407  1.0000
  C   C1465     1.0  0.31303  0.97696  0.52093  1.0000
  C   C1466     1.0  0.31615  0.96503  0.52609  1.0000
  C   C1467     1.0  0.32398  0.96127  0.53358  1.0000
  C   C1468     1.0  0.32877  0.96933  0.53587  1.0000
  C   C1469     1.0  0.33019  0.97203  0.43333  1.0000
  H   H1692     1.0  0.32648  0.95213  0.53758  1.0000
  H   H1693     1.0  0.33484  0.96631  0.54168  1.0000
  H   H1694     1.0  0.21759  0.98107  0.47043  1.0000
  C   C1470     1.0  0.04524  0.66143  0.39382  1.0000
  C   C1471     1.0  0.40675  0.97830  0.49781  1.0000
  C   C1472     1.0  0.40153  0.96871  0.50343  1.0000
  C   C1473     1.0  0.39645  0.96710  0.51546  1.0000
  C   C1474     1.0  0.39686  0.97481  0.52194  1.0000
  H   H1695     1.0  0.37970  0.92664  0.47553  1.0000
  C   C1475     1.0  0.03828  0.79359  0.52944  1.0000
  H   H1696     1.0  0.39238  0.95972  0.51988  1.0000
  H   H1697     1.0  0.39297  0.97337  0.53122  1.0000
  H   H1698     1.0  0.43523  0.98196  0.40060  1.0000
  H   H1699     1.0  0.18628  0.97054  0.55817  1.0000
  N   N84       1.0  0.44257  0.96090  0.48518  1.0000
  H   H1700     1.0  0.34668  0.93599  0.55145  1.0000
  H   H1701     1.0  0.36548  0.94256  0.54375  1.0000
  H   H1702     1.0  0.11007  0.69368  0.50980  1.0000
  C   C1476     1.0  0.16639  0.96442  0.55876  1.0000
  C   C1477     1.0  0.04656  0.54226  0.56379  1.0000
  H   H1703     1.0  0.23651  0.98261  0.56203  1.0000
  H   H1704     1.0  0.03655  0.65951  0.45367  1.0000
  C   C1478     1.0  0.31478  0.96814  0.56663  1.0000
  C   C1479     1.0  0.00304  0.72156  0.52366  1.0000
  H   H1705     1.0  0.03257  0.74239  0.53147  1.0000
  H   H1706     1.0  0.24364  0.95109  0.57101  1.0000
  H   H1707     1.0  0.24990  0.98916  0.54714  1.0000
  H   H1708     1.0  0.36602  0.96806  0.47913  1.0000
  C   C1480     1.0  0.08928  0.71640  0.44537  1.0000
  H   H1709     1.0  0.41340  0.94752  0.40750  1.0000
  H   H1710     1.0  0.21475  0.97749  0.55946  1.0000
  H   H1711     1.0  0.03427  0.70770  0.42010  1.0000
  C   C1481     1.0  0.37967  0.93305  0.58546  1.0000
  C   C1482     1.0  0.03812  0.66147  0.52942  1.0000
  Fe  Fe220     1.0  0.99871  0.68515  0.53410  1.0000
  H   H1712     1.0  0.10686  0.68979  0.45836  1.0000
  C   C1483     1.0  0.46151  0.96449  0.42678  1.0000
  N   N85       1.0  0.04749  0.71959  0.46959  1.0000
  C   C1484     1.0  0.05523  0.72033  0.45768  1.0000
  C   C1485     1.0  0.05107  0.70761  0.47676  1.0000
  C   C1486     1.0  0.03530  0.72084  0.46859  1.0000
  C   C1487     1.0  0.04825  0.72909  0.47460  1.0000
  C   C1488     1.0  0.04319  0.74103  0.47013  1.0000
  C   C1489     1.0  0.05488  0.72696  0.48323  1.0000
  C   C1490     1.0  0.04459  0.75020  0.47407  1.0000
  C   C1491     1.0  0.05634  0.73622  0.48700  1.0000
  C   C1492     1.0  0.05128  0.74781  0.48239  1.0000
  H   H1713     1.0  0.06431  0.72021  0.45792  1.0000
  H   H1714     1.0  0.05573  0.71286  0.45380  1.0000
  H   H1715     1.0  0.05222  0.72864  0.45151  1.0000
  H   H1716     1.0  0.06054  0.70523  0.47686  1.0000
  H   H1717     1.0  0.04971  0.70064  0.47330  1.0000
  H   H1718     1.0  0.04594  0.70679  0.48601  1.0000
  H   H1719     1.0  0.03222  0.72881  0.46216  1.0000
  H   H1720     1.0  0.03453  0.71339  0.46546  1.0000
  H   H1721     1.0  0.02899  0.72119  0.47720  1.0000
  H   H1722     1.0  0.03828  0.74342  0.46337  1.0000
  H   H1723     1.0  0.05936  0.71823  0.48693  1.0000
  H   H1724     1.0  0.04067  0.75926  0.47051  1.0000
  H   H1725     1.0  0.06181  0.73439  0.49324  1.0000
  H   H1726     1.0  0.05258  0.75497  0.48522  1.0000
  C   C1493     1.0  0.39508  0.94279  0.57279  1.0000
  H   H1727     1.0  0.09199  0.80251  0.44585  1.0000
  C   C1494     1.0  0.05398  0.75731  0.42855  1.0000
  C   C1495     1.0  0.04322  0.65076  0.42788  1.0000
  H   H1728     1.0  0.07170  0.83625  0.45856  1.0000
  C   C1496     1.0  0.16017  0.95139  0.51799  1.0000
  H   H1729     1.0  0.25475  0.95260  0.40400  1.0000
  H   H1730     1.0  0.11842  0.65539  0.47840  1.0000
  H   H1731     1.0  0.02849  0.83713  0.44491  1.0000
  C   C1497     1.0  0.04049  0.80776  0.44867  1.0000
  H   H1732     1.0  0.28707  0.98413  0.53441  1.0000
  C   C1498     1.0  0.05741  0.79445  0.42529  1.0000
  H   H1733     1.0  0.10974  0.82546  0.46117  1.0000
  H   H1734     1.0  0.27473  0.93737  0.43429  1.0000
  H   H1735     1.0  0.04800  0.75301  0.43572  1.0000
  C   C1499     1.0  0.00258  0.62554  0.55288  1.0000
  H   H1736     1.0  0.99735  0.63244  0.47627  1.0000
  C   C1500     1.0  0.03128  0.73107  0.41576  1.0000
  H   H1737     1.0  0.03785  0.67589  0.46189  1.0000
  H   H1738     1.0  0.06124  0.81567  0.47538  1.0000
  N   N86       1.0  0.44566  0.96533  0.39697  1.0000
  H   H1739     1.0  0.14062  0.69565  0.46378  1.0000
  H   H1740     1.0  0.18714  0.98315  0.56228  1.0000
  H   H1741     1.0  0.07315  0.82051  0.47681  1.0000
  H   H1742     1.0  0.09176  0.71950  0.43595  1.0000
  N   N87       1.0  0.29335  0.92058  0.51329  1.0000
  C   C1501     1.0  0.30212  0.92806  0.50876  1.0000
  C   C1502     1.0  0.29926  0.90878  0.51904  1.0000
  C   C1503     1.0  0.28986  0.91950  0.50294  1.0000
  C   C1504     1.0  0.28289  0.92532  0.52183  1.0000
  C   C1505     1.0  0.27317  0.91988  0.52610  1.0000
  C   C1506     1.0  0.28226  0.93498  0.52662  1.0000
  C   C1507     1.0  0.26329  0.92408  0.53429  1.0000
  C   C1508     1.0  0.27242  0.93896  0.53500  1.0000
  C   C1509     1.0  0.26292  0.93358  0.53875  1.0000
  H   H1743     1.0  0.30625  0.92826  0.51577  1.0000
  H   H1744     1.0  0.30939  0.92476  0.50172  1.0000
  H   H1745     1.0  0.29805  0.93724  0.50483  1.0000
  H   H1746     1.0  0.30182  0.90916  0.52703  1.0000
  H   H1747     1.0  0.30745  0.90501  0.51308  1.0000
  H   H1748     1.0  0.29352  0.90239  0.52185  1.0000
  H   H1749     1.0  0.28579  0.92824  0.49805  1.0000
  H   H1750     1.0  0.29754  0.91555  0.49663  1.0000
  H   H1751     1.0  0.28351  0.91381  0.50522  1.0000
  H   H1752     1.0  0.27316  0.91222  0.52327  1.0000
  H   H1753     1.0  0.28935  0.93949  0.52421  1.0000
  H   H1754     1.0  0.25601  0.91973  0.53750  1.0000
  H   H1755     1.0  0.27223  0.94618  0.53866  1.0000
  H   H1756     1.0  0.25531  0.93658  0.54529  1.0000
  N   N88       1.0  0.24003  0.90092  0.51893  1.0000
  C   C1510     1.0  0.24346  0.89160  0.51213  1.0000
  C   C1511     1.0  0.23461  0.91213  0.51178  1.0000
  C   C1512     1.0  0.25097  0.90259  0.52078  1.0000
  C   C1513     1.0  0.23145  0.89764  0.52996  1.0000
  C   C1514     1.0  0.22039  0.89619  0.52958  1.0000
  C   C1515     1.0  0.23371  0.89581  0.54126  1.0000
  C   C1516     1.0  0.21201  0.89341  0.53986  1.0000
  C   C1517     1.0  0.22528  0.89298  0.55148  1.0000
  C   C1518     1.0  0.21443  0.89187  0.55079  1.0000
  H   H1757     1.0  0.23585  0.89049  0.50953  1.0000
  H   H1758     1.0  0.25004  0.89366  0.50382  1.0000
  H   H1759     1.0  0.24729  0.88296  0.51733  1.0000
  H   H1760     1.0  0.22699  0.91143  0.50893  1.0000
  H   H1761     1.0  0.24101  0.91512  0.50368  1.0000
  H   H1762     1.0  0.23132  0.91920  0.51683  1.0000
  H   H1763     1.0  0.25586  0.89435  0.52567  1.0000
  H   H1764     1.0  0.25709  0.90530  0.51228  1.0000
  H   H1765     1.0  0.24899  0.90969  0.52566  1.0000
  H   H1766     1.0  0.21802  0.89749  0.52130  1.0000
  H   H1767     1.0  0.24185  0.89666  0.54249  1.0000
  H   H1768     1.0  0.20350  0.89271  0.53931  1.0000
  H   H1769     1.0  0.22715  0.89190  0.56000  1.0000
  H   H1770     1.0  0.20784  0.88993  0.55874  1.0000
  C   C1519     1.0  0.00422  0.77813  0.57687  1.0000
  H   H1771     1.0  0.03045  0.56407  0.58945  1.0000
  C   C1520     1.0  0.30154  0.98204  0.55548  1.0000
  H   H1772     1.0  0.99882  0.78725  0.48417  1.0000
  H   H1773     1.0  0.30157  0.97989  0.58395  1.0000
  H   H1774     1.0  0.00007  0.63091  0.52906  1.0000
  C   C1521     1.0  0.02887  0.53921  0.41033  1.0000
  C   C1522     1.0  0.30882  0.96938  0.41155  1.0000
  H   H1775     1.0  0.03013  0.67511  0.56399  1.0000
  H   H1776     1.0  0.17003  0.95115  0.48909  1.0000
  H   H1777     1.0  0.46573  0.95523  0.42825  1.0000
  H   H1778     1.0  0.11112  0.72263  0.47422  1.0000
  N   N89       1.0  0.05124  0.61510  0.46293  1.0000
  C   C1523     1.0  0.44592  0.98056  0.43288  1.0000
  C   C1524     1.0  0.09574  0.98572  0.49814  1.0000
  C   C1525     1.0  0.35637  0.92803  0.50759  1.0000
  H   H1779     1.0  0.10065  0.70861  0.48261  1.0000
  H   H1780     1.0  0.06799  0.63841  0.40095  1.0000
  N   N90       1.0  0.34226  0.96887  0.48661  1.0000
  H   H1781     1.0  0.30445  0.95180  0.57911  1.0000
  C   C1526     1.0  0.32968  0.97136  0.49280  1.0000
  H   H1782     1.0  0.44142  0.98014  0.51400  1.0000
  C   C1527     1.0  0.35037  0.96948  0.49339  1.0000
  C   C1528     1.0  0.34672  0.96994  0.50548  1.0000
  C   C1529     1.0  0.36248  0.96889  0.48815  1.0000
  C   C1530     1.0  0.35466  0.97010  0.51177  1.0000
  C   C1531     1.0  0.37030  0.96920  0.49450  1.0000
  C   C1532     1.0  0.36642  0.96980  0.50627  1.0000
  H   H1783     1.0  0.00791  0.55211  0.58299  1.0000
  S   S430      1.0  0.33104  0.99122  0.53451  1.0000
  N   N91       1.0  0.00248  0.64575  0.46112  1.0000
  H   H1784     1.0  0.32770  0.96440  0.50078  1.0000
  H   H1785     1.0  0.32373  0.97174  0.48714  1.0000
  H   H1786     1.0  0.00140  0.80908  0.44299  1.0000
  H   H1787     1.0  0.99956  0.68980  0.57240  1.0000
  H   H1788     1.0  0.46066  0.96059  0.48423  1.0000
  H   H1789     1.0  0.41524  0.94045  0.42817  1.0000
  H   H1790     1.0  0.33780  0.97005  0.51030  1.0000
  H   H1791     1.0  0.44903  0.97570  0.49446  1.0000
  H   H1792     1.0  0.35168  0.97029  0.52103  1.0000
  C   C1533     1.0  0.37214  0.98726  0.43219  1.0000
  H   H1793     1.0  0.37260  0.96986  0.51115  1.0000
  N   N92       1.0  0.25529  0.97390  0.47694  1.0000
  C   C1534     1.0  0.01177  0.79536  0.57538  1.0000
  C   C1535     1.0  0.26121  0.97433  0.48591  1.0000
  C   C1536     1.0  0.25972  0.96211  0.47408  1.0000
  C   C1537     1.0  0.24235  0.97588  0.48103  1.0000
  C   C1538     1.0  0.23508  0.97811  0.47301  1.0000
  C   C1539     1.0  0.23671  0.97453  0.49312  1.0000
  C   C1540     1.0  0.22293  0.97919  0.47680  1.0000
  C   C1541     1.0  0.22459  0.97540  0.49685  1.0000
  C   C1542     1.0  0.21769  0.97782  0.48871  1.0000
  C   C1543     1.0  0.08356  0.70132  0.46217  1.0000
  H   H1794     1.0  0.38811  0.95080  0.57094  1.0000
  H   H1795     1.0  0.03717  0.68712  0.40330  1.0000
  H   H1796     1.0  0.34568  0.96938  0.40588  1.0000
  C   C1544     1.0  0.09755  0.97932  0.51842  1.0000
  H   H1797     1.0  0.06992  0.73505  0.41925  1.0000
  H   H1798     1.0  0.26946  0.95965  0.47182  1.0000
  H   H1799     1.0  0.25681  0.95520  0.48168  1.0000
  H   H1800     1.0  0.25649  0.96159  0.46659  1.0000
  H   H1801     1.0  0.23872  0.97897  0.46374  1.0000
  H   H1802     1.0  0.24143  0.97285  0.49992  1.0000
  H   H1803     1.0  0.39620  0.99019  0.58653  1.0000
  H   H1804     1.0  0.22061  0.97448  0.50615  1.0000
  H   H1805     1.0  0.31679  0.96369  0.57540  1.0000
  N   N93       1.0  0.03480  0.55657  0.43401  1.0000
  C   C1545     1.0  0.03466  0.54857  0.44574  1.0000
  C   C1546     1.0  0.04609  0.56044  0.43011  1.0000
  C   C1547     1.0  0.02520  0.56717  0.43524  1.0000
  H   H1806     1.0  0.03630  0.55276  0.45204  1.0000
  C   C1548     1.0  0.02055  0.54086  0.42062  1.0000
  H   H1807     1.0  0.04719  0.56487  0.43650  1.0000
  H   H1808     1.0  0.04653  0.56696  0.42156  1.0000
  H   H1809     1.0  0.02640  0.57202  0.44121  1.0000
  N   N94       1.0  0.09738  0.77520  0.51259  1.0000
  C   C1549     1.0  0.08931  0.78463  0.50607  1.0000
  C   C1550     1.0  0.10972  0.77544  0.50622  1.0000
  C   C1551     1.0  0.09533  0.76376  0.51248  1.0000
  C   C1552     1.0  0.09537  0.77723  0.52454  1.0000
  C   C1553     1.0  0.09087  0.76940  0.53488  1.0000
  C   C1554     1.0  0.08852  0.77193  0.54597  1.0000
  H   H1810     1.0  0.09136  0.79339  0.50443  1.0000
  H   H1811     1.0  0.08986  0.78300  0.49735  1.0000
  H   H1812     1.0  0.08001  0.78527  0.51107  1.0000
  H   H1813     1.0  0.11180  0.78411  0.50488  1.0000
  H   H1814     1.0  0.11161  0.77367  0.49728  1.0000
  H   H1815     1.0  0.11604  0.76876  0.51112  1.0000
  H   H1816     1.0  0.08603  0.76317  0.51646  1.0000
  H   H1817     1.0  0.09716  0.76239  0.50339  1.0000
  H   H1818     1.0  0.10109  0.75626  0.51734  1.0000
  H   H1819     1.0  0.08894  0.76133  0.53468  1.0000
  H   H1820     1.0  0.08476  0.76602  0.55373  1.0000
  C   C1555     1.0  0.02813  0.64541  0.53555  1.0000
  C   C1556     1.0  0.02635  0.79478  0.53008  1.0000
  C   C1557     1.0  0.04055  0.67753  0.40372  1.0000
  H   H1821     1.0  0.01640  0.56509  0.43896  1.0000
  C   C1558     1.0  0.14626  0.88002  0.56191  1.0000
  C   C1559     1.0  0.00563  0.55555  0.59110  1.0000
  C   C1560     1.0  0.24307  0.96593  0.54998  1.0000
  S   S431      1.0  0.31025  0.95474  0.52343  1.0000
  C   C1561     1.0  0.46105  0.98433  0.41512  1.0000
  C   C1562     1.0  0.06552  0.57680  0.55548  1.0000
  H   H1822     1.0  0.00348  0.62449  0.51648  1.0000
  S   S432      1.0  0.40841  0.96664  0.58337  1.0000
  C   C1563     1.0  0.20602  0.97798  0.57745  1.0000
  C   C1564     1.0  0.09743  0.78760  0.52604  1.0000
  Fe  Fe221     1.0  0.09946  0.76603  0.45858  1.0000
  S   S433      1.0  0.01548  0.79219  0.45893  1.0000
  S   S434      1.0  0.04495  0.67639  0.48216  1.0000
  H   H1823     1.0  0.25624  0.93403  0.43921  1.0000
  C   C1565     1.0  0.99786  0.82563  0.44817  1.0000
  H   H1824     1.0  0.35424  0.95487  0.47870  1.0000
  C   C1566     1.0  0.00241  0.79030  0.57649  1.0000
  H   H1825     1.0  0.27818  0.95819  0.51287  1.0000
  H   H1826     1.0  0.00186  0.56797  0.40692  1.0000
  S   S435      1.0  0.11584  0.76990  0.46010  1.0000
  C   C1567     1.0  0.43005  0.96804  0.52005  1.0000
  H   H1827     1.0  0.05378  0.55288  0.42923  1.0000
  S   S436      1.0  0.44539  0.95863  0.44700  1.0000
  H   H1828     1.0  0.08976  0.70434  0.50814  1.0000
  H   H1829     1.0  0.09474  0.56731  0.53113  1.0000
  C   C1568     1.0  0.02515  0.77642  0.57564  1.0000
  H   H1830     1.0  0.05622  0.80101  0.41704  1.0000
  H   H1831     1.0  0.10058  0.79411  0.51858  1.0000
  H   H1832     1.0  0.01709  0.57950  0.57724  1.0000
  C   C1569     1.0  0.27121  0.96402  0.55139  1.0000
  C   C1570     1.0  0.30851  0.95776  0.41258  1.0000
  H   H1833     1.0  0.44527  0.97453  0.40998  1.0000
  C   C1571     1.0  0.20945  0.97333  0.56740  1.0000
  H   H1834     1.0  0.08237  0.71494  0.41970  1.0000
  H   H1835     1.0  0.04869  0.73849  0.42193  1.0000
  C   C1572     1.0  0.09546  0.98875  0.50873  1.0000
  C   C1573     1.0  0.06928  0.82997  0.45504  1.0000
  C   C1574     1.0  0.07221  0.58454  0.54710  1.0000
  C   C1575     1.0  0.03462  0.65277  0.52630  1.0000
  H   H1836     1.0  0.02475  0.73097  0.53830  1.0000
  H   H1837     1.0  0.04019  0.71756  0.52757  1.0000
  C   C1576     1.0  0.03448  0.68165  0.56411  1.0000
  C   C1577     1.0  0.02605  0.73818  0.53041  1.0000
  C   C1578     1.0  0.18464  0.97013  0.53083  1.0000
  S   S437      1.0  0.08204  0.66672  0.43820  1.0000
  H   H1838     1.0  0.00925  0.62362  0.54526  1.0000
  H   H1839     1.0  0.33698  0.97431  0.43630  1.0000
  C   C1579     1.0  0.09067  0.78217  0.54712  1.0000
  C   C1580     1.0  0.09517  0.78996  0.53718  1.0000
  C   C1581     1.0  0.03750  0.82295  0.54213  1.0000
  H   H1840     1.0  0.09419  0.67240  0.47668  1.0000
  C   C1582     1.0  0.04870  0.78453  0.44438  1.0000
  Fe  Fe222     1.0  0.08562  0.74714  0.46559  1.0000
  C   C1583     1.0  0.08850  0.56991  0.53914  1.0000
  H   H1841     1.0  0.23314  0.96991  0.57224  1.0000
  H   H1842     1.0  0.05226  0.70106  0.42563  1.0000
  H   H1843     1.0  0.10172  0.66930  0.48794  1.0000
  C   C1584     1.0  0.02820  0.69264  0.56705  1.0000
  N   N95       1.0  0.00895  0.80006  0.52078  1.0000
  C   C1585     1.0  0.20261  0.93699  0.47720  1.0000
  H   H1844     1.0  0.20952  0.94213  0.47359  1.0000
  H   H1845     1.0  0.02427  0.81389  0.54331  1.0000
  H   H1846     1.0  0.06165  0.65969  0.39885  1.0000
  C   C1586     1.0  0.02750  0.82187  0.53949  1.0000
  H   H1847     1.0  0.08833  0.82877  0.46554  1.0000
  H   H1848     1.0  0.35211  0.97536  0.46912  1.0000
  C   C1587     1.0  0.16875  0.94544  0.52440  1.0000
  H   H1849     1.0  0.01774  0.74510  0.53037  1.0000
  H   H1850     1.0  0.04302  0.60330  0.45920  1.0000
  H   H1851     1.0  0.01493  0.56878  0.57111  1.0000
  C   C1588     1.0  0.27091  0.96983  0.41743  1.0000
  H   H1852     1.0  0.24555  0.93314  0.43236  1.0000
  C   C1589     1.0  0.20594  0.96329  0.56755  1.0000
  C   C1590     1.0  0.02164  0.79886  0.51984  1.0000
  C   C1591     1.0  0.02961  0.80176  0.50896  1.0000
  C   C1592     1.0  0.00933  0.68685  0.57023  1.0000
  H   H1853     1.0  0.02689  0.80500  0.50070  1.0000
  H   H1854     1.0  0.44691  0.97777  0.47624  1.0000
  C   C1593     1.0  0.18634  0.98018  0.51071  1.0000
  S   S438      1.0  0.00173  0.65860  0.50717  1.0000
  H   H1855     1.0  0.08854  0.78422  0.55572  1.0000
  H   H1856     1.0  0.04966  0.83333  0.53953  1.0000
  H   H1857     1.0  0.11744  0.74109  0.46726  1.0000
  N   N96       1.0  0.03009  0.73373  0.51940  1.0000
  H   H1858     1.0  0.04809  0.72900  0.52127  1.0000
  H   H1859     1.0  0.03982  0.74711  0.50970  1.0000
  C   C1594     1.0  0.10994  0.68019  0.45871  1.0000
  H   H1860     1.0  0.04130  0.60949  0.48727  1.0000
  N   N97       1.0  0.14030  0.87840  0.55353  1.0000
  H   H1861     1.0  0.02345  0.68998  0.45111  1.0000
  H   H1862     1.0  0.20848  0.95995  0.55965  1.0000
  C   C1595     1.0  0.00568  0.78859  0.52645  1.0000
  C   C1596     1.0  0.04155  0.80035  0.50840  1.0000
  H   H1863     1.0  0.09792  0.98088  0.52663  1.0000
  C   C1597     1.0  0.04587  0.79634  0.51860  1.0000
  H   H1864     1.0  0.01110  0.78176  0.52145  1.0000
  H   H1865     1.0  0.41746  0.98772  0.57101  1.0000
  H   H1866     1.0  0.10189  0.95584  0.50644  1.0000
  N   N98       1.0  0.18654  0.96846  0.51877  1.0000
  H   H1867     1.0  0.02161  0.73261  0.41669  1.0000
  H   H1868     1.0  0.34054  0.94941  0.43578  1.0000
  H   H1869     1.0  0.28965  0.96303  0.54354  1.0000
  H   H1870     1.0  0.01021  0.80468  0.57502  1.0000
  C   C1598     1.0  0.00787  0.63705  0.45357  1.0000
  H   H1871     1.0  0.09652  0.79809  0.53808  1.0000
  C   C1599     1.0  0.04184  0.83315  0.53711  1.0000
  H   H1872     1.0  0.06644  0.62864  0.46182  1.0000
  H   H1873     1.0  0.16233  0.88555  0.49089  1.0000
  C   C1600     1.0  0.36450  0.94014  0.51453  1.0000
  C   C1601     1.0  0.03790  0.81605  0.42877  1.0000
  N   N99       1.0  0.33561  0.96572  0.42363  1.0000
  H   H1874     1.0  0.14469  0.68678  0.48359  1.0000
  C   C1602     1.0  0.09532  0.80787  0.44928  1.0000
  H   H1875     1.0  0.31629  0.93957  0.41868  1.0000
  C   C1603     1.0  0.03220  0.74387  0.50954  1.0000
  H   H1876     1.0  0.34495  0.95014  0.49272  1.0000
  Fe  Fe223     1.0  0.20675  0.93798  0.56298  1.0000
  S   S439      1.0  0.05876  0.68538  0.44918  1.0000
  C   C1604     1.0  0.43629  0.95328  0.48276  1.0000
  C   C1605     1.0  0.43831  0.96307  0.49724  1.0000
  S   S440      1.0  0.31225  0.91658  0.56818  1.0000
  H   H1877     1.0  0.27079  0.97373  0.48243  1.0000
  C   C1606     1.0  0.08654  0.58996  0.52851  1.0000
  H   H1878     1.0  0.05143  0.67037  0.55885  1.0000
  H   H1879     1.0  0.04748  0.80239  0.49996  1.0000
  H   H1880     1.0  0.05512  0.79529  0.51809  1.0000
  C   C1607     1.0  0.19848  0.96104  0.51552  1.0000
  C   C1608     1.0  0.02178  0.83101  0.53182  1.0000
  H   H1881     1.0  0.06407  0.79646  0.42865  1.0000
  H   H1882     1.0  0.06554  0.58721  0.52737  1.0000
  H   H1883     1.0  0.32389  0.98040  0.43077  1.0000
  H   H1884     1.0  0.25351  0.93103  0.58100  1.0000
  S   S441      1.0  0.24493  0.90627  0.56036  1.0000
  H   H1885     1.0  0.40131  0.91934  0.57917  1.0000
  C   C1609     1.0  0.99618  0.62900  0.52275  1.0000
  C   C1610     1.0  0.37855  0.91792  0.48117  1.0000
  H   H1886     1.0  0.38526  0.92577  0.56970  1.0000
  H   H1887     1.0  0.19976  0.95215  0.52132  1.0000
  H   H1888     1.0  0.06804  0.57186  0.53392  1.0000
  H   H1889     1.0  0.04838  0.85349  0.53746  1.0000
  S   S442      1.0  0.08811  0.69626  0.44033  1.0000
  H   H1890     1.0  0.01292  0.62882  0.45831  1.0000
  H   H1891     1.0  0.15463  0.89847  0.47496  1.0000
  C   C1611     1.0  0.34394  0.95177  0.57157  1.0000
  H   H1892     1.0  0.20454  0.95957  0.47894  1.0000
  C   C1612     1.0  0.24974  0.91978  0.57231  1.0000
  H   H1893     1.0  0.15562  0.86741  0.54481  1.0000
  C   C1613     1.0  0.06444  0.62822  0.47981  1.0000
  C   C1614     1.0  0.09293  0.71260  0.50399  1.0000
  C   C1615     1.0  0.44255  0.97115  0.50056  1.0000
  C   C1616     1.0  0.04679  0.67880  0.56110  1.0000
  C   C1617     1.0  0.27908  0.96500  0.42450  1.0000
  H   H1894     1.0  0.18351  0.94607  0.53003  1.0000
  C   C1618     1.0  0.03627  0.84262  0.52915  1.0000
  H   H1895     1.0  0.01410  0.83012  0.52960  1.0000
  H   H1896     1.0  0.14555  0.87595  0.53565  1.0000
  H   H1897     1.0  0.17349  0.88319  0.47185  1.0000
  C   C1619     1.0  0.02256  0.54640  0.42830  1.0000
  C   C1620     1.0  0.44414  0.97629  0.40087  1.0000
  H   H1898     1.0  0.02013  0.66418  0.51269  1.0000
  S   S443      1.0  0.30453  0.94440  0.55640  1.0000
  N   N100      1.0  0.10545  0.71028  0.49776  1.0000
  S   S444      1.0  0.00300  0.76741  0.51234  1.0000
  C   C1621     1.0  0.45125  0.96858  0.43471  1.0000
  H   H1899     1.0  0.09836  0.97178  0.48923  1.0000
  C   C1622     1.0  0.32630  0.96280  0.42006  1.0000
  H   H1900     1.0  0.26959  0.97909  0.41320  1.0000
  C   C1623     1.0  0.04819  0.72021  0.42413  1.0000
  C   C1624     1.0  0.35939  0.94530  0.55142  1.0000
  C   C1625     1.0  0.07252  0.57920  0.52925  1.0000
  C   C1626     1.0  0.05822  0.57987  0.56584  1.0000
  H   H1901     1.0  0.05570  0.78551  0.44801  1.0000
  C   C1627     1.0  0.34529  0.95689  0.48436  1.0000
  C   C1628     1.0  0.05077  0.85402  0.52782  1.0000
  H   H1902     1.0  0.05855  0.84680  0.52586  1.0000
  C   C1629     1.0  0.12762  0.86630  0.55146  1.0000
  H   H1903     1.0  0.07086  0.64860  0.43063  1.0000
  C   C1630     1.0  0.15732  0.87915  0.49099  1.0000
  H   H1904     1.0  0.16221  0.87034  0.49489  1.0000
  H   H1905     1.0  0.14855  0.88131  0.49698  1.0000
  H   H1906     1.0  0.03661  0.79737  0.42068  1.0000
  H   H1907     1.0  0.02899  0.55500  0.58083  1.0000
  C   C1631     1.0  0.11674  0.66101  0.46985  1.0000
  H   H1908     1.0  0.11417  0.74342  0.50259  1.0000
  C   C1632     1.0  0.16087  0.95941  0.55336  1.0000
  H   H1909     1.0  0.11143  0.70592  0.51394  1.0000
  H   H1910     1.0  0.02123  0.65510  0.44744  1.0000
  N   N101      1.0  0.03686  0.65227  0.51381  1.0000
  H   H1911     1.0  0.05532  0.64476  0.51289  1.0000
  H   H1912     1.0  0.03236  0.67099  0.50707  1.0000
  C   C1633     1.0  0.34112  0.94458  0.56600  1.0000
  C   C1634     1.0  0.02160  0.72815  0.51752  1.0000
  C   C1635     1.0  0.43001  0.95729  0.50602  1.0000
  C   C1636     1.0  0.06191  0.62527  0.47063  1.0000
  C   C1637     1.0  0.17745  0.96274  0.51836  1.0000
  C   C1638     1.0  0.17721  0.95102  0.52470  1.0000
  H   H1913     1.0  0.02087  0.79231  0.53864  1.0000
  C   C1639     1.0  0.02613  0.84118  0.52662  1.0000
  H   H1914     1.0  0.02739  0.86341  0.53504  1.0000
  H   H1915     1.0  0.04956  0.63283  0.45249  1.0000
  Fe  Fe224     1.0  0.08567  0.76396  0.44214  1.0000
  H   H1916     1.0  0.35778  0.93305  0.47888  1.0000
  H   H1917     1.0  0.03895  0.63352  0.51701  1.0000
  H   H1918     1.0  0.02442  0.64210  0.51509  1.0000
  S   S445      1.0  0.21019  0.91959  0.56028  1.0000
  H   H1919     1.0  0.00029  0.60574  0.52712  1.0000
  C   C1640     1.0  0.09342  0.82245  0.46022  1.0000
  C   C1641     1.0  0.06486  0.63473  0.42781  1.0000
  C   C1642     1.0  0.12744  0.68596  0.46623  1.0000
  H   H1920     1.0  0.03435  0.67307  0.41102  1.0000
  H   H1921     1.0  0.00701  0.78526  0.53555  1.0000
  C   C1643     1.0  0.08554  0.71964  0.46505  1.0000
  N   N102      1.0  0.07985  0.58106  0.53617  1.0000
  H   H1922     1.0  0.20036  0.95991  0.50636  1.0000
  H   H1923     1.0  0.16132  0.97183  0.48314  1.0000
  H   H1924     1.0  0.34770  0.93580  0.52264  1.0000
  C   C1644     1.0  0.43735  0.95835  0.40529  1.0000
  H   H1925     1.0  0.00311  0.80578  0.53723  1.0000
  N   N103      1.0  0.04075  0.85345  0.52344  1.0000
  C   C1645     1.0  0.03124  0.86398  0.52548  1.0000
  H   H1926     1.0  0.05384  0.86232  0.52352  1.0000
  H   H1927     1.0  0.03618  0.62952  0.46213  1.0000
  N   N104      1.0  0.15613  0.87969  0.47901  1.0000
  C   C1646     1.0  0.16816  0.87718  0.47159  1.0000
  C   C1647     1.0  0.15011  0.89191  0.47439  1.0000
  H   H1928     1.0  0.17291  0.86799  0.47463  1.0000
  H   H1929     1.0  0.14085  0.89398  0.47942  1.0000
  N   N105      1.0  0.24903  0.96638  0.55885  1.0000
  C   C1648     1.0  0.01176  0.64829  0.46509  1.0000
  C   C1649     1.0  0.12814  0.85215  0.57381  1.0000
  C   C1650     1.0  0.04942  0.65202  0.50798  1.0000
  C   C1651     1.0  0.03403  0.64179  0.51216  1.0000
  C   C1652     1.0  0.02945  0.66290  0.50781  1.0000
  H   H1930     1.0  0.05192  0.66036  0.50720  1.0000
  C   C1653     1.0  0.34453  0.95525  0.42771  1.0000
  C   C1654     1.0  0.42034  0.94939  0.41016  1.0000
  H   H1931     1.0  0.45933  0.94994  0.39423  1.0000
  C   C1655     1.0  0.09791  0.97397  0.49743  1.0000
  C   C1656     1.0  0.19506  0.96188  0.48019  1.0000
  H   H1932     1.0  0.37889  0.91234  0.47515  1.0000
  H   H1933     1.0  0.12222  0.81093  0.44946  1.0000
  C   C1657     1.0  0.07047  0.81004  0.45484  1.0000
  Fe  Fe225     1.0  0.02265  0.76582  0.43105  1.0000
  H   H1934     1.0  0.04454  0.52840  0.57940  1.0000
  C   C1658     1.0  0.34874  0.94158  0.55575  1.0000
  H   H1935     1.0  0.18717  0.97970  0.50149  1.0000
  C   C1659     1.0  0.01632  0.71815  0.50541  1.0000
  H   H1936     1.0  0.10161  0.96054  0.52501  1.0000
  C   C1660     1.0  0.06591  0.72771  0.42063  1.0000
  C   C1661     1.0  0.04423  0.60595  0.46678  1.0000
  H   H1937     1.0  0.03453  0.87223  0.52190  1.0000
  H   H1938     1.0  0.02163  0.84776  0.52033  1.0000
  H   H1939     1.0  0.24480  0.94338  0.41242  1.0000
  C   C1662     1.0  0.01168  0.57297  0.57885  1.0000
  C   C1663     1.0  0.18207  0.97997  0.55797  1.0000
  H   H1940     1.0  0.34885  0.92400  0.48999  1.0000
  C   C1664     1.0  0.31752  0.97190  0.41530  1.0000
  H   H1941     1.0  0.16810  0.87836  0.46221  1.0000
  H   H1942     1.0  0.14991  0.89353  0.46500  1.0000
  H   H1943     1.0  0.03510  0.82002  0.46005  1.0000
  H   H1944     1.0  0.05188  0.77584  0.44187  1.0000
  H   H1945     1.0  0.02455  0.75144  0.51004  1.0000
  C   C1665     1.0  0.06348  0.64604  0.42951  1.0000
  H   H1946     1.0  0.33812  0.95404  0.57957  1.0000
  S   S446      1.0  0.03560  0.58495  0.40294  1.0000
  H   H1947     1.0  0.19363  0.98401  0.51073  1.0000
  H   H1948     1.0  0.03225  0.72389  0.50084  1.0000
  N   N106      1.0  0.04623  0.79429  0.43423  1.0000
  H   H1949     1.0  0.08084  0.70527  0.47912  1.0000
  H   H1950     1.0  0.27879  0.98420  0.57012  1.0000
  C   C1666     1.0  0.45523  0.95507  0.48330  1.0000
  C   C1667     1.0  0.04481  0.85410  0.51062  1.0000
  C   C1668     1.0  0.13189  0.88965  0.55026  1.0000
  H   H1951     1.0  0.04831  0.86209  0.50592  1.0000
  H   H1952     1.0  0.02398  0.86511  0.52112  1.0000
  H   H1953     1.0  0.24327  0.95694  0.41630  1.0000
  H   H1954     1.0  0.03093  0.70903  0.56888  1.0000
  H   H1955     1.0  0.02967  0.66243  0.49874  1.0000
  C   C1669     1.0  0.15201  0.96641  0.54764  1.0000
  H   H1956     1.0  0.11311  0.79963  0.44191  1.0000
  H   H1957     1.0  0.25760  0.96741  0.41094  1.0000
  H   H1958     1.0  0.03373  0.74188  0.50083  1.0000
  H   H1959     1.0  0.26839  0.98220  0.46376  1.0000
  S   S447      1.0  0.22571  0.93813  0.56053  1.0000
  C   C1670     1.0  0.16850  0.97595  0.57657  1.0000
  S   S448      1.0  0.37640  0.95544  0.55222  1.0000
  C   C1671     1.0  0.42601  0.95978  0.51724  1.0000
  C   C1672     1.0  0.26833  0.97539  0.51554  1.0000
  N   N107      1.0  0.30270  0.97568  0.56759  1.0000
  H   H1960     1.0  0.24043  0.97470  0.54434  1.0000
  C   C1673     1.0  0.10756  0.80620  0.44681  1.0000
  H   H1961     1.0  0.04066  0.78396  0.45154  1.0000
  C   C1674     1.0  0.00136  0.64471  0.42524  1.0000
  S   S449      1.0  0.00982  0.78333  0.43044  1.0000
  H   H1962     1.0  0.05202  0.84637  0.50878  1.0000
  H   H1963     1.0  0.03768  0.85425  0.50649  1.0000
  H   H1964     1.0  0.05950  0.83159  0.45759  1.0000
  C   C1675     1.0  0.14948  0.87132  0.47873  1.0000
  H   H1965     1.0  0.14623  0.86281  0.49754  1.0000
  C   C1676     1.0  0.17076  0.96899  0.48233  1.0000
  H   H1966     1.0  0.03643  0.64129  0.50275  1.0000
  H   H1967     1.0  0.07095  0.63339  0.47794  1.0000
  C   C1677     1.0  0.36237  0.95221  0.55717  1.0000
  H   H1968     1.0  0.09450  0.99224  0.49023  1.0000
  H   H1969     1.0  0.33905  0.95588  0.47976  1.0000
  H   H1970     1.0  0.02101  0.71385  0.42944  1.0000
  H   H1971     1.0  0.03304  0.70518  0.43578  1.0000
  H   H1972     1.0  0.17809  0.98670  0.51333  1.0000
  H   H1973     1.0  0.02604  0.54613  0.44981  1.0000
  C   C1678     1.0  0.02974  0.65349  0.47212  1.0000
  C   C1679     1.0  0.14512  0.86324  0.48891  1.0000
  H   H1974     1.0  0.05146  0.65091  0.49877  1.0000
  C   C1680     1.0  0.14714  0.87113  0.46799  1.0000
  H   H1975     1.0  0.02373  0.65890  0.41352  1.0000
  C   C1681     1.0  0.28845  0.97120  0.50477  1.0000
  S   S450      1.0  0.19373  0.94598  0.57731  1.0000
  C   C1682     1.0  0.05318  0.68673  0.56097  1.0000
  C   C1683     1.0  0.01076  0.70693  0.56229  1.0000
  C   C1684     1.0  0.16835  0.96867  0.51219  1.0000
  H   H1976     1.0  0.24893  0.96013  0.54400  1.0000
  H   H1977     1.0  0.17952  0.93440  0.50044  1.0000
  C   C1685     1.0  0.04027  0.53475  0.57279  1.0000
  C   C1686     1.0  0.25960  0.97119  0.55268  1.0000
  S   S451      1.0  0.03000  0.61520  0.41241  1.0000
  H   H1978     1.0  0.03205  0.73599  0.43580  1.0000
  N   N108      1.0  0.07489  0.81758  0.45955  1.0000
  C   C1687     1.0  0.03188  0.68300  0.46570  1.0000
  H   H1979     1.0  0.15024  0.87694  0.45987  1.0000
  C   C1688     1.0  0.00582  0.71713  0.51358  1.0000
  H   H1980     1.0  0.16876  0.93648  0.52924  1.0000
  C   C1689     1.0  0.35544  0.93480  0.51554  1.0000
  C   C1690     1.0  0.02415  0.72350  0.50735  1.0000
  N   N109      1.0  0.03523  0.72252  0.42604  1.0000
  S   S452      1.0  0.05750  0.61721  0.42389  1.0000
  H   H1981     1.0  0.16751  0.97769  0.50742  1.0000
  H   H1982     1.0  0.19064  0.92322  0.49435  1.0000
  H   H1983     1.0  0.26804  0.95202  0.58784  1.0000
  H   H1984     1.0  0.07333  0.69822  0.42285  1.0000
  H   H1985     1.0  0.31724  0.98103  0.41460  1.0000
  H   H1986     1.0  0.05570  0.54163  0.56346  1.0000
  H   H1987     1.0  0.12812  0.88977  0.54287  1.0000
  C   C1691     1.0  0.34344  0.97747  0.47516  1.0000
  H   H1988     1.0  0.99993  0.71273  0.51221  1.0000
  H   H1989     1.0  0.06272  0.68445  0.55872  1.0000
  C   C1692     1.0  0.19237  0.91917  0.53087  1.0000
  C   C1693     1.0  0.26396  0.96299  0.41629  1.0000
  H   H1990     1.0  0.36384  0.94519  0.52087  1.0000
  H   H1991     1.0  0.03720  0.63679  0.42525  1.0000
  S   S453      1.0  0.32853  0.93872  0.57260  1.0000
  C   C1694     1.0  0.13868  0.85564  0.48832  1.0000
  H   H1992     1.0  0.13509  0.84981  0.49624  1.0000
  S   S454      1.0  0.20467  0.92541  0.52689  1.0000
  H   H1993     1.0  0.07409  0.80056  0.45819  1.0000
  H   H1994     1.0  0.28666  0.94953  0.43609  1.0000
  H   H1995     1.0  0.26324  0.97345  0.57920  1.0000
  Fe  Fe226     1.0  0.32073  0.93211  0.56149  1.0000
  C   C1695     1.0  0.17517  0.91353  0.54490  1.0000
  C   C1696     1.0  0.40258  0.98406  0.51649  1.0000
  H   H1996     1.0  0.32528  0.96662  0.44109  1.0000
  H   H1997     1.0  0.20549  0.92934  0.49925  1.0000
  C   C1697     1.0  0.18591  0.93255  0.49221  1.0000
  C   C1698     1.0  0.03078  0.71182  0.42787  1.0000
  H   H1998     1.0  0.19467  0.94095  0.50520  1.0000
  Fe  Fe227     1.0  0.39547  0.98732  0.54388  1.0000
  C   C1699     1.0  0.14053  0.86360  0.46754  1.0000
  C   C1700     1.0  0.17767  0.97729  0.47785  1.0000
  C   C1701     1.0  0.03502  0.70052  0.56673  1.0000
  H   H1999     1.0  0.03307  0.73986  0.41457  1.0000
  H   H2000     1.0  0.01503  0.70514  0.58338  1.0000
  H   H2001     1.0  0.07197  0.83245  0.44530  1.0000
  H   H2002     1.0  0.08152  0.69278  0.46582  1.0000
  C   C1702     1.0  0.13625  0.85593  0.47771  1.0000
  C   C1703     1.0  0.05374  0.72959  0.42222  1.0000
  H   H2003     1.0  0.16969  0.91267  0.55369  1.0000
  C   C1704     1.0  0.02966  0.72759  0.43661  1.0000
  C   C1705     1.0  0.03611  0.81894  0.45123  1.0000
  C   C1706     1.0  0.11194  0.72662  0.48076  1.0000
  H   H2004     1.0  0.13853  0.86384  0.45933  1.0000
  H   H2005     1.0  0.01844  0.71460  0.49763  1.0000
  C   C1707     1.0  0.99787  0.76079  0.57608  1.0000
  C   C1708     1.0  0.29331  0.96907  0.57323  1.0000
  H   H2006     1.0  0.07331  0.62859  0.42763  1.0000
  H   H2007     1.0  0.18100  0.93306  0.48555  1.0000
  H   H2008     1.0  0.99831  0.61020  0.54047  1.0000
  Fe  Fe228     1.0  0.06241  0.66927  0.44201  1.0000
  H   H2009     1.0  0.06711  0.75372  0.43851  1.0000
  H   H2010     1.0  0.27023  0.90304  0.55450  1.0000
  H   H2011     1.0  0.07271  0.81196  0.44508  1.0000
  H   H2012     1.0  0.01409  0.71443  0.56249  1.0000
  C   C1709     1.0  0.20072  0.93869  0.49697  1.0000
  H   H2013     1.0  0.06072  0.81131  0.45765  1.0000
  C   C1710     1.0  0.28037  0.95328  0.43047  1.0000
  C   C1711     1.0  0.13583  0.68925  0.46977  1.0000
  C   C1712     1.0  0.08320  0.70841  0.46969  1.0000
  H   H2014     1.0  0.13079  0.85037  0.47745  1.0000
  H   H2015     1.0  0.35151  0.95778  0.43014  1.0000
  C   C1713     1.0  0.02852  0.53540  0.57312  1.0000
  C   C1714     1.0  0.10104  0.67501  0.47916  1.0000
  H   H2016     1.0  0.05701  0.77077  0.39965  1.0000
  C   C1715     1.0  0.43814  0.95407  0.41724  1.0000
  C   C1716     1.0  0.17594  0.95708  0.48573  1.0000
  H   H2017     1.0  0.20829  0.97874  0.49161  1.0000
  S   S455      1.0  0.23005  0.92793  0.53719  1.0000
  C   C1717     1.0  0.18539  0.91788  0.54228  1.0000
  H   H2018     1.0  0.29626  0.96487  0.50163  1.0000
  S   S456      1.0  0.99702  0.77215  0.45716  1.0000
  H   H2019     1.0  0.10740  0.72520  0.51016  1.0000
  C   C1718     1.0  0.27829  0.96738  0.51123  1.0000
  Fe  Fe229     1.0  0.07825  0.68175  0.44714  1.0000
  H   H2020     1.0  0.03486  0.65697  0.42789  1.0000
  C   C1719     1.0  0.19871  0.95804  0.57763  1.0000
  C   C1720     1.0  0.00280  0.81354  0.44886  1.0000
  C   C1721     1.0  0.31767  0.98510  0.52341  1.0000
  H   H2021     1.0  0.20753  0.94394  0.49417  1.0000
  H   H2022     1.0  0.20737  0.92765  0.47923  1.0000
  Fe  Fe230     1.0  0.21080  0.92865  0.54130  1.0000
  H   H2023     1.0  0.15913  0.97659  0.58130  1.0000
  C   C1722     1.0  0.06479  0.75778  0.43017  1.0000
  C   C1723     1.0  0.03773  0.79152  0.42931  1.0000
  C   C1724     1.0  0.09983  0.96494  0.50714  1.0000
  C   C1725     1.0  0.10989  0.72813  0.50073  1.0000
  H   H2024     1.0  0.00173  0.70072  0.58533  1.0000
  H   H2025     1.0  0.34899  0.95008  0.42080  1.0000
  N   N110      1.0  0.19417  0.94057  0.48775  1.0000
  C   C1726     1.0  0.00028  0.61649  0.56262  1.0000
  C   C1727     1.0  0.28131  0.97488  0.57372  1.0000
  C   C1728     1.0  0.10666  0.70380  0.48861  1.0000
  S   S457      1.0  0.00878  0.68137  0.41668  1.0000
  C   C1729     1.0  0.04730  0.69758  0.56374  1.0000
  C   C1730     1.0  0.05041  0.61778  0.49381  1.0000
  H   H2026     1.0  0.12833  0.84660  0.58250  1.0000
  H   H2027     1.0  0.03043  0.79231  0.57399  1.0000
  C   C1731     1.0  0.27230  0.96881  0.57897  1.0000
  H   H2028     1.0  0.43814  0.98378  0.43911  1.0000
  H   H2029     1.0  0.26046  0.97240  0.52076  1.0000
  H   H2030     1.0  0.01579  0.54757  0.43610  1.0000
  H   H2031     1.0  0.25644  0.98200  0.45838  1.0000
  N   N111      1.0  0.39121  0.93548  0.58454  1.0000
  C   C1732     1.0  0.37818  0.92782  0.57704  1.0000
  C   C1733     1.0  0.41765  0.97385  0.58654  1.0000
  H   H2032     1.0  0.29321  0.98879  0.55523  1.0000
  S   S458      1.0  0.37875  0.97450  0.57484  1.0000
  H   H2033     1.0  0.00396  0.76044  0.56735  1.0000
  H   H2034     1.0  0.40658  0.99015  0.41237  1.0000
  H   H2035     1.0  0.32166  0.97327  0.56191  1.0000
  H   H2036     1.0  0.37291  0.97983  0.42855  1.0000
  H   H2037     1.0  0.00721  0.81297  0.50471  1.0000
  S   S459      1.0  0.00247  0.66570  0.53627  1.0000
  H   H2038     1.0  0.43182  0.97742  0.47831  1.0000
  H   H2039     1.0  0.03402  0.77105  0.57537  1.0000
  H   H2040     1.0  0.43940  0.95210  0.47352  1.0000
  H   H2041     1.0  0.01819  0.76190  0.57708  1.0000
  C   C1734     1.0  0.02313  0.78843  0.57489  1.0000
  H   H2042     1.0  0.33621  0.98222  0.41094  1.0000
  H   H2043     1.0  0.42654  0.97028  0.52861  1.0000
  H   H2044     1.0  0.30178  0.95578  0.40970  1.0000
  H   H2045     1.0  0.41928  0.98554  0.41877  1.0000
  C   C1735     1.0  0.15413  0.98357  0.55261  1.0000
  C   C1736     1.0  0.42821  0.95576  0.40195  1.0000
  H   H2046     1.0  0.01346  0.70581  0.55307  1.0000
  C   C1737     1.0  0.00129  0.74444  0.49464  1.0000
  C   C1738     1.0  0.38104  0.98751  0.43730  1.0000
  H   H2047     1.0  0.00325  0.67751  0.48676  1.0000
  C   C1739     1.0  0.41087  0.99219  0.41827  1.0000
  C   C1740     1.0  0.04211  0.64242  0.39347  1.0000
  N   N112      1.0  0.16947  0.98182  0.56396  1.0000
  H   H2048     1.0  0.02712  0.53522  0.40423  1.0000
  H   H2049     1.0  0.01166  0.68484  0.56137  1.0000
  H   H2050     1.0  0.41173  0.99310  0.50009  1.0000
  H   H2051     1.0  0.42666  0.95716  0.48413  1.0000
  C   C1741     1.0  0.02783  0.57660  0.39927  1.0000
  C   C1742     1.0  0.99953  0.75040  0.50358  1.0000
  C   C1743     1.0  0.01590  0.77127  0.57661  1.0000
  H   H2052     1.0  0.45069  0.98151  0.39524  1.0000
  C   C1744     1.0  0.36743  0.92536  0.57775  1.0000
  C   C1745     1.0  0.99953  0.83135  0.45593  1.0000
  H   H2053     1.0  0.17296  0.96647  0.57786  1.0000
  H   H2054     1.0  0.29674  0.98562  0.49724  1.0000
  H   H2055     1.0  0.99946  0.72568  0.58809  1.0000
  Fe  Fe231     1.0  0.99905  0.70516  0.44667  1.0000
  H   H2056     1.0  0.02288  0.67581  0.39563  1.0000
  H   H2057     1.0  0.99745  0.64389  0.54513  1.0000
  H   H2058     1.0  0.23070  0.98975  0.52070  1.0000
  H   H2059     1.0  0.26042  0.99297  0.51686  1.0000
  H   H2060     1.0  0.99713  0.80150  0.48635  1.0000
  N   N113      1.0  0.01258  0.56419  0.59004  1.0000
  C   C1746     1.0  0.05280  0.63663  0.39656  1.0000
  H   H2061     1.0  0.05556  0.62713  0.39795  1.0000
  H   H2062     1.0  0.34947  0.92623  0.58722  1.0000
  C   C1747     1.0  0.40007  0.92424  0.58608  1.0000
  C   C1748     1.0  0.03837  0.65464  0.39201  1.0000
  H   H2063     1.0  0.40884  0.92569  0.58563  1.0000
  N   N114      1.0  0.04155  0.67437  0.39248  1.0000
  H   H2064     1.0  0.42697  0.95850  0.39306  1.0000
  H   H2065     1.0  0.99705  0.73726  0.49622  1.0000
  S   S460      1.0  0.99776  0.71117  0.42786  1.0000
  H   H2066     1.0  0.99629  0.78904  0.52690  1.0000
  C   C1749     1.0  0.99604  0.63709  0.55290  1.0000
  H   H2067     1.0  0.03660  0.63737  0.39236  1.0000
  Fe  Fe232     1.0  0.99715  0.69243  0.42946  1.0000
  S   S461      1.0  0.29693  0.99156  0.43763  1.0000
  C   C1750     1.0  0.19524  0.96270  0.58771  1.0000
  C   C1751     1.0  0.99635  0.65671  0.45424  1.0000
  Fe  Fe233     1.0  0.99639  0.77221  0.43890  1.0000
  Fe  Fe234     1.0  0.37574  0.99314  0.56452  1.0000
  C   C1752     1.0  0.42419  0.96953  0.68132  1.0000
  S   S462      1.0  0.07060  0.52774  0.76664  1.0000
  H   H2068     1.0  0.06124  0.56146  0.68284  1.0000
  H   H2069     1.0  0.00862  0.49506  0.67890  1.0000
  S   S463      1.0  0.09045  0.54030  0.73827  1.0000
  C   C1753     1.0  0.05342  0.55766  0.78275  1.0000
  H   H2070     1.0  0.03386  0.53757  0.70490  1.0000
  S   S464      1.0  0.08934  0.50668  0.75476  1.0000
  C   C1754     1.0  0.49505  0.99050  0.76377  1.0000
  C   C1755     1.0  0.06768  0.56723  0.65939  1.0000
  H   H2071     1.0  0.07679  0.55644  0.67807  1.0000
  C   C1756     1.0  0.47158  0.92628  0.77488  1.0000
  C   C1757     1.0  0.42615  0.97584  0.68835  1.0000
  H   H2072     1.0  0.06352  0.58129  0.76160  1.0000
  S   S465      1.0  0.47271  0.95787  0.63939  1.0000
  C   C1758     1.0  0.03204  0.50487  0.71302  1.0000
  H   H2073     1.0  0.03398  0.49714  0.65786  1.0000
  H   H2074     1.0  0.08167  0.50678  0.64610  1.0000
  H   H2075     1.0  0.06800  0.54593  0.68423  1.0000
  C   C1759     1.0  0.07627  0.54649  0.66138  1.0000
  H   H2076     1.0  0.02089  0.52765  0.67765  1.0000
  Fe  Fe235     1.0  0.07367  0.51457  0.67020  1.0000
  S   S466      1.0  0.46790  0.91883  0.74137  1.0000
  H   H2077     1.0  0.47323  0.94391  0.68123  1.0000
  H   H2078     1.0  0.48141  0.97358  0.66556  1.0000
  C   C1760     1.0  0.46871  0.96492  0.75723  1.0000
  C   C1761     1.0  0.09126  0.53537  0.70213  1.0000
  C   C1762     1.0  0.03573  0.54887  0.67703  1.0000
  H   H2079     1.0  0.08505  0.54742  0.66163  1.0000
  H   H2080     1.0  0.48006  0.93982  0.76330  1.0000
  H   H2081     1.0  0.47467  0.96091  0.76340  1.0000
  C   C1763     1.0  0.05668  0.55731  0.76223  1.0000
  H   H2082     1.0  0.02440  0.54078  0.76510  1.0000
  C   C1764     1.0  0.03648  0.52392  0.78988  1.0000
  H   H2083     1.0  0.99759  0.50348  0.65692  1.0000
  S   S467      1.0  0.01061  0.53669  0.70494  1.0000
  C   C1765     1.0  0.49436  0.99062  0.65446  1.0000
  H   H2084     1.0  0.48976  0.98161  0.67770  1.0000
  H   H2085     1.0  0.05493  0.51613  0.78540  1.0000
  S   S468      1.0  0.09821  0.52205  0.76791  1.0000
  H   H2086     1.0  0.49544  0.95191  0.66459  1.0000
  C   C1766     1.0  0.03924  0.55214  0.77600  1.0000
  H   H2087     1.0  0.02644  0.55019  0.59636  1.0000
  C   C1767     1.0  0.47568  0.93308  0.76392  1.0000
  C   C1768     1.0  0.36973  0.93557  0.59468  1.0000
  H   H2088     1.0  0.09032  0.55666  0.76196  1.0000
  H   H2089     1.0  0.99603  0.55956  0.59280  1.0000
  H   H2090     1.0  0.00878  0.55230  0.71965  1.0000
  H   H2091     1.0  0.07638  0.54693  0.65210  1.0000
  Fe  Fe236     1.0  0.08642  0.51870  0.68628  1.0000
  H   H2092     1.0  0.49011  0.99092  0.71787  1.0000
  H   H2093     1.0  0.00721  0.54766  0.59828  1.0000
  H   H2094     1.0  0.47162  0.97291  0.75148  1.0000
  H   H2095     1.0  0.38491  0.98914  0.59964  1.0000
  H   H2096     1.0  0.04815  0.54947  0.68588  1.0000
  C   C1769     1.0  0.06061  0.55951  0.77121  1.0000
  C   C1770     1.0  0.46009  0.95989  0.67805  1.0000
  H   H2097     1.0  0.01721  0.49680  0.79027  1.0000
  H   H2098     1.0  0.05821  0.55559  0.64773  1.0000
  S   S469      1.0  0.03223  0.50431  0.63237  1.0000
  H   H2099     1.0  0.49136  0.98123  0.73963  1.0000
  C   C1771     1.0  0.02395  0.51793  0.78142  1.0000
  H   H2100     1.0  0.44646  0.97797  0.77667  1.0000
  H   H2101     1.0  0.08224  0.54579  0.77080  1.0000
  C   C1772     1.0  0.09406  0.54526  0.70340  1.0000
  H   H2102     1.0  0.09662  0.55185  0.69573  1.0000
  H   H2103     1.0  0.99803  0.52617  0.63842  1.0000
  H   H2104     1.0  0.03112  0.54925  0.77792  1.0000
  S   S470      1.0  0.08812  0.50034  0.69726  1.0000
  S   S471      1.0  0.09262  0.51330  0.66897  1.0000
  Fe  Fe237     1.0  0.46487  0.97495  0.62820  1.0000
  C   C1773     1.0  0.39106  0.94187  0.59341  1.0000
  H   H2105     1.0  0.03432  0.52645  0.65894  1.0000
  C   C1774     1.0  0.04632  0.51670  0.78416  1.0000
  H   H2106     1.0  0.44340  0.95864  0.77557  1.0000
  H   H2107     1.0  0.07599  0.56930  0.65952  1.0000
  H   H2108     1.0  0.44865  0.98795  0.68573  1.0000
  S   S472      1.0  0.47006  0.98007  0.60847  1.0000
  C   C1775     1.0  0.46762  0.95842  0.65430  1.0000
  C   C1776     1.0  0.43473  0.98378  0.73794  1.0000
  H   H2109     1.0  0.04214  0.51261  0.65550  1.0000
  H   H2110     1.0  0.04072  0.52864  0.75314  1.0000
  C   C1777     1.0  0.00288  0.55726  0.72634  1.0000
  C   C1778     1.0  0.09370  0.54663  0.71455  1.0000
  S   S473      1.0  0.47723  0.93110  0.70611  1.0000
  Fe  Fe238     1.0  0.07279  0.50846  0.76874  1.0000
  S   S474      1.0  0.48488  0.95657  0.69999  1.0000
  C   C1779     1.0  0.46580  0.91760  0.77553  1.0000
  C   C1780     1.0  0.46449  0.91547  0.76524  1.0000
  C   C1781     1.0  0.46877  0.92218  0.75425  1.0000
  H   H2111     1.0  0.46252  0.91233  0.78399  1.0000
  C   C1782     1.0  0.42201  0.96925  0.59686  1.0000
  H   H2112     1.0  0.01034  0.54080  0.65976  1.0000
  H   H2113     1.0  0.46029  0.90854  0.76578  1.0000
  S   S475      1.0  0.06395  0.52540  0.65624  1.0000
  C   C1783     1.0  0.47061  0.98020  0.72413  1.0000
  H   H2114     1.0  0.03275  0.50547  0.77036  1.0000
  H   H2115     1.0  0.09597  0.55428  0.71542  1.0000
  H   H2116     1.0  0.03848  0.52621  0.73434  1.0000
  N   N115      1.0  0.07176  0.56343  0.76840  1.0000
  H   H2117     1.0  0.01533  0.51826  0.78043  1.0000
  H   H2118     1.0  0.08085  0.55228  0.75603  1.0000
  C   C1784     1.0  0.02196  0.51375  0.71148  1.0000
  H   H2119     1.0  0.04949  0.53112  0.63995  1.0000
  C   C1785     1.0  0.06531  0.50842  0.62680  1.0000
  C   C1786     1.0  0.05206  0.55400  0.65606  1.0000
  C   C1787     1.0  0.04122  0.55226  0.65590  1.0000
  C   C1788     1.0  0.03304  0.54980  0.66636  1.0000
  H   H2120     1.0  0.03925  0.55266  0.64762  1.0000
  H   H2121     1.0  0.02462  0.54856  0.66620  1.0000
  H   H2122     1.0  0.47717  0.93660  0.74528  1.0000
  H   H2123     1.0  0.04281  0.52204  0.67545  1.0000
  H   H2124     1.0  0.43261  0.97119  0.60756  1.0000
  H   H2125     1.0  0.49181  0.98825  0.78796  1.0000
  H   H2126     1.0  0.06788  0.56804  0.65000  1.0000
  C   C1789     1.0  0.04499  0.51027  0.77689  1.0000
  N   N116      1.0  0.06653  0.55538  0.66661  1.0000
  Fe  Fe239     1.0  0.47440  0.93163  0.72517  1.0000
  S   S476      1.0  0.01159  0.51636  0.61771  1.0000
  C   C1790     1.0  0.47632  0.98270  0.66296  1.0000
  Fe  Fe240     1.0  0.02228  0.49818  0.62320  1.0000
  C   C1791     1.0  0.07518  0.49471  0.73375  1.0000
  Fe  Fe241     1.0  0.02295  0.52252  0.62529  1.0000
  H   H2127     1.0  0.06717  0.57289  0.78226  1.0000
  C   C1792     1.0  0.04615  0.55370  0.76463  1.0000
  H   H2128     1.0  0.47957  0.94238  0.66028  1.0000
  H   H2129     1.0  0.07934  0.57786  0.75713  1.0000
  C   C1793     1.0  0.07431  0.56595  0.77859  1.0000
  H   H2130     1.0  0.19636  0.97622  0.59545  1.0000
  C   C1794     1.0  0.00394  0.53681  0.65867  1.0000
  S   S477      1.0  0.03611  0.49879  0.60639  1.0000
  H   H2131     1.0  0.44115  0.96730  0.73247  1.0000
  C   C1795     1.0  0.01135  0.54405  0.74239  1.0000
  C   C1796     1.0  0.44203  0.98524  0.75394  1.0000
  Fe  Fe242     1.0  0.08080  0.52253  0.78070  1.0000
  C   C1797     1.0  0.45640  0.98917  0.71193  1.0000
  Fe  Fe243     1.0  0.49204  0.96360  0.77566  1.0000
  H   H2132     1.0  0.44209  0.99086  0.75939  1.0000
  H   H2133     1.0  0.46821  0.97260  0.71122  1.0000
  S   S478      1.0  0.08151  0.50330  0.78393  1.0000
  H   H2134     1.0  0.45453  0.97447  0.65120  1.0000
  H   H2135     1.0  0.39977  0.94390  0.59224  1.0000
  C   C1798     1.0  0.46917  0.95058  0.67468  1.0000
  H   H2136     1.0  0.05145  0.52188  0.70829  1.0000
  C   C1799     1.0  0.42930  0.97482  0.59962  1.0000
  N   N117      1.0  0.03226  0.51146  0.67336  1.0000
  H   H2137     1.0  0.04904  0.52106  0.62527  1.0000
  N   N118      1.0  0.48266  0.99162  0.66262  1.0000
  H   H2138     1.0  0.07096  0.57281  0.75055  1.0000
  H   H2139     1.0  0.01371  0.51148  0.71248  1.0000
  C   C1800     1.0  0.00539  0.53356  0.64808  1.0000
  C   C1801     1.0  0.02347  0.53986  0.75681  1.0000
  C   C1802     1.0  0.47281  0.94975  0.66283  1.0000
  Fe  Fe244     1.0  0.48138  0.95475  0.71944  1.0000
  H   H2140     1.0  0.41976  0.96132  0.60274  1.0000
  N   N119      1.0  0.45628  0.96786  0.76354  1.0000
  C   C1803     1.0  0.42358  0.98661  0.66541  1.0000
  H   H2141     1.0  0.47415  0.98376  0.65437  1.0000
  C   C1804     1.0  0.42984  0.98836  0.70324  1.0000
  Fe  Fe245     1.0  0.08800  0.52560  0.75406  1.0000
  H   H2142     1.0  0.06189  0.55810  0.75333  1.0000
  C   C1805     1.0  0.02110  0.51809  0.67957  1.0000
  C   C1806     1.0  0.03137  0.53159  0.73958  1.0000
  C   C1807     1.0  0.42297  0.97488  0.66987  1.0000
  C   C1808     1.0  0.06810  0.55482  0.67846  1.0000
  C   C1809     1.0  0.05507  0.55327  0.66675  1.0000
  S   S479      1.0  0.01787  0.53550  0.63689  1.0000
  C   C1810     1.0  0.03379  0.51070  0.77570  1.0000
  C   C1811     1.0  0.08171  0.55418  0.76411  1.0000
  H   H2143     1.0  0.06020  0.57415  0.66268  1.0000
  H   H2144     1.0  0.07875  0.50065  0.73665  1.0000
  C   C1812     1.0  0.04659  0.55050  0.67730  1.0000
  H   H2145     1.0  0.99667  0.58216  0.62906  1.0000
  C   C1813     1.0  0.03466  0.50096  0.74723  1.0000
  S   S480      1.0  0.49155  0.93619  0.72307  1.0000
  C   C1814     1.0  0.35901  0.93303  0.59531  1.0000
  H   H2146     1.0  0.07550  0.53746  0.66626  1.0000
  C   C1815     1.0  0.02531  0.52462  0.78842  1.0000
  H   H2147     1.0  0.02934  0.54684  0.68514  1.0000
  C   C1816     1.0  0.02271  0.52552  0.70817  1.0000
  H   H2148     1.0  0.02637  0.51710  0.65705  1.0000
  Fe  Fe246     1.0  0.09804  0.50322  0.76976  1.0000
  C   C1817     1.0  0.42688  0.98783  0.68404  1.0000
  S   S481      1.0  0.45544  0.96131  0.69275  1.0000
  Fe  Fe247     1.0  0.49350  0.93750  0.70389  1.0000
  C   C1818     1.0  0.45479  0.96839  0.66953  1.0000
  C   C1819     1.0  0.09063  0.53808  0.72454  1.0000
  C   C1820     1.0  0.08772  0.52817  0.72335  1.0000
  H   H2149     1.0  0.49322  0.97722  0.64610  1.0000
  H   H2150     1.0  0.08265  0.56901  0.77615  1.0000
  H   H2151     1.0  0.45818  0.95254  0.77773  1.0000
  C   C1821     1.0  0.04331  0.51959  0.70892  1.0000
  H   H2152     1.0  0.00716  0.56417  0.72648  1.0000
  S   S482      1.0  0.48232  0.96864  0.72769  1.0000
  C   C1822     1.0  0.47409  0.93120  0.75365  1.0000
  C   C1823     1.0  0.48388  0.99020  0.67479  1.0000
  C   C1824     1.0  0.99966  0.58614  0.61019  1.0000
  H   H2153     1.0  0.42406  0.96030  0.68465  1.0000
  S   S483      1.0  0.05731  0.50183  0.76918  1.0000
  C   C1825     1.0  0.03332  0.52846  0.70712  1.0000
  Fe  Fe248     1.0  0.45103  0.98968  0.60957  1.0000
  C   C1826     1.0  0.46683  0.98991  0.72939  1.0000
  H   H2154     1.0  0.05068  0.50771  0.67308  1.0000
  S   S484      1.0  0.48572  0.98142  0.76493  1.0000
  C   C1827     1.0  0.03381  0.51709  0.66067  1.0000
  H   H2155     1.0  0.42960  0.98783  0.73129  1.0000
  H   H2156     1.0  0.42183  0.96986  0.66433  1.0000
  H   H2157     1.0  0.01341  0.51715  0.67696  1.0000
  C   C1828     1.0  0.05655  0.52371  0.63793  1.0000
  C   C1829     1.0  0.45559  0.97546  0.77151  1.0000
  S   S485      1.0  0.06742  0.52134  0.68671  1.0000
  H   H2158     1.0  0.45329  0.95825  0.74691  1.0000
  H   H2159     1.0  0.07548  0.55790  0.78571  1.0000
  C   C1830     1.0  0.44819  0.96714  0.74692  1.0000
  C   C1831     1.0  0.07134  0.57432  0.75903  1.0000
  S   S486      1.0  0.09195  0.53412  0.68789  1.0000
  C   C1832     1.0  0.07465  0.50998  0.64140  1.0000
  H   H2160     1.0  0.42759  0.97096  0.69691  1.0000
  H   H2161     1.0  0.35146  0.93517  0.60229  1.0000
  C   C1833     1.0  0.46528  0.97985  0.71551  1.0000
  H   H2162     1.0  0.08527  0.52158  0.73105  1.0000
  N   N120      1.0  0.00033  0.54954  0.73816  1.0000
  C   C1834     1.0  0.08799  0.52682  0.71212  1.0000
  Fe  Fe249     1.0  0.46834  0.95032  0.70382  1.0000
  S   S487      1.0  0.46400  0.95016  0.72304  1.0000
  H   H2163     1.0  0.08209  0.49773  0.62987  1.0000
  H   H2164     1.0  0.08579  0.51918  0.71117  1.0000
  H   H2165     1.0  0.05587  0.55862  0.79024  1.0000
  S   S488      1.0  0.03657  0.52522  0.60857  1.0000
  H   H2166     1.0  0.00098  0.53492  0.73093  1.0000
  H   H2167     1.0  0.45884  0.98355  0.76655  1.0000
  C   C1835     1.0  0.00110  0.49391  0.65985  1.0000
  C   C1836     1.0  0.45860  0.96774  0.65769  1.0000
  H   H2168     1.0  0.42115  0.98624  0.70782  1.0000
  C   C1837     1.0  0.07483  0.50481  0.63230  1.0000
  C   C1838     1.0  0.04214  0.51270  0.67746  1.0000
  Fe  Fe250     1.0  0.06951  0.50256  0.69616  1.0000
  C   C1839     1.0  0.45283  0.95688  0.77096  1.0000
  C   C1840     1.0  0.06536  0.51933  0.64431  1.0000
  C   C1841     1.0  0.02258  0.50402  0.75166  1.0000
  C   C1842     1.0  0.05632  0.51802  0.62951  1.0000
  H   H2169     1.0  0.01186  0.55259  0.61305  1.0000
  C   C1843     1.0  0.03265  0.53298  0.75010  1.0000
  H   H2170     1.0  0.01973  0.51511  0.68924  1.0000
  S   S489      1.0  0.07381  0.49589  0.67966  1.0000
  H   H2171     1.0  0.46773  0.98355  0.66943  1.0000
  H   H2172     1.0  0.04344  0.55192  0.75766  1.0000
  C   C1844     1.0  0.02087  0.53694  0.73581  1.0000
  H   H2173     1.0  0.45414  0.95018  0.76580  1.0000
  Fe  Fe251     1.0  0.02613  0.51754  0.60139  1.0000
  H   H2174     1.0  0.04128  0.50952  0.68710  1.0000
  C   C1845     1.0  0.01299  0.54540  0.75303  1.0000
  S   S490      1.0  0.06392  0.50034  0.61749  1.0000
  H   H2175     1.0  0.47091  0.99030  0.73604  1.0000
  H   H2176     1.0  0.01898  0.51094  0.75656  1.0000
  H   H2177     1.0  0.44792  0.97570  0.67199  1.0000
  H   H2178     1.0  0.02020  0.53542  0.72772  1.0000
  C   C1846     1.0  0.04277  0.50779  0.71147  1.0000
  H   H2179     1.0  0.03169  0.49574  0.71494  1.0000
  H   H2180     1.0  0.00625  0.55054  0.75871  1.0000
  Fe  Fe252     1.0  0.04523  0.50644  0.61521  1.0000
  C   C1847     1.0  0.44875  0.97346  0.75490  1.0000
  H   H2181     1.0  0.46126  0.97091  0.77795  1.0000
  H   H2182     1.0  0.18969  0.95863  0.59554  1.0000
  H   H2183     1.0  0.48880  0.90395  0.76416  1.0000
  H   H2184     1.0  0.36994  0.93959  0.60146  1.0000
  H   H2185     1.0  0.39737  0.91838  0.59474  1.0000
  H   H2186     1.0  0.99623  0.59552  0.60955  1.0000
  C   C1848     1.0  0.99704  0.52854  0.64663  1.0000
  H   H2187     1.0  0.99643  0.50663  0.67509  1.0000
  H   H2188     1.0  0.42301  0.99071  0.65637  1.0000
  H   H2189     1.0  0.47023  0.95862  0.75155  1.0000
  C   C1849     1.0  0.99912  0.49711  0.67899  1.0000
  C   C1850     1.0  0.04291  0.55404  0.78504  1.0000
  S   S491      1.0  0.44558  0.98314  0.62919  1.0000
  C   C1851     1.0  0.03196  0.49887  0.67592  1.0000
  Fe  Fe253     1.0  0.09239  0.49512  0.67995  1.0000
  C   C1852     1.0  0.00849  0.56200  0.61191  1.0000
  S   S492      1.0  0.05565  0.49676  0.71157  1.0000
  H   H2190     1.0  0.49463  0.90417  0.74297  1.0000
  H   H2191     1.0  0.43681  0.98009  0.70396  1.0000
  C   C1853     1.0  0.99992  0.57864  0.62118  1.0000
  C   C1854     1.0  0.44125  0.97225  0.73860  1.0000
  C   C1855     1.0  0.00828  0.56936  0.60057  1.0000
  H   H2192     1.0  0.04050  0.50540  0.74870  1.0000
  H   H2193     1.0  0.02983  0.49615  0.69485  1.0000
  C   C1856     1.0  0.43236  0.98503  0.59204  1.0000
  H   H2194     1.0  0.38900  0.93661  0.60252  1.0000
  Fe  Fe254     1.0  0.48606  0.93974  0.78581  1.0000
  S   S493      1.0  0.46907  0.99048  0.63113  1.0000
  C   C1857     1.0  0.00435  0.56660  0.62203  1.0000
  H   H2195     1.0  0.07808  0.49616  0.72402  1.0000
  C   C1858     1.0  0.01509  0.49812  0.74994  1.0000
  H   H2196     1.0  0.47524  0.99056  0.68120  1.0000
  H   H2197     1.0  0.06543  0.49762  0.73580  1.0000
  H   H2198     1.0  0.00585  0.50097  0.75361  1.0000
  H   H2199     1.0  0.45289  0.98897  0.70482  1.0000
  C   C1859     1.0  0.43513  0.99026  0.74557  1.0000
  H   H2200     1.0  0.38462  0.95050  0.59262  1.0000
  S   S494      1.0  0.47349  0.92850  0.78788  1.0000
  C   C1860     1.0  0.00378  0.58163  0.59999  1.0000
  H   H2201     1.0  0.00457  0.56074  0.63058  1.0000
  S   S495      1.0  0.44151  0.99255  0.59488  1.0000
  H   H2202     1.0  0.49542  0.97921  0.60892  1.0000
  C   C1861     1.0  0.42545  0.99301  0.67238  1.0000
  H   H2203     1.0  0.40379  0.99233  0.62489  1.0000
  H   H2204     1.0  0.00333  0.58795  0.59177  1.0000
  S   S496      1.0  0.24529  0.50207  0.95662  1.0000
  H   H2205     1.0  0.48880  0.92003  0.82002  1.0000
  H   H2206     1.0  0.48329  0.92556  0.83310  1.0000
  H   H2207     1.0  0.26355  0.49750  0.93660  1.0000
  C   C1862     1.0  0.32016  0.56968  0.93566  1.0000
  H   H2208     1.0  0.29795  0.56397  0.94332  1.0000
  S   S497      1.0  0.20075  0.51230  0.98762  1.0000
  H   H2209     1.0  0.42322  0.50904  0.95778  1.0000
  C   C1863     1.0  0.45845  0.67518  0.96447  1.0000
  H   H2210     1.0  0.49160  0.81991  0.97125  1.0000
  H   H2211     1.0  0.47761  0.67466  0.97124  1.0000
  H   H2212     1.0  0.38428  0.49395  0.94693  1.0000
  H   H2213     1.0  0.26561  0.54570  0.98449  1.0000
  H   H2214     1.0  0.02676  0.51965  0.86928  1.0000
  C   C1864     1.0  0.30950  0.49663  0.91810  1.0000
  C   C1865     1.0  0.49390  0.90200  0.83739  1.0000
  Fe  Fe255     1.0  0.39024  0.54974  0.96431  1.0000
  H   H2215     1.0  0.38977  0.51015  0.97446  1.0000
  S   S498      1.0  0.39043  0.55712  0.94508  1.0000
  H   H2216     1.0  0.49590  0.92978  0.82266  1.0000
  H   H2217     1.0  0.07450  0.49362  0.81519  1.0000
  H   H2218     1.0  0.49467  0.64409  0.94521  1.0000
  C   C1866     1.0  0.19784  0.58670  0.99028  1.0000
  S   S499      1.0  0.38223  0.53453  0.97502  1.0000
  S   S500      1.0  0.40760  0.54263  0.96989  1.0000
  H   H2219     1.0  0.14004  0.50686  0.97293  1.0000
  S   S501      1.0  0.47031  0.60058  0.97791  1.0000
  H   H2220     1.0  0.38326  0.49447  0.97018  1.0000
  Fe  Fe256     1.0  0.08310  0.49508  0.85277  1.0000
  S   S502      1.0  0.13424  0.50127  0.90058  1.0000
  H   H2221     1.0  0.19993  0.58745  0.96054  1.0000
  S   S503      1.0  0.48367  0.79042  0.92935  1.0000
  Fe  Fe257     1.0  0.46845  0.61975  0.97645  1.0000
  S   S504      1.0  0.47796  0.63031  0.95995  1.0000
  C   C1867     1.0  0.33748  0.56822  0.91450  1.0000
  C   C1868     1.0  0.02947  0.50393  0.84598  1.0000
  Fe  Fe258     1.0  0.34013  0.51493  0.91987  1.0000
  S   S505      1.0  0.33594  0.53428  0.91185  1.0000
  H   H2222     1.0  0.39323  0.49646  0.93213  1.0000
  Fe  Fe259     1.0  0.34075  0.51895  0.94304  1.0000
  S   S506      1.0  0.33612  0.53850  0.93749  1.0000
  S   S507      1.0  0.34405  0.51006  0.96085  1.0000
  Fe  Fe260     1.0  0.32323  0.53554  0.92913  1.0000
  S   S508      1.0  0.30439  0.54555  0.93155  1.0000
  Fe  Fe261     1.0  0.34925  0.53542  0.92098  1.0000
  S   S509      1.0  0.36335  0.54575  0.91343  1.0000
  S   S510      1.0  0.32652  0.51621  0.93655  1.0000
  S   S511      1.0  0.35479  0.51594  0.92711  1.0000
  H   H2223     1.0  0.18974  0.51359  0.96041  1.0000
  S   S512      1.0  0.34022  0.50015  0.91204  1.0000
  C   C1869     1.0  0.45908  0.69569  0.95582  1.0000
  C   C1870     1.0  0.41419  0.49938  0.95225  1.0000
  H   H2224     1.0  0.27862  0.50739  0.97958  1.0000
  C   C1871     1.0  0.21804  0.58336  0.97998  1.0000
  H   H2225     1.0  0.46446  0.72278  0.95647  1.0000
  S   S513      1.0  0.48502  0.71177  0.93812  1.0000
  C   C1872     1.0  0.28662  0.50875  0.97260  1.0000
  H   H2226     1.0  0.45359  0.69587  0.94982  1.0000
  C   C1873     1.0  0.42127  0.57434  0.97717  1.0000
  C   C1874     1.0  0.01492  0.50248  0.82175  1.0000
  N   N121      1.0  0.20447  0.50120  0.95262  1.0000
  Fe  Fe262     1.0  0.22860  0.53180  0.92433  1.0000
  S   S514      1.0  0.22663  0.53223  0.94311  1.0000
  S   S515      1.0  0.21017  0.53306  0.92247  1.0000
  Fe  Fe263     1.0  0.25508  0.53083  0.91918  1.0000
  S   S516      1.0  0.25463  0.53106  0.93764  1.0000
  S   S517      1.0  0.27349  0.52918  0.90784  1.0000
  Fe  Fe264     1.0  0.24315  0.51838  0.94258  1.0000
  C   C1875     1.0  0.11987  0.49801  0.88840  1.0000
  Fe  Fe265     1.0  0.23827  0.54508  0.93616  1.0000
  S   S518      1.0  0.23538  0.56198  0.94186  1.0000
  S   S519      1.0  0.24456  0.51687  0.92426  1.0000
  S   S520      1.0  0.23926  0.54578  0.91732  1.0000
  C   C1876     1.0  0.17247  0.53551  0.96527  1.0000
  C   C1877     1.0  0.16006  0.52522  0.96143  1.0000
  C   C1878     1.0  0.17534  0.54105  0.95321  1.0000
  H   H2227     1.0  0.36755  0.51775  0.94448  1.0000
  C   C1879     1.0  0.03773  0.50535  0.83530  1.0000
  H   H2228     1.0  0.49223  0.61401  0.94122  1.0000
  C   C1880     1.0  0.48752  0.98444  0.79706  1.0000
  H   H2229     1.0  0.21578  0.58739  0.97127  1.0000
  S   S521      1.0  0.25534  0.56955  0.98911  1.0000
  N   N122      1.0  0.05551  0.49672  0.82062  1.0000
  H   H2230     1.0  0.19091  0.56103  0.93378  1.0000
  H   H2231     1.0  0.13256  0.49430  0.83039  1.0000
  C   C1881     1.0  0.47740  0.98753  0.81632  1.0000
  S   S522      1.0  0.15697  0.50820  0.91476  1.0000
  C   C1882     1.0  0.47954  0.72065  0.97555  1.0000
  H   H2232     1.0  0.27631  0.51587  0.94780  1.0000
  H   H2233     1.0  0.30463  0.58058  0.96000  1.0000
  H   H2234     1.0  0.37953  0.52095  0.92427  1.0000
  H   H2235     1.0  0.13140  0.49441  0.99131  1.0000
  Fe  Fe266     1.0  0.15469  0.49656  0.93287  1.0000
  H   H2236     1.0  0.48443  0.75166  0.97207  1.0000
  H   H2237     1.0  0.17024  0.56322  0.95563  1.0000
  C   C1883     1.0  0.01329  0.51020  0.87660  1.0000
  H   H2238     1.0  0.25676  0.55955  0.96850  1.0000
  C   C1884     1.0  0.31839  0.50890  0.99020  1.0000
  C   C1885     1.0  0.40863  0.52036  0.95060  1.0000
  C   C1886     1.0  0.43149  0.58680  0.98155  1.0000
  H   H2239     1.0  0.03706  0.51417  0.83000  1.0000
  H   H2240     1.0  0.45317  0.69918  0.96349  1.0000
  H   H2241     1.0  0.49200  0.91807  0.84939  1.0000
  H   H2242     1.0  0.49554  0.80535  0.96851  1.0000
  S   S523      1.0  0.47498  0.78170  0.96356  1.0000
  H   H2243     1.0  0.48907  0.81266  0.93745  1.0000
  C   C1887     1.0  0.41611  0.50956  0.95379  1.0000
  C   C1888     1.0  0.14299  0.49431  0.96233  1.0000
  H   H2244     1.0  0.44564  0.76563  0.93755  1.0000
  H   H2245     1.0  0.33506  0.56932  0.94256  1.0000
  H   H2246     1.0  0.15744  0.50215  0.98181  1.0000
  C   C1889     1.0  0.27105  0.53688  0.95486  1.0000
  C   C1890     1.0  0.47513  0.68089  0.94864  1.0000
  C   C1891     1.0  0.20446  0.57858  0.95968  1.0000
  H   H2247     1.0  0.28079  0.49965  0.91854  1.0000
  C   C1892     1.0  0.48252  0.77712  0.97490  1.0000
  H   H2248     1.0  0.27774  0.52657  0.98193  1.0000
  S   S524      1.0  0.19244  0.49964  0.90257  1.0000
  H   H2249     1.0  0.38725  0.52893  0.92845  1.0000
  C   C1893     1.0  0.30060  0.49820  0.90234  1.0000
  H   H2250     1.0  0.41010  0.52828  0.95185  1.0000
  H   H2251     1.0  0.44677  0.68487  0.97765  1.0000
  H   H2252     1.0  0.30863  0.49319  0.89721  1.0000
  H   H2253     1.0  0.20193  0.54785  0.94756  1.0000
  C   C1894     1.0  0.49291  0.64524  0.95410  1.0000
  H   H2254     1.0  0.28703  0.49611  0.93119  1.0000
  H   H2255     1.0  0.15410  0.51931  0.96451  1.0000
  S   S525      1.0  0.01308  0.53367  0.79554  1.0000
  Fe  Fe267     1.0  0.39919  0.55261  0.98436  1.0000
  H   H2256     1.0  0.06839  0.49613  0.82987  1.0000
  C   C1895     1.0  0.45326  0.65660  0.96602  1.0000
  H   H2257     1.0  0.05887  0.50055  0.88796  1.0000
  H   H2258     1.0  0.35951  0.52804  0.98914  1.0000
  C   C1896     1.0  0.31174  0.57960  0.95198  1.0000
  S   S526      1.0  0.31397  0.56806  0.98078  1.0000
  C   C1897     1.0  0.44858  0.67733  0.97383  1.0000
  C   C1898     1.0  0.26709  0.54315  0.97624  1.0000
  C   C1899     1.0  0.48717  0.80343  0.99112  1.0000
  H   H2259     1.0  0.20137  0.49542  0.97148  1.0000
  C   C1900     1.0  0.21232  0.50850  0.95278  1.0000
  C   C1901     1.0  0.03328  0.50252  0.88016  1.0000
  C   C1902     1.0  0.27609  0.52857  0.96390  1.0000
  H   H2260     1.0  0.30851  0.56918  0.92497  1.0000
  S   S527      1.0  0.49310  0.95513  0.81744  1.0000
  H   H2261     1.0  0.48431  0.79861  0.98627  1.0000
  C   C1903     1.0  0.38718  0.51993  0.92809  1.0000
  H   H2262     1.0  0.00689  0.51710  0.87243  1.0000
  H   H2263     1.0  0.44221  0.56315  0.98920  1.0000
  Fe  Fe268     1.0  0.48852  0.78170  0.94665  1.0000
  H   H2264     1.0  0.29163  0.49993  0.97098  1.0000
  C   C1904     1.0  0.29456  0.51891  0.95321  1.0000
  C   C1905     1.0  0.48867  0.73677  0.96450  1.0000
  C   C1906     1.0  0.19952  0.56910  0.96652  1.0000
  C   C1907     1.0  0.46066  0.66447  0.96079  1.0000
  H   H2265     1.0  0.48033  0.68779  0.94452  1.0000
  H   H2266     1.0  0.30833  0.55834  0.96403  1.0000
  H   H2267     1.0  0.47204  0.76172  0.95607  1.0000
  H   H2268     1.0  0.17197  0.54190  0.93609  1.0000
  H   H2269     1.0  0.32003  0.57810  0.95487  1.0000
  C   C1908     1.0  0.39911  0.52101  0.94600  1.0000
  H   H2270     1.0  0.36415  0.59329  0.96912  1.0000
  C   C1909     1.0  0.07423  0.52800  0.80869  1.0000
  C   C1910     1.0  0.06684  0.53000  0.82894  1.0000
  C   C1911     1.0  0.06713  0.53453  0.81698  1.0000
  H   H2271     1.0  0.06121  0.53506  0.83530  1.0000
  H   H2272     1.0  0.06170  0.54309  0.81416  1.0000
  C   C1912     1.0  0.22153  0.56491  0.95118  1.0000
  C   C1913     1.0  0.21554  0.57646  0.95199  1.0000
  H   H2273     1.0  0.43388  0.67112  0.98626  1.0000
  C   C1914     1.0  0.21637  0.55559  0.95786  1.0000
  H   H2274     1.0  0.21950  0.58372  0.94673  1.0000
  H   H2275     1.0  0.22114  0.54669  0.95778  1.0000
  H   H2276     1.0  0.29292  0.52436  0.94456  1.0000
  H   H2277     1.0  0.11327  0.50465  0.89249  1.0000
  H   H2278     1.0  0.36755  0.51244  0.97771  1.0000
  N   N123      1.0  0.28350  0.51703  0.96178  1.0000
  H   H2279     1.0  0.31409  0.55103  0.95195  1.0000
  N   N124      1.0  0.18354  0.54907  0.94915  1.0000
  C   C1915     1.0  0.05000  0.49892  0.88914  1.0000
  H   H2280     1.0  0.46995  0.57515  0.97757  1.0000
  Fe  Fe269     1.0  0.39896  0.52806  0.98152  1.0000
  C   C1916     1.0  0.16287  0.53031  0.94952  1.0000
  C   C1917     1.0  0.20570  0.52330  0.91711  1.0000
  C   C1918     1.0  0.21349  0.51652  0.90932  1.0000
  C   C1919     1.0  0.20931  0.50939  0.90479  1.0000
  C   C1920     1.0  0.19743  0.50870  0.90833  1.0000
  C   C1921     1.0  0.18972  0.51531  0.91629  1.0000
  C   C1922     1.0  0.19380  0.52275  0.92045  1.0000
  H   H2281     1.0  0.22264  0.51699  0.90656  1.0000
  C   C1923     1.0  0.38540  0.50037  0.93835  1.0000
  H   H2282     1.0  0.18053  0.51494  0.91897  1.0000
  H   H2283     1.0  0.18768  0.52814  0.92624  1.0000
  C   C1924     1.0  0.35927  0.58942  0.97760  1.0000
  C   C1925     1.0  0.36438  0.58559  0.98735  1.0000
  H   H2284     1.0  0.47584  0.75680  0.94257  1.0000
  H   H2285     1.0  0.22121  0.50317  0.95377  1.0000
  C   C1926     1.0  0.02476  0.51154  0.87487  1.0000
  H   H2286     1.0  0.08683  0.51192  0.80596  1.0000
  C   C1927     1.0  0.48628  0.72617  0.93095  1.0000
  C   C1928     1.0  0.47827  0.73306  0.92409  1.0000
  C   C1929     1.0  0.47858  0.74483  0.91889  1.0000
  C   C1930     1.0  0.49453  0.77194  0.97266  1.0000
  H   H2287     1.0  0.45184  0.77334  0.96260  1.0000
  Fe  Fe270     1.0  0.17448  0.49560  0.91117  1.0000
  H   H2288     1.0  0.47180  0.72929  0.92278  1.0000
  H   H2289     1.0  0.47234  0.75011  0.91358  1.0000
  C   C1931     1.0  0.19251  0.50894  0.95303  1.0000
  C   C1932     1.0  0.34799  0.58811  0.97866  1.0000
  C   C1933     1.0  0.32647  0.56159  0.98676  1.0000
  C   C1934     1.0  0.05491  0.50905  0.81388  1.0000
  H   H2290     1.0  0.49467  0.74048  0.95682  1.0000
  N   N125      1.0  0.20949  0.58892  0.98938  1.0000
  C   C1935     1.0  0.49473  0.73105  0.93251  1.0000
  H   H2291     1.0  0.30068  0.51048  0.95158  1.0000
  H   H2292     1.0  0.39534  0.51683  0.92174  1.0000
  H   H2293     1.0  0.32342  0.55687  0.95690  1.0000
  C   C1936     1.0  0.45494  0.76558  0.93698  1.0000
  C   C1937     1.0  0.35973  0.50884  0.98293  1.0000
  C   C1938     1.0  0.29616  0.54212  0.92367  1.0000
  C   C1939     1.0  0.28406  0.54698  0.92527  1.0000
  C   C1940     1.0  0.27711  0.54342  0.92003  1.0000
  C   C1941     1.0  0.28226  0.53510  0.91302  1.0000
  C   C1942     1.0  0.29451  0.53091  0.91075  1.0000
  C   C1943     1.0  0.30142  0.53419  0.91626  1.0000
  H   H2294     1.0  0.27998  0.55333  0.93077  1.0000
  H   H2295     1.0  0.26777  0.54719  0.92137  1.0000
  H   H2296     1.0  0.29863  0.52495  0.90490  1.0000
  H   H2297     1.0  0.31080  0.53057  0.91478  1.0000
  C   C1944     1.0  0.33070  0.51344  0.97079  1.0000
  C   C1945     1.0  0.32124  0.52199  0.96709  1.0000
  C   C1946     1.0  0.44117  0.66945  0.97890  1.0000
  H   H2298     1.0  0.02112  0.50363  0.80343  1.0000
  H   H2299     1.0  0.32220  0.52693  0.95814  1.0000
  C   C1947     1.0  0.26400  0.54782  0.95658  1.0000
  C   C1948     1.0  0.48484  0.63966  0.96300  1.0000
  C   C1949     1.0  0.48242  0.64145  0.97436  1.0000
  C   C1950     1.0  0.48831  0.64835  0.97703  1.0000
  C   C1951     1.0  0.30894  0.51740  0.98649  1.0000
  H   H2300     1.0  0.48375  0.75324  0.99010  1.0000
  H   H2301     1.0  0.04643  0.51295  0.81106  1.0000
  H   H2302     1.0  0.21532  0.50434  0.89859  1.0000
  H   H2303     1.0  0.18504  0.56505  0.95262  1.0000
  C   C1952     1.0  0.49483  0.74296  0.92754  1.0000
  H   H2304     1.0  0.29234  0.51190  0.97618  1.0000
  C   C1953     1.0  0.38206  0.55413  0.93698  1.0000
  C   C1954     1.0  0.37240  0.54886  0.94224  1.0000
  C   C1955     1.0  0.36635  0.54639  0.93516  1.0000
  C   C1956     1.0  0.36998  0.54917  0.92285  1.0000
  C   C1957     1.0  0.37944  0.55463  0.91773  1.0000
  C   C1958     1.0  0.38541  0.55710  0.92473  1.0000
  H   H2305     1.0  0.36964  0.54672  0.95171  1.0000
  H   H2306     1.0  0.35897  0.54227  0.93920  1.0000
  H   H2307     1.0  0.38227  0.55687  0.90826  1.0000
  H   H2308     1.0  0.39278  0.56124  0.92059  1.0000
  C   C1959     1.0  0.48664  0.74989  0.92084  1.0000
  N   N126      1.0  0.38645  0.51175  0.93977  1.0000
  H   H2309     1.0  0.34418  0.56735  0.90651  1.0000
  H   H2310     1.0  0.20111  0.55051  0.96990  1.0000
  C   C1960     1.0  0.42916  0.58188  0.97349  1.0000
  H   H2311     1.0  0.06237  0.49677  0.86769  1.0000
  C   C1961     1.0  0.48711  0.72556  0.96565  1.0000
  H   H2312     1.0  0.47579  0.63776  0.98106  1.0000
  H   H2313     1.0  0.43359  0.58380  0.96433  1.0000
  H   H2314     1.0  0.41967  0.57053  0.97088  1.0000
  H   H2315     1.0  0.49379  0.59835  0.94483  1.0000
  S   S528      1.0  0.07371  0.53396  0.79392  1.0000
  H   H2316     1.0  0.05022  0.49933  0.86102  1.0000
  C   C1962     1.0  0.31728  0.56924  0.92526  1.0000
  H   H2317     1.0  0.47877  0.68955  0.96441  1.0000
  C   C1963     1.0  0.44351  0.65910  0.97501  1.0000
  C   C1964     1.0  0.20836  0.49577  0.94224  1.0000
  H   H2318     1.0  0.10805  0.49502  0.87969  1.0000
  S   S529      1.0  0.07257  0.51341  0.84786  1.0000
  C   C1965     1.0  0.18479  0.55497  0.93652  1.0000
  C   C1966     1.0  0.16483  0.52783  0.96930  1.0000
  H   H2319     1.0  0.37437  0.51023  0.95662  1.0000
  H   H2320     1.0  0.46637  0.68656  0.97597  1.0000
  H   H2321     1.0  0.18864  0.54853  0.93072  1.0000
  H   H2322     1.0  0.28823  0.50942  0.92031  1.0000
  H   H2323     1.0  0.33868  0.56404  0.96999  1.0000
  H   H2324     1.0  0.08658  0.50397  0.82727  1.0000
  H   H2325     1.0  0.02277  0.51142  0.84849  1.0000
  H   H2326     1.0  0.37550  0.52495  0.94946  1.0000
  C   C1967     1.0  0.27404  0.53211  0.97464  1.0000
  H   H2327     1.0  0.34967  0.56841  0.92416  1.0000
  H   H2328     1.0  0.43797  0.65284  0.97921  1.0000
  H   H2329     1.0  0.46815  0.66182  0.95404  1.0000
  S   S530      1.0  0.18703  0.57096  0.97783  1.0000
  C   C1968     1.0  0.31447  0.55853  0.95530  1.0000
  C   C1969     1.0  0.34176  0.58301  0.98948  1.0000
  C   C1970     1.0  0.29915  0.57149  0.94604  1.0000
  H   H2330     1.0  0.20444  0.60575  0.97794  1.0000
  C   C1971     1.0  0.26206  0.55097  0.96725  1.0000
  H   H2331     1.0  0.45687  0.77403  0.93122  1.0000
  H   H2332     1.0  0.39352  0.52962  0.94381  1.0000
  C   C1972     1.0  0.27730  0.51126  0.95687  1.0000
  C   C1973     1.0  0.47348  0.72692  0.98435  1.0000
  H   H2333     1.0  0.30102  0.50763  0.89958  1.0000
  C   C1974     1.0  0.37552  0.51638  0.94791  1.0000
  H   H2334     1.0  0.45523  0.64838  0.96321  1.0000
  H   H2335     1.0  0.28209  0.50208  0.95630  1.0000
  C   C1975     1.0  0.49481  0.60582  0.94777  1.0000
  C   C1976     1.0  0.01909  0.49769  0.81176  1.0000
  H   H2336     1.0  0.17983  0.55502  0.96540  1.0000
  H   H2337     1.0  0.48632  0.64967  0.98589  1.0000
  H   H2338     1.0  0.47098  0.68035  0.94180  1.0000
  H   H2339     1.0  0.20895  0.51296  0.96034  1.0000
  H   H2340     1.0  0.29642  0.57973  0.93965  1.0000
  N   N127      1.0  0.04562  0.50344  0.87810  1.0000
  C   C1977     1.0  0.17946  0.55845  0.95599  1.0000
  H   H2341     1.0  0.47191  0.77203  0.94229  1.0000
  C   C1978     1.0  0.08113  0.51248  0.82441  1.0000
  C   C1979     1.0  0.08127  0.51695  0.81237  1.0000
  H   H2342     1.0  0.26832  0.51094  0.96238  1.0000
  H   H2343     1.0  0.29281  0.57196  0.95464  1.0000
  C   C1980     1.0  0.32587  0.56844  0.91489  1.0000
  H   H2344     1.0  0.35643  0.55525  0.97840  1.0000
  H   H2345     1.0  0.19860  0.53499  0.94610  1.0000
  C   C1981     1.0  0.17032  0.53818  0.94541  1.0000
  C   C1982     1.0  0.19535  0.54224  0.95092  1.0000
  S   S531      1.0  0.44231  0.59535  0.97649  1.0000
  C   C1983     1.0  0.41563  0.57164  0.98900  1.0000
  H   H2346     1.0  0.47855  0.71182  0.97651  1.0000
  C   C1984     1.0  0.34057  0.56878  0.92448  1.0000
  C   C1985     1.0  0.13127  0.49482  0.89056  1.0000
  H   H2347     1.0  0.15914  0.52817  0.94345  1.0000
  C   C1986     1.0  0.46978  0.76349  0.94741  1.0000
  C   C1987     1.0  0.45472  0.75231  0.95606  1.0000
  C   C1988     1.0  0.24511  0.52748  0.98432  1.0000
  C   C1989     1.0  0.47249  0.68364  0.96809  1.0000
  C   C1990     1.0  0.45921  0.73075  0.95934  1.0000
  Fe  Fe271     1.0  0.49410  0.77339  0.92427  1.0000
  C   C1991     1.0  0.40359  0.49816  0.98239  1.0000
  H   H2348     1.0  0.06197  0.50969  0.80571  1.0000
  H   H2349     1.0  0.19542  0.53827  0.96033  1.0000
  H   H2350     1.0  0.27266  0.53503  0.94630  1.0000
  H   H2351     1.0  0.17619  0.56028  0.93454  1.0000
  C   C1992     1.0  0.33210  0.56939  0.93495  1.0000
  H   H2352     1.0  0.31069  0.58813  0.94549  1.0000
  C   C1993     1.0  0.39407  0.50107  0.97702  1.0000
  H   H2353     1.0  0.43728  0.73989  0.98148  1.0000
  H   H2354     1.0  0.48163  0.67252  0.95075  1.0000
  C   C1994     1.0  0.25084  0.50687  0.98400  1.0000
  C   C1995     1.0  0.46123  0.74164  0.95260  1.0000
  N   N128      1.0  0.31146  0.56986  0.94698  1.0000
  C   C1996     1.0  0.07376  0.51896  0.83271  1.0000
  C   C1997     1.0  0.45065  0.73013  0.96977  1.0000
  C   C1998     1.0  0.21969  0.49552  0.93465  1.0000
  C   C1999     1.0  0.20523  0.55773  0.96515  1.0000
  S   S532      1.0  0.48562  0.76506  0.91554  1.0000
  C   C2000     1.0  0.39679  0.51081  0.94441  1.0000
  N   N129      1.0  0.46619  0.68365  0.95928  1.0000
  H   H2355     1.0  0.34474  0.52713  0.99127  1.0000
  C   C2001     1.0  0.45018  0.77401  0.95386  1.0000
  C   C2002     1.0  0.34776  0.55579  0.98412  1.0000
  H   H2356     1.0  0.30917  0.49408  0.92770  1.0000
  H   H2357     1.0  0.32355  0.56775  0.90717  1.0000
  H   H2358     1.0  0.33670  0.50068  0.98528  1.0000
  H   H2359     1.0  0.48211  0.55169  0.98939  1.0000
  H   H2360     1.0  0.48599  0.82385  0.95264  1.0000
  H   H2361     1.0  0.19483  0.59041  0.98188  1.0000
  H   H2362     1.0  0.04592  0.51910  0.86417  1.0000
  H   H2363     1.0  0.46802  0.74164  0.94465  1.0000
  C   C2003     1.0  0.01226  0.49526  0.83279  1.0000
  H   H2364     1.0  0.01364  0.51188  0.82089  1.0000
  C   C2004     1.0  0.44592  0.75140  0.96666  1.0000
  H   H2365     1.0  0.17614  0.53706  0.97168  1.0000
  H   H2366     1.0  0.45255  0.78235  0.94823  1.0000
  H   H2367     1.0  0.05609  0.51466  0.81912  1.0000
  H   H2368     1.0  0.44041  0.75902  0.96992  1.0000
  H   H2369     1.0  0.24275  0.52029  0.97107  1.0000
  C   C2005     1.0  0.05303  0.49628  0.86954  1.0000
  H   H2370     1.0  0.46474  0.70211  0.95116  1.0000
  C   C2006     1.0  0.47513  0.73824  0.98365  1.0000
  H   H2371     1.0  0.13045  0.49544  0.79349  1.0000
  H   H2372     1.0  0.26009  0.55394  0.94956  1.0000
  C   C2007     1.0  0.44400  0.74043  0.97340  1.0000
  H   H2373     1.0  0.29926  0.52368  0.95632  1.0000
  H   H2374     1.0  0.16254  0.52395  0.97860  1.0000
  H   H2375     1.0  0.44061  0.77514  0.95463  1.0000
  H   H2376     1.0  0.37758  0.50145  0.93477  1.0000
  H   H2377     1.0  0.46061  0.75866  0.93221  1.0000
  H   H2378     1.0  0.30921  0.50623  0.91547  1.0000
  H   H2379     1.0  0.05652  0.51619  0.87250  1.0000
  N   N130      1.0  0.45725  0.76368  0.94879  1.0000
  C   C2008     1.0  0.16467  0.49746  0.98608  1.0000
  H   H2380     1.0  0.45688  0.57176  0.97710  1.0000
  Fe  Fe272     1.0  0.49580  0.95043  0.79998  1.0000
  C   C2009     1.0  0.49218  0.82572  0.94439  1.0000
  H   H2381     1.0  0.49184  0.72063  0.95890  1.0000
  S   S533      1.0  0.14956  0.50331  0.94954  1.0000
  H   H2382     1.0  0.49388  0.60326  0.98443  1.0000
  C   C2010     1.0  0.28849  0.49995  0.92159  1.0000
  C   C2011     1.0  0.32935  0.50715  0.98240  1.0000
  H   H2383     1.0  0.46635  0.76169  0.98101  1.0000
  H   H2384     1.0  0.44919  0.72166  0.97505  1.0000
  C   C2012     1.0  0.01001  0.49991  0.88351  1.0000
  H   H2385     1.0  0.21709  0.60424  0.98325  1.0000
  H   H2386     1.0  0.21330  0.51540  0.94456  1.0000
  C   C2013     1.0  0.48278  0.74305  0.97333  1.0000
  H   H2387     1.0  0.48417  0.98003  0.81981  1.0000
  H   H2388     1.0  0.03754  0.52901  0.79538  1.0000
  C   C2014     1.0  0.24591  0.51840  0.97905  1.0000
  H   H2389     1.0  0.37318  0.58677  0.98605  1.0000
  Fe  Fe273     1.0  0.99660  0.53060  0.79338  1.0000
  H   H2390     1.0  0.30311  0.53085  0.97221  1.0000
  S   S534      1.0  0.47991  0.95657  0.79209  1.0000
  H   H2391     1.0  0.22594  0.49970  0.93571  1.0000
  H   H2392     1.0  0.49451  0.97748  0.80080  1.0000
  C   C2015     1.0  0.13925  0.49826  0.97285  1.0000
  C   C2016     1.0  0.49390  0.81940  0.93578  1.0000
  H   H2393     1.0  0.49386  0.58793  0.96462  1.0000
  H   H2394     1.0  0.47062  0.56157  0.97381  1.0000
  C   C2017     1.0  0.31041  0.52416  0.97503  1.0000
  S   S535      1.0  0.40883  0.50908  0.98509  1.0000
  H   H2395     1.0  0.22717  0.58416  0.97905  1.0000
  S   S536      1.0  0.28864  0.55395  0.98263  1.0000
  C   C2018     1.0  0.33772  0.56079  0.97938  1.0000
  S   S537      1.0  0.44884  0.62341  0.98260  1.0000
  C   C2019     1.0  0.46549  0.56776  0.97964  1.0000
  Fe  Fe274     1.0  0.14962  0.49552  0.90979  1.0000
  H   H2396     1.0  0.03764  0.55251  0.79393  1.0000
  Fe  Fe275     1.0  0.37602  0.54502  0.98906  1.0000
  H   H2397     1.0  0.12638  0.49733  0.81210  1.0000
  C   C2020     1.0  0.20842  0.60184  0.98576  1.0000
  S   S538      1.0  0.38250  0.56093  0.97780  1.0000
  H   H2398     1.0  0.36171  0.49946  0.98241  1.0000
  H   H2399     1.0  0.25144  0.49986  0.97983  1.0000
  H   H2400     1.0  0.11014  0.49791  0.80466  1.0000
  H   H2401     1.0  0.48090  0.97993  0.79666  1.0000
  H   H2402     1.0  0.34408  0.59095  0.97106  1.0000
  H   H2403     1.0  0.24149  0.53648  0.98031  1.0000
  C   C2021     1.0  0.04730  0.51567  0.87330  1.0000
  C   C2022     1.0  0.47652  0.77844  0.98626  1.0000
  H   H2404     1.0  0.04137  0.52171  0.87900  1.0000
  H   H2405     1.0  0.35235  0.51357  0.97849  1.0000
  H   H2406     1.0  0.46718  0.78229  0.98806  1.0000
  C   C2023     1.0  0.04648  0.49560  0.83176  1.0000
  H   H2407     1.0  0.48821  0.60692  0.95608  1.0000
  H   H2408     1.0  0.00113  0.49890  0.88474  1.0000
  H   H2409     1.0  0.21819  0.57383  0.98176  1.0000
  H   H2410     1.0  0.46988  0.98387  0.81662  1.0000
  C   C2024     1.0  0.40470  0.49992  0.94761  1.0000
  H   H2411     1.0  0.23773  0.56267  0.98272  1.0000
  Fe  Fe276     1.0  0.45081  0.60380  0.98554  1.0000
  H   H2412     1.0  0.18561  0.50408  0.95440  1.0000
  H   H2413     1.0  0.19226  0.51571  0.94472  1.0000
  C   C2025     1.0  0.49155  0.92228  0.82695  1.0000
  N   N131      1.0  0.29976  0.49368  0.91517  1.0000
  C   C2026     1.0  0.46150  0.75599  0.98851  1.0000
  H   H2414     1.0  0.00901  0.49893  0.84058  1.0000
  H   H2415     1.0  0.34673  0.49518  0.93402  1.0000
  H   H2416     1.0  0.49453  0.95818  0.83947  1.0000
  H   H2417     1.0  0.48543  0.90388  0.84387  1.0000
  H   H2418     1.0  0.04391  0.50309  0.89634  1.0000
  H   H2419     1.0  0.46389  0.66172  0.98818  1.0000
  S   S539      1.0  0.20695  0.54126  0.99069  1.0000
  H   H2420     1.0  0.45454  0.75421  0.98543  1.0000
  H   H2421     1.0  0.49185  0.89948  0.83019  1.0000
  H   H2422     1.0  0.29285  0.49777  0.89950  1.0000
  H   H2423     1.0  0.33301  0.58190  0.99024  1.0000
  H   H2424     1.0  0.67946  0.49073  0.00922  1.0000
  C   C2027     1.0  0.62796  0.28632  0.01313  1.0000
  C   C2028     1.0  0.51551  0.26166  0.05095  1.0000
  C   C2029     1.0  0.53565  0.01347  0.16257  1.0000
  Fe  Fe277     1.0  0.59022  0.33103  0.01565  1.0000
  S   S540      1.0  0.58785  0.32815  0.03522  1.0000
  H   H2425     1.0  0.52714  0.14042  0.02426  1.0000
  H   H2426     1.0  0.50676  0.15121  0.08652  1.0000
  C   C2030     1.0  0.61892  0.27182  0.03633  1.0000
  C   C2031     1.0  0.54968  0.99778  0.14849  1.0000
  H   H2427     1.0  0.63554  0.28718  0.01598  1.0000
  S   S541      1.0  0.68857  0.39305  0.01115  1.0000
  H   H2428     1.0  0.78557  0.39389  0.99789  1.0000
  S   S542      1.0  0.63866  0.43434  0.00825  1.0000
  C   C2032     1.0  0.54443  0.14472  0.00513  1.0000
  C   C2033     1.0  0.54442  0.03105  0.16671  1.0000
  S   S543      1.0  0.65353  0.40074  0.01518  1.0000
  N   N132      1.0  0.81270  0.37571  0.05005  1.0000
  Fe  Fe278     1.0  0.56290  0.25580  0.05461  1.0000
  S   S544      1.0  0.57731  0.24850  0.06457  1.0000
  S   S545      1.0  0.54503  0.25225  0.06318  1.0000
  Fe  Fe279     1.0  0.57762  0.26949  0.03407  1.0000
  S   S546      1.0  0.59322  0.26308  0.04202  1.0000
  H   H2429     1.0  0.54194  0.31598  0.04437  1.0000
  Fe  Fe280     1.0  0.58854  0.24559  0.04701  1.0000
  S   S547      1.0  0.60371  0.23051  0.04343  1.0000
  Fe  Fe281     1.0  0.58041  0.26682  0.05843  1.0000
  S   S548      1.0  0.58390  0.27825  0.06804  1.0000
  S   S549      1.0  0.57397  0.25162  0.03739  1.0000
  S   S550      1.0  0.56494  0.27432  0.05015  1.0000
  C   C2034     1.0  0.51975  0.34313  0.03175  1.0000
  C   C2035     1.0  0.53104  0.06701  0.10324  1.0000
  Fe  Fe282     1.0  0.74588  0.40792  0.04890  1.0000
  S   S551      1.0  0.76012  0.41295  0.03346  1.0000
  S   S552      1.0  0.74996  0.39906  0.06664  1.0000
  Fe  Fe283     1.0  0.72657  0.41760  0.03479  1.0000
  S   S553      1.0  0.73958  0.42328  0.01852  1.0000
  S   S554      1.0  0.70770  0.42397  0.03277  1.0000
  Fe  Fe284     1.0  0.75137  0.40583  0.02398  1.0000
  S   S555      1.0  0.76117  0.39536  0.01028  1.0000
  Fe  Fe285     1.0  0.74678  0.42970  0.02981  1.0000
  S   S556      1.0  0.75103  0.44744  0.02245  1.0000
  S   S557      1.0  0.73791  0.39955  0.03960  1.0000
  S   S558      1.0  0.73300  0.42530  0.04593  1.0000
  H   H2430     1.0  0.52538  0.31895  0.99842  1.0000
  C   C2036     1.0  0.61368  0.28387  0.05429  1.0000
  H   H2431     1.0  0.53915  0.03526  0.02124  1.0000
  C   C2037     1.0  0.50429  0.15039  0.01834  1.0000
  H   H2432     1.0  0.85597  0.45316  0.03647  1.0000
  C   C2038     1.0  0.73152  0.40946  0.99863  1.0000
  C   C2039     1.0  0.80350  0.38068  0.04309  1.0000
  C   C2040     1.0  0.51219  0.02721  0.14268  1.0000
  H   H2433     1.0  0.53814  0.33370  0.99281  1.0000
  C   C2041     1.0  0.57152  0.29057  0.99786  1.0000
  C   C2042     1.0  0.54788  0.34439  0.99584  1.0000
  C   C2043     1.0  0.62758  0.36325  0.00648  1.0000
  H   H2434     1.0  0.76642  0.47885  0.03857  1.0000
  C   C2044     1.0  0.81429  0.36276  0.05354  1.0000
  C   C2045     1.0  0.83103  0.44081  0.00473  1.0000
  H   H2435     1.0  0.54769  0.33534  0.05367  1.0000
  H   H2436     1.0  0.69244  0.47567  0.04344  1.0000
  Fe  Fe286     1.0  0.81150  0.43155  0.04718  1.0000
  S   S559      1.0  0.80653  0.42876  0.06679  1.0000
  S   S560      1.0  0.80192  0.44657  0.03549  1.0000
  Fe  Fe287     1.0  0.83171  0.41060  0.04748  1.0000
  S   S561      1.0  0.82873  0.40592  0.06715  1.0000
  S   S562      1.0  0.84584  0.39983  0.03600  1.0000
  Fe  Fe288     1.0  0.80965  0.40983  0.06655  1.0000
  S   S563      1.0  0.79706  0.39920  0.07914  1.0000
  Fe  Fe289     1.0  0.82594  0.42535  0.06547  1.0000
  S   S564      1.0  0.83174  0.43486  0.07553  1.0000
  S   S565      1.0  0.81290  0.41288  0.04699  1.0000
  S   S566      1.0  0.83064  0.42966  0.04578  1.0000
  H   H2437     1.0  0.54235  0.31403  0.00456  1.0000
  H   H2438     1.0  0.72178  0.48860  0.08111  1.0000
  Fe  Fe290     1.0  0.96312  0.46953  0.13041  1.0000
  H   H2439     1.0  0.98517  0.43756  0.17666  1.0000
  H   H2440     1.0  0.60904  0.25817  0.01567  1.0000
  S   S567      1.0  0.95035  0.48438  0.12178  1.0000
  Fe  Fe291     1.0  0.52792  0.11368  0.01818  1.0000
  S   S568      1.0  0.54923  0.08539  0.02998  1.0000
  Fe  Fe292     1.0  0.93666  0.47398  0.13196  1.0000
  S   S569      1.0  0.92042  0.47478  0.12556  1.0000
  H   H2441     1.0  0.49855  0.21631  0.07430  1.0000
  S   S570      1.0  0.94987  0.45837  0.13919  1.0000
  H   H2442     1.0  0.51048  0.06041  0.06858  1.0000
  C   C2046     1.0  0.89056  0.48450  0.99482  1.0000
  S   S571      1.0  0.88437  0.46297  0.07639  1.0000
  S   S572      1.0  0.54725  0.10989  0.01022  1.0000
  Fe  Fe293     1.0  0.89992  0.47146  0.04346  1.0000
  S   S573      1.0  0.90731  0.45538  0.05574  1.0000
  H   H2443     1.0  0.61579  0.19029  0.02114  1.0000
  Fe  Fe294     1.0  0.88888  0.45284  0.06220  1.0000
  S   S574      1.0  0.88574  0.43516  0.06337  1.0000
  Fe  Fe295     1.0  0.90250  0.46670  0.06901  1.0000
  S   S575      1.0  0.91735  0.46350  0.07838  1.0000
  S   S576      1.0  0.88189  0.46797  0.04880  1.0000
  H   H2444     1.0  0.52183  0.00485  0.16444  1.0000
  H   H2445     1.0  0.63389  0.03718  0.18039  1.0000
  H   H2446     1.0  0.87943  0.46128  0.00580  1.0000
  S   S577      1.0  0.59286  0.02014  0.16804  1.0000
  H   H2447     1.0  0.54900  0.25787  0.03779  1.0000
  H   H2448     1.0  0.74741  0.48670  0.05104  1.0000
  H   H2449     1.0  0.56199  0.01216  0.17130  1.0000
  C   C2047     1.0  0.73848  0.48943  0.08331  1.0000
  S   S578      1.0  0.62150  0.02552  0.17200  1.0000
  H   H2450     1.0  0.83000  0.45594  0.05021  1.0000
  H   H2451     1.0  0.71289  0.44715  0.02690  1.0000
  Fe  Fe296     1.0  0.56120  0.16404  0.04833  1.0000
  S   S579      1.0  0.51828  0.13131  0.00975  1.0000
  S   S580      1.0  0.55054  0.15067  0.05923  1.0000
  Fe  Fe297     1.0  0.57995  0.17842  0.04146  1.0000
  S   S581      1.0  0.57506  0.18844  0.02435  1.0000
  S   S582      1.0  0.59557  0.18061  0.04621  1.0000
  Fe  Fe298     1.0  0.55666  0.18953  0.03518  1.0000
  C   C2048     1.0  0.83733  0.46939  0.00115  1.0000
  H   H2452     1.0  0.55841  0.03905  0.14715  1.0000
  S   S583      1.0  0.56160  0.18084  0.05254  1.0000
  S   S584      1.0  0.58022  0.16067  0.03903  1.0000
  Fe  Fe299     1.0  0.53302  0.02322  0.11638  1.0000
  S   S585      1.0  0.55014  0.02200  0.10318  1.0000
  S   S586      1.0  0.52956  0.03718  0.12662  1.0000
  H   H2453     1.0  0.57011  0.01522  0.11122  1.0000
  H   H2454     1.0  0.57310  0.23262  0.02382  1.0000
  H   H2455     1.0  0.51400  0.32124  0.01763  1.0000
  H   H2456     1.0  0.93153  0.48831  0.07711  1.0000
  Fe  Fe300     1.0  0.54043  0.01880  0.09167  1.0000
  S   S587      1.0  0.54488  0.02756  0.07243  1.0000
  S   S588      1.0  0.66919  0.38989  0.99244  1.0000
  S   S589      1.0  0.52286  0.02151  0.10432  1.0000
  H   H2457     1.0  0.51249  0.02261  0.13611  1.0000
  H   H2458     1.0  0.81455  0.38779  0.02632  1.0000
  C   C2049     1.0  0.53945  0.33460  0.03588  1.0000
  H   H2459     1.0  0.77534  0.44059  0.07158  1.0000
  C   C2050     1.0  0.55443  0.33086  0.04702  1.0000
  C   C2051     1.0  0.56013  0.22701  0.01910  1.0000
  H   H2460     1.0  0.83805  0.48408  0.03260  1.0000
  C   C2052     1.0  0.98665  0.48291  0.11980  1.0000
  S   S590      1.0  0.52570  0.09586  0.01851  1.0000
  H   H2461     1.0  0.51824  0.24593  0.00773  1.0000
  C   C2053     1.0  0.51970  0.03480  0.14029  1.0000
  C   C2054     1.0  0.52463  0.32272  0.04138  1.0000
  H   H2462     1.0  0.85740  0.43351  0.10099  1.0000
  H   H2463     1.0  0.66534  0.00489  0.16914  1.0000
  C   C2055     1.0  0.53166  0.16791  0.00771  1.0000
  C   C2056     1.0  0.61407  0.29016  0.04269  1.0000
  H   H2464     1.0  0.70545  0.36829  0.00527  1.0000
  C   C2057     1.0  0.89374  0.44826  0.02062  1.0000
  C   C2058     1.0  0.58771  0.99907  0.13532  1.0000
  C   C2059     1.0  0.53770  0.04220  0.06759  1.0000
  C   C2060     1.0  0.52549  0.04604  0.07096  1.0000
  C   C2061     1.0  0.51996  0.05757  0.06619  1.0000
  C   C2062     1.0  0.52661  0.06532  0.05815  1.0000
  C   C2063     1.0  0.53884  0.06159  0.05522  1.0000
  C   C2064     1.0  0.54434  0.05002  0.05976  1.0000
  H   H2465     1.0  0.52029  0.04003  0.07698  1.0000
  H   H2466     1.0  0.70645  0.47676  0.03332  1.0000
  H   H2467     1.0  0.54410  0.06755  0.04939  1.0000
  H   H2468     1.0  0.55380  0.04713  0.05723  1.0000
  C   C2065     1.0  0.55446  0.13827  0.05298  1.0000
  C   C2066     1.0  0.54604  0.13195  0.05415  1.0000
  C   C2067     1.0  0.54885  0.12265  0.04835  1.0000
  C   C2068     1.0  0.56013  0.11961  0.04143  1.0000
  H   H2469     1.0  0.53297  0.04548  0.10028  1.0000
  C   C2069     1.0  0.56582  0.13495  0.04636  1.0000
  H   H2470     1.0  0.53728  0.13446  0.05927  1.0000
  H   H2471     1.0  0.54226  0.11793  0.04917  1.0000
  H   H2472     1.0  0.54709  0.04769  0.10923  1.0000
  H   H2473     1.0  0.55858  0.29723  0.03343  1.0000
  C   C2070     1.0  0.56082  0.17965  0.99959  1.0000
  H   H2474     1.0  0.97972  0.47585  0.17184  1.0000
  C   C2071     1.0  0.72917  0.49282  0.07766  1.0000
  C   C2072     1.0  0.54713  0.35471  0.99924  1.0000
  Fe  Fe301     1.0  0.57374  0.17090  0.02289  1.0000
  C   C2073     1.0  0.79173  0.37955  0.04825  1.0000
  C   C2074     1.0  0.95276  0.48224  0.18995  1.0000
  S   S591      1.0  0.60835  0.99716  0.18274  1.0000
  S   S592      1.0  0.71814  0.48431  0.05220  1.0000
  S   S593      1.0  0.53666  0.00409  0.12469  1.0000
  C   C2075     1.0  0.50394  0.02589  0.15343  1.0000
  C   C2076     1.0  0.53611  0.07610  0.07705  1.0000
  C   C2077     1.0  0.90858  0.47856  0.00186  1.0000
  H   H2475     1.0  0.55340  0.09215  0.05512  1.0000
  H   H2476     1.0  0.51885  0.21059  0.07653  1.0000
  C   C2078     1.0  0.51644  0.11619  0.06737  1.0000
  H   H2477     1.0  0.49945  0.21038  0.04772  1.0000
  C   C2079     1.0  0.53608  0.36217  0.00233  1.0000
  H   H2478     1.0  0.50277  0.12197  0.03107  1.0000
  H   H2479     1.0  0.52168  0.05691  0.04032  1.0000
  S   S594      1.0  0.89668  0.48318  0.05595  1.0000
  H   H2480     1.0  0.52441  0.15610  0.05611  1.0000
  C   C2080     1.0  0.99125  0.47094  0.11998  1.0000
  H   H2481     1.0  0.59799  0.17377  0.00713  1.0000
  C   C2081     1.0  0.57615  0.99857  0.12215  1.0000
  H   H2482     1.0  0.84793  0.47319  0.02487  1.0000
  H   H2483     1.0  0.57846  0.02648  0.11954  1.0000
  C   C2082     1.0  0.98651  0.48505  0.15444  1.0000
  H   H2484     1.0  0.53499  0.14008  0.03473  1.0000
  H   H2485     1.0  0.52478  0.24688  0.01884  1.0000
  C   C2083     1.0  0.91978  0.47166  0.11236  1.0000
  C   C2084     1.0  0.90877  0.47395  0.10955  1.0000
  C   C2085     1.0  0.90783  0.47167  0.09913  1.0000
  C   C2086     1.0  0.91792  0.46692  0.09147  1.0000
  C   C2087     1.0  0.92891  0.46449  0.09435  1.0000
  C   C2088     1.0  0.92987  0.46693  0.10468  1.0000
  H   H2486     1.0  0.90091  0.47759  0.11545  1.0000
  H   H2487     1.0  0.89932  0.47359  0.09704  1.0000
  H   H2488     1.0  0.93678  0.46078  0.08851  1.0000
  H   H2489     1.0  0.93839  0.46510  0.10673  1.0000
  C   C2089     1.0  0.53102  0.34427  0.03123  1.0000
  H   H2490     1.0  0.84658  0.47479  0.07777  1.0000
  N   N133      1.0  0.54054  0.06071  0.09497  1.0000
  S   S595      1.0  0.90973  0.47534  0.02461  1.0000
  H   H2491     1.0  0.98585  0.45692  0.14666  1.0000
  Fe  Fe302     1.0  0.54918  0.10408  0.02886  1.0000
  N   N134      1.0  0.53782  0.21960  0.06237  1.0000
  C   C2090     1.0  0.79963  0.45903  0.04106  1.0000
  C   C2091     1.0  0.80411  0.45823  0.05072  1.0000
  C   C2092     1.0  0.80170  0.46800  0.05566  1.0000
  C   C2093     1.0  0.79510  0.47870  0.05067  1.0000
  C   C2094     1.0  0.79080  0.47958  0.04086  1.0000
  C   C2095     1.0  0.79309  0.46976  0.03602  1.0000
  H   H2492     1.0  0.80970  0.45019  0.05427  1.0000
  H   H2493     1.0  0.80535  0.46736  0.06303  1.0000
  C   C2096     1.0  0.50168  0.22978  0.05882  1.0000
  H   H2494     1.0  0.78976  0.47048  0.02843  1.0000
  C   C2097     1.0  0.84683  0.43430  0.07274  1.0000
  C   C2098     1.0  0.85049  0.44262  0.07602  1.0000
  C   C2099     1.0  0.86242  0.44304  0.07301  1.0000
  C   C2100     1.0  0.87078  0.43480  0.06714  1.0000
  C   C2101     1.0  0.86719  0.42617  0.06428  1.0000
  C   C2102     1.0  0.85520  0.42603  0.06690  1.0000
  H   H2495     1.0  0.84403  0.44897  0.08062  1.0000
  H   H2496     1.0  0.86515  0.44963  0.07539  1.0000
  H   H2497     1.0  0.87367  0.41967  0.05990  1.0000
  H   H2498     1.0  0.85242  0.41949  0.06449  1.0000
  C   C2103     1.0  0.82654  0.47906  0.05654  1.0000
  S   S596      1.0  0.51938  0.07940  0.05156  1.0000
  H   H2499     1.0  0.89479  0.45983  0.99895  1.0000
  C   C2104     1.0  0.51122  0.03917  0.15971  1.0000
  H   H2500     1.0  0.73829  0.48256  0.09124  1.0000
  H   H2501     1.0  0.83097  0.37493  0.04913  1.0000
  C   C2105     1.0  0.80415  0.37578  0.99550  1.0000
  H   H2502     1.0  0.56311  0.33226  0.04698  1.0000
  C   C2106     1.0  0.60305  0.18028  0.00548  1.0000
  H   H2503     1.0  0.50551  0.26672  0.00046  1.0000
  H   H2504     1.0  0.90862  0.44017  0.00269  1.0000
  H   H2505     1.0  0.56329  0.00660  0.14570  1.0000
  H   H2506     1.0  0.81323  0.48903  0.06818  1.0000
  N   N135      1.0  0.52222  0.30444  0.01312  1.0000
  C   C2107     1.0  0.60686  0.18113  0.01496  1.0000
  H   H2507     1.0  0.53321  0.16579  0.99927  1.0000
  H   H2508     1.0  0.73609  0.40149  0.01532  1.0000
  C   C2108     1.0  0.49714  0.26762  0.99848  1.0000
  C   C2109     1.0  0.51513  0.07608  0.00859  1.0000
  H   H2509     1.0  0.56003  0.31865  0.03043  1.0000
  C   C2110     1.0  0.84054  0.39954  0.02414  1.0000
  C   C2111     1.0  0.83191  0.40894  0.01997  1.0000
  C   C2112     1.0  0.82674  0.40811  0.01136  1.0000
  C   C2113     1.0  0.83004  0.39776  0.00715  1.0000
  C   C2114     1.0  0.83878  0.38844  0.01122  1.0000
  C   C2115     1.0  0.84419  0.38942  0.01955  1.0000
  H   H2510     1.0  0.82909  0.41678  0.02350  1.0000
  H   H2511     1.0  0.81986  0.41525  0.00835  1.0000
  Fe  Fe303     1.0  0.87900  0.47855  0.06221  1.0000
  H   H2512     1.0  0.85085  0.38215  0.02279  1.0000
  H   H2513     1.0  0.54079  0.12986  0.02537  1.0000
  C   C2116     1.0  0.51886  0.29319  0.01460  1.0000
  H   H2514     1.0  0.60487  0.17525  0.02345  1.0000
  S   S597      1.0  0.51202  0.36856  0.00596  1.0000
  H   H2515     1.0  0.55507  0.35705  0.99925  1.0000
  S   S598      1.0  0.58667  0.31963  0.00605  1.0000
  C   C2117     1.0  0.85328  0.45732  0.04416  1.0000
  C   C2118     1.0  0.74218  0.45748  0.03105  1.0000
  C   C2119     1.0  0.73968  0.46937  0.02574  1.0000
  C   C2120     1.0  0.73259  0.47758  0.03234  1.0000
  C   C2121     1.0  0.72752  0.47392  0.04420  1.0000
  C   C2122     1.0  0.72985  0.46196  0.04953  1.0000
  C   C2123     1.0  0.73741  0.45377  0.04301  1.0000
  H   H2516     1.0  0.74305  0.47227  0.01648  1.0000
  C   C2124     1.0  0.51720  0.13158  0.07605  1.0000
  H   H2517     1.0  0.72602  0.45907  0.05873  1.0000
  H   H2518     1.0  0.73960  0.44464  0.04728  1.0000
  C   C2125     1.0  0.78423  0.39925  0.07514  1.0000
  C   C2126     1.0  0.78280  0.40343  0.06354  1.0000
  C   C2127     1.0  0.77248  0.40306  0.06071  1.0000
  C   C2128     1.0  0.76344  0.39884  0.06950  1.0000
  C   C2129     1.0  0.76498  0.39457  0.08102  1.0000
  C   C2130     1.0  0.77535  0.39470  0.08381  1.0000
  H   H2519     1.0  0.78964  0.40685  0.05674  1.0000
  H   H2520     1.0  0.77151  0.40612  0.05177  1.0000
  H   H2521     1.0  0.75808  0.39122  0.08786  1.0000
  H   H2522     1.0  0.77642  0.39138  0.09277  1.0000
  C   C2131     1.0  0.99424  0.49045  0.11755  1.0000
  H   H2523     1.0  0.52490  0.04678  0.14693  1.0000
  H   H2524     1.0  0.83443  0.43899  0.01280  1.0000
  Fe  Fe304     1.0  0.67191  0.39977  0.00423  1.0000
  H   H2525     1.0  0.50875  0.16527  0.07770  1.0000
  C   C2132     1.0  0.61575  0.27165  0.05694  1.0000
  C   C2133     1.0  0.53232  0.29545  0.03009  1.0000
  H   H2526     1.0  0.50418  0.31408  0.01513  1.0000
  H   H2527     1.0  0.54014  0.04908  0.00247  1.0000
  H   H2528     1.0  0.56067  0.18419  0.00614  1.0000
  C   C2134     1.0  0.60074  0.21693  0.04430  1.0000
  C   C2135     1.0  0.61006  0.20705  0.04457  1.0000
  C   C2136     1.0  0.60825  0.19603  0.04519  1.0000
  C   C2137     1.0  0.59717  0.19479  0.04523  1.0000
  C   C2138     1.0  0.58780  0.20471  0.04465  1.0000
  C   C2139     1.0  0.58956  0.21580  0.04431  1.0000
  H   H2529     1.0  0.61869  0.20787  0.04455  1.0000
  H   H2530     1.0  0.61549  0.18840  0.04569  1.0000
  H   H2531     1.0  0.57921  0.20376  0.04471  1.0000
  H   H2532     1.0  0.58234  0.22344  0.04405  1.0000
  H   H2533     1.0  0.88199  0.44815  0.10797  1.0000
  C   C2140     1.0  0.53609  0.13912  0.02566  1.0000
  C   C2141     1.0  0.54429  0.06922  0.08405  1.0000
  S   S599      1.0  0.94900  0.45498  0.17164  1.0000
  H   H2534     1.0  0.95373  0.48259  0.17191  1.0000
  H   H2535     1.0  0.85449  0.46650  0.06051  1.0000
  H   H2536     1.0  0.81072  0.37881  0.99804  1.0000
  C   C2142     1.0  0.56867  0.12560  0.04069  1.0000
  H   H2537     1.0  0.56268  0.21791  0.02355  1.0000
  H   H2538     1.0  0.63744  0.45627  0.01356  1.0000
  C   C2143     1.0  0.69373  0.40199  0.01689  1.0000
  C   C2144     1.0  0.68747  0.41339  0.01795  1.0000
  C   C2145     1.0  0.69182  0.42011  0.02280  1.0000
  C   C2146     1.0  0.70248  0.41549  0.02652  1.0000
  C   C2147     1.0  0.70877  0.40416  0.02534  1.0000
  C   C2148     1.0  0.70441  0.39746  0.02053  1.0000
  H   H2539     1.0  0.67918  0.41693  0.01525  1.0000
  H   H2540     1.0  0.68684  0.42883  0.02380  1.0000
  H   H2541     1.0  0.71689  0.40046  0.02831  1.0000
  H   H2542     1.0  0.70926  0.38866  0.01980  1.0000
  H   H2543     1.0  0.81606  0.37750  0.06598  1.0000
  H   H2544     1.0  0.54658  0.22374  0.01343  1.0000
  H   H2545     1.0  0.55775  0.33088  0.01827  1.0000
  C   C2149     1.0  0.55348  0.34754  0.03092  1.0000
  H   H2546     1.0  0.84134  0.38045  0.00795  1.0000
  H   H2547     1.0  0.71768  0.45119  0.03741  1.0000
  H   H2548     1.0  0.54712  0.03519  0.14294  1.0000
  C   C2150     1.0  0.58617  0.31438  0.04420  1.0000
  C   C2151     1.0  0.58433  0.30572  0.03983  1.0000
  C   C2152     1.0  0.58351  0.29464  0.04714  1.0000
  C   C2153     1.0  0.58435  0.29224  0.05889  1.0000
  C   C2154     1.0  0.58585  0.30105  0.06331  1.0000
  C   C2155     1.0  0.58676  0.31208  0.05598  1.0000
  H   H2549     1.0  0.58369  0.30748  0.03080  1.0000
  H   H2550     1.0  0.58246  0.28790  0.04359  1.0000
  H   H2551     1.0  0.58648  0.29927  0.07237  1.0000
  H   H2552     1.0  0.58811  0.31878  0.05942  1.0000
  H   H2553     1.0  0.71764  0.46072  0.02316  1.0000
  N   N136      1.0  0.54253  0.14755  0.01674  1.0000
  Fe  Fe305     1.0  0.55315  0.00265  0.11072  1.0000
  C   C2156     1.0  0.87558  0.42547  0.09511  1.0000
  H   H2554     1.0  0.59831  0.29132  0.02328  1.0000
  H   H2555     1.0  0.51852  0.19181  0.01992  1.0000
  H   H2556     1.0  0.97759  0.42851  0.15333  1.0000
  H   H2557     1.0  0.51259  0.15814  0.04906  1.0000
  H   H2558     1.0  0.54809  0.05437  0.03409  1.0000
  H   H2559     1.0  0.64443  0.47407  0.00143  1.0000
  N   N137      1.0  0.76647  0.44003  0.05880  1.0000
  C   C2157     1.0  0.76966  0.43603  0.04758  1.0000
  C   C2158     1.0  0.75855  0.43275  0.06747  1.0000
  C   C2159     1.0  0.76116  0.45280  0.05691  1.0000
  C   C2160     1.0  0.75047  0.45769  0.06415  1.0000
  C   C2161     1.0  0.76687  0.46083  0.04776  1.0000
  C   C2162     1.0  0.74568  0.46979  0.06204  1.0000
  C   C2163     1.0  0.76198  0.47292  0.04571  1.0000
  C   C2164     1.0  0.75136  0.47738  0.05280  1.0000
  H   H2560     1.0  0.77701  0.43958  0.04113  1.0000
  H   H2561     1.0  0.77273  0.42634  0.04889  1.0000
  H   H2562     1.0  0.76201  0.43866  0.04336  1.0000
  H   H2563     1.0  0.76263  0.42320  0.06851  1.0000
  H   H2564     1.0  0.75657  0.43449  0.07641  1.0000
  H   H2565     1.0  0.75018  0.43418  0.06470  1.0000
  H   H2566     1.0  0.74544  0.45235  0.07133  1.0000
  H   H2567     1.0  0.77517  0.45777  0.04212  1.0000
  H   H2568     1.0  0.73724  0.47327  0.06729  1.0000
  C   C2165     1.0  0.55438  0.28539  0.99619  1.0000
  H   H2569     1.0  0.52023  0.13369  0.08258  1.0000
  C   C2166     1.0  0.54619  0.22486  0.05210  1.0000
  C   C2167     1.0  0.52559  0.22280  0.06070  1.0000
  C   C2168     1.0  0.78675  0.47269  0.99817  1.0000
  H   H2570     1.0  0.70585  0.46697  0.04731  1.0000
  H   H2571     1.0  0.55747  0.04881  0.09554  1.0000
  H   H2572     1.0  0.54611  0.22244  0.04394  1.0000
  H   H2573     1.0  0.54417  0.23458  0.05070  1.0000
  H   H2574     1.0  0.55541  0.22186  0.05332  1.0000
  C   C2169     1.0  0.68093  0.47328  0.00736  1.0000
  C   C2170     1.0  0.51679  0.21743  0.06907  1.0000
  H   H2575     1.0  0.54899  0.06227  0.01911  1.0000
  H   H2576     1.0  0.97957  0.44161  0.14241  1.0000
  C   C2171     1.0  0.50345  0.03185  0.16196  1.0000
  S   S600      1.0  0.98183  0.46143  0.12274  1.0000
  H   H2577     1.0  0.61979  0.25612  0.05012  1.0000
  C   C2172     1.0  0.55437  0.00620  0.15030  1.0000
  C   C2173     1.0  0.64268  0.99631  0.16547  1.0000
  H   H2578     1.0  0.82596  0.48590  0.08200  1.0000
  C   C2174     1.0  0.98262  0.49249  0.17192  1.0000
  H   H2579     1.0  0.50776  0.33163  0.03726  1.0000
  C   C2175     1.0  0.88404  0.48425  0.00638  1.0000
  H   H2580     1.0  0.53709  0.06735  0.03046  1.0000
  H   H2581     1.0  0.82071  0.48102  0.05068  1.0000
  H   H2582     1.0  0.73104  0.44487  0.00065  1.0000
  C   C2176     1.0  0.54715  0.24226  0.00754  1.0000
  C   C2177     1.0  0.51987  0.11969  0.07564  1.0000
  C   C2178     1.0  0.55268  0.27957  0.00798  1.0000
  Fe  Fe306     1.0  0.52825  0.00194  0.11148  1.0000
  C   C2179     1.0  0.61916  0.36078  0.00213  1.0000
  C   C2180     1.0  0.53759  0.34156  0.99557  1.0000
  Fe  Fe307     1.0  0.65027  0.39241  0.00228  1.0000
  H   H2583     1.0  0.77432  0.48668  0.01313  1.0000
  H   H2584     1.0  0.55926  0.15201  0.01307  1.0000
  H   H2585     1.0  0.90315  0.42797  0.01291  1.0000
  H   H2586     1.0  0.54944  0.13551  0.00501  1.0000
  C   C2181     1.0  0.56077  0.27867  0.01454  1.0000
  H   H2587     1.0  0.53307  0.08915  0.06141  1.0000
  H   H2588     1.0  0.51347  0.35064  0.02812  1.0000
  S   S601      1.0  0.55536  0.08037  0.99908  1.0000
  H   H2589     1.0  0.52298  0.07120  0.09973  1.0000
  H   H2590     1.0  0.82134  0.35867  0.05859  1.0000
  H   H2591     1.0  0.52103  0.15305  0.07723  1.0000
  H   H2592     1.0  0.50923  0.15559  0.01095  1.0000
  C   C2182     1.0  0.59540  0.22155  0.01145  1.0000
  H   H2593     1.0  0.78914  0.37537  0.05739  1.0000
  H   H2594     1.0  0.82804  0.37442  0.03573  1.0000
  H   H2595     1.0  0.62840  0.29138  0.00388  1.0000
  H   H2596     1.0  0.50625  0.26250  0.05468  1.0000
  C   C2183     1.0  0.52580  0.35923  0.00214  1.0000
  H   H2597     1.0  0.50737  0.24232  0.04335  1.0000
  C   C2184     1.0  0.61846  0.26563  0.04797  1.0000
  H   H2598     1.0  0.55368  0.14661  0.02822  1.0000
  C   C2185     1.0  0.52638  0.24277  0.01124  1.0000
  C   C2186     1.0  0.54749  0.01435  0.15736  1.0000
  H   H2599     1.0  0.55141  0.04249  0.01570  1.0000
  H   H2600     1.0  0.50549  0.24578  0.08027  1.0000
  C   C2187     1.0  0.84535  0.47094  0.06196  1.0000
  C   C2188     1.0  0.94911  0.48656  0.17938  1.0000
  C   C2189     1.0  0.51110  0.23342  0.99189  1.0000
  C   C2190     1.0  0.53940  0.08424  0.06676  1.0000
  H   H2601     1.0  0.53153  0.04337  0.04400  1.0000
  C   C2191     1.0  0.52719  0.17513  0.02875  1.0000
  C   C2192     1.0  0.94277  0.45935  0.18510  1.0000
  C   C2193     1.0  0.61668  0.28429  0.03333  1.0000
  H   H2602     1.0  0.54547  0.27527  0.01189  1.0000
  H   H2603     1.0  0.76524  0.47209  0.01339  1.0000
  C   C2194     1.0  0.78568  0.38936  0.02994  1.0000
  C   C2195     1.0  0.60692  0.28856  0.01735  1.0000
  C   C2196     1.0  0.78298  0.38387  0.04176  1.0000
  H   H2604     1.0  0.61191  0.29963  0.04139  1.0000
  S   S602      1.0  0.58064  0.28267  0.01732  1.0000
  C   C2197     1.0  0.58595  0.01130  0.13146  1.0000
  H   H2605     1.0  0.72238  0.41281  0.00244  1.0000
  H   H2606     1.0  0.87879  0.43724  0.99944  1.0000
  H   H2607     1.0  0.51842  0.10698  0.06713  1.0000
  C   C2198     1.0  0.82432  0.37838  0.04359  1.0000
  H   H2608     1.0  0.99040  0.45464  0.16013  1.0000
  C   C2199     1.0  0.82217  0.48384  0.06654  1.0000
  H   H2609     1.0  0.81673  0.35884  0.04569  1.0000
  C   C2200     1.0  0.52541  0.17934  0.00868  1.0000
  H   H2610     1.0  0.82367  0.38805  0.04076  1.0000
  C   C2201     1.0  0.55992  0.32815  0.02710  1.0000
  C   C2202     1.0  0.51473  0.15930  0.05692  1.0000
  N   N138      1.0  0.89040  0.44443  0.01164  1.0000
  C   C2203     1.0  0.90080  0.43618  0.00633  1.0000
  C   C2204     1.0  0.88754  0.45505  0.00238  1.0000
  C   C2205     1.0  0.60649  0.25020  0.01532  1.0000
  C   C2206     1.0  0.88037  0.43856  0.01646  1.0000
  C   C2207     1.0  0.87568  0.43519  0.02873  1.0000
  C   C2208     1.0  0.87541  0.43543  0.00882  1.0000
  C   C2209     1.0  0.86654  0.42919  0.03294  1.0000
  C   C2210     1.0  0.86628  0.42945  0.01314  1.0000
  C   C2211     1.0  0.86187  0.42631  0.02517  1.0000
  H   H2611     1.0  0.52528  0.29109  0.03504  1.0000
  H   H2612     1.0  0.51782  0.07193  0.02594  1.0000
  H   H2613     1.0  0.90100  0.45304  0.01665  1.0000
  C   C2212     1.0  0.64382  0.44682  0.99961  1.0000
  N   N139      1.0  0.60482  0.25083  0.00350  1.0000
  C   C2213     1.0  0.57966  0.01705  0.12269  1.0000
  H   H2614     1.0  0.54959  0.15049  0.99805  1.0000
  C   C2214     1.0  0.59278  0.22160  0.00100  1.0000
  H   H2615     1.0  0.58565  0.12384  0.99169  1.0000
  H   H2616     1.0  0.87904  0.43687  0.03530  1.0000
  H   H2617     1.0  0.57746  0.12320  0.03547  1.0000
  H   H2618     1.0  0.86320  0.42649  0.04230  1.0000
  C   C2215     1.0  0.59587  0.26174  0.00060  1.0000
  H   H2619     1.0  0.85502  0.42137  0.02851  1.0000
  N   N140      1.0  0.61666  0.29063  0.02101  1.0000
  Fe  Fe308     1.0  0.57793  0.33659  0.99561  1.0000
  C   C2216     1.0  0.61509  0.30354  0.01921  1.0000
  C   C2217     1.0  0.53337  0.16368  0.02792  1.0000
  H   H2620     1.0  0.62028  0.20386  0.00187  1.0000
  H   H2621     1.0  0.53289  0.35282  0.02707  1.0000
  C   C2218     1.0  0.51046  0.12457  0.05938  1.0000
  C   C2219     1.0  0.57477  0.01071  0.11809  1.0000
  C   C2220     1.0  0.51135  0.15566  0.07784  1.0000
  S   S603      1.0  0.55486  0.17308  0.03188  1.0000
  H   H2622     1.0  0.85171  0.45031  0.05214  1.0000
  H   H2623     1.0  0.73107  0.48673  0.02814  1.0000
  S   S604      1.0  0.79408  0.49144  0.05521  1.0000
  H   H2624     1.0  0.60632  0.30766  0.02404  1.0000
  H   H2625     1.0  0.61560  0.30792  0.00981  1.0000
  H   H2626     1.0  0.62203  0.30577  0.02196  1.0000
  H   H2627     1.0  0.50937  0.30898  0.02844  1.0000
  H   H2628     1.0  0.64233  0.00250  0.15681  1.0000
  C   C2221     1.0  0.63072  0.37420  0.00243  1.0000
  C   C2222     1.0  0.77416  0.49034  0.00370  1.0000
  H   H2629     1.0  0.49791  0.02026  0.15513  1.0000
  H   H2630     1.0  0.71046  0.47583  0.99681  1.0000
  C   C2223     1.0  0.51920  0.04080  0.14880  1.0000
  H   H2631     1.0  0.65752  0.99870  0.18890  1.0000
  H   H2632     1.0  0.80614  0.36009  0.05925  1.0000
  S   S605      1.0  0.56378  0.10876  0.03319  1.0000
  C   C2224     1.0  0.53219  0.30260  0.01865  1.0000
  S   S606      1.0  0.61727  0.00523  0.15411  1.0000
  H   H2633     1.0  0.56257  0.34784  0.03094  1.0000
  C   C2225     1.0  0.55425  0.14561  0.01926  1.0000
  H   H2634     1.0  0.88632  0.45293  0.99454  1.0000
  C   C2226     1.0  0.54385  0.04089  0.02318  1.0000
  H   H2635     1.0  0.64974  0.01092  0.17342  1.0000
  C   C2227     1.0  0.57022  0.28414  0.00943  1.0000
  H   H2636     1.0  0.56772  0.25319  0.01300  1.0000
  C   C2228     1.0  0.50506  0.22080  0.06803  1.0000
  C   C2229     1.0  0.52712  0.04906  0.03682  1.0000
  S   S607      1.0  0.64192  0.37653  0.00772  1.0000
  H   H2637     1.0  0.52105  0.04436  0.03565  1.0000
  H   H2638     1.0  0.51079  0.04388  0.16623  1.0000
  H   H2639     1.0  0.97504  0.45766  0.15995  1.0000
  H   H2640     1.0  0.52215  0.31436  0.04530  1.0000
  S   S608      1.0  0.93224  0.48169  0.14802  1.0000
  C   C2230     1.0  0.82930  0.48208  0.07432  1.0000
  C   C2231     1.0  0.83347  0.46191  0.04191  1.0000
  H   H2641     1.0  0.77888  0.39266  0.02493  1.0000
  C   C2232     1.0  0.71773  0.36505  0.01573  1.0000
  C   C2233     1.0  0.61304  0.18960  0.01366  1.0000
  H   H2642     1.0  0.75209  0.44237  0.99914  1.0000
  H   H2643     1.0  0.83767  0.43582  0.99845  1.0000
  S   S609      1.0  0.54191  0.20527  0.03263  1.0000
  H   H2644     1.0  0.87453  0.48658  0.00812  1.0000
  C   C2234     1.0  0.55600  0.03432  0.19054  1.0000
  H   H2645     1.0  0.86100  0.46049  0.04413  1.0000
  H   H2646     1.0  0.78569  0.48782  0.03698  1.0000
  H   H2647     1.0  0.61124  0.28853  0.06135  1.0000
  S   S610      1.0  0.96066  0.47731  0.14580  1.0000
  H   H2648     1.0  0.83697  0.45672  0.03495  1.0000
  H   H2649     1.0  0.68512  0.45703  0.04760  1.0000
  H   H2650     1.0  0.81019  0.45427  0.01000  1.0000
  H   H2651     1.0  0.88623  0.45437  0.02509  1.0000
  C   C2235     1.0  0.55018  0.05409  0.10115  1.0000
  N   N141      1.0  0.70053  0.46112  0.03475  1.0000
  C   C2236     1.0  0.56919  0.16921  0.99821  1.0000
  C   C2237     1.0  0.53914  0.23947  0.99265  1.0000
  C   C2238     1.0  0.54278  0.05932  0.02743  1.0000
  C   C2239     1.0  0.75129  0.39960  0.00109  1.0000
  H   H2652     1.0  0.54728  0.35353  0.03654  1.0000
  H   H2653     1.0  0.78776  0.46929  0.00742  1.0000
  H   H2654     1.0  0.76669  0.46667  0.00082  1.0000
  H   H2655     1.0  0.52563  0.17807  0.03682  1.0000
  H   H2656     1.0  0.57245  0.13956  0.04563  1.0000
  N   N142      1.0  0.50821  0.15305  0.06803  1.0000
  H   H2657     1.0  0.57566  0.10739  0.00140  1.0000
  C   C2240     1.0  0.98268  0.48370  0.16658  1.0000
  S   S611      1.0  0.86205  0.49210  0.06472  1.0000
  C   C2241     1.0  0.51106  0.14036  0.06803  1.0000
  C   C2242     1.0  0.50786  0.13648  0.05962  1.0000
  H   H2658     1.0  0.59822  0.24963  0.02212  1.0000
  S   S612      1.0  0.60769  0.33274  0.00362  1.0000
  H   H2659     1.0  0.51869  0.34663  0.99852  1.0000
  C   C2243     1.0  0.51538  0.22377  0.00013  1.0000
  H   H2660     1.0  0.78783  0.46493  0.99451  1.0000
  Fe  Fe309     1.0  0.59013  0.00296  0.17984  1.0000
  N   N143      1.0  0.98472  0.44006  0.15852  1.0000
  C   C2244     1.0  0.64569  0.46673  0.99753  1.0000
  S   S613      1.0  0.49656  0.19017  0.06657  1.0000
  C   C2245     1.0  0.61388  0.36918  0.99353  1.0000
  H   H2661     1.0  0.98658  0.47827  0.15020  1.0000
  H   H2662     1.0  0.75493  0.49181  0.08366  1.0000
  Fe  Fe310     1.0  0.61159  0.01356  0.16968  1.0000
  H   H2663     1.0  0.60623  0.29355  0.00828  1.0000
  H   H2664     1.0  0.62310  0.24371  0.99682  1.0000
  H   H2665     1.0  0.59420  0.21429  0.01894  1.0000
  H   H2666     1.0  0.61349  0.24249  0.01798  1.0000
  C   C2246     1.0  0.84089  0.47573  0.07198  1.0000
  C   C2247     1.0  0.55594  0.07109  0.08010  1.0000
  H   H2667     1.0  0.89923  0.43357  0.99891  1.0000
  S   S614      1.0  0.59086  0.01976  0.13782  1.0000
  C   C2248     1.0  0.53586  0.15972  0.01735  1.0000
  C   C2249     1.0  0.55101  0.30641  0.01851  1.0000
  Fe  Fe311     1.0  0.64936  0.41781  0.00225  1.0000
  C   C2250     1.0  0.56352  0.01844  0.16270  1.0000
  H   H2668     1.0  0.60792  0.27917  0.01749  1.0000
  C   C2251     1.0  0.64183  0.45661  0.00443  1.0000
  H   H2669     1.0  0.97725  0.48641  0.12117  1.0000
  C   C2252     1.0  0.72973  0.38004  0.99754  1.0000
  H   H2670     1.0  0.55193  0.25932  0.00265  1.0000
  C   C2253     1.0  0.83814  0.47208  0.05416  1.0000
  H   H2671     1.0  0.55965  0.27385  0.02357  1.0000
  H   H2672     1.0  0.52229  0.18549  0.00124  1.0000
  C   C2254     1.0  0.56603  0.23524  0.01919  1.0000
  C   C2255     1.0  0.52397  0.21440  0.99639  1.0000
  H   H2673     1.0  0.50777  0.12184  0.05297  1.0000
  H   H2674     1.0  0.55751  0.04306  0.18647  1.0000
  H   H2675     1.0  0.51192  0.29429  0.00981  1.0000
  C   C2256     1.0  0.55087  0.23043  0.01332  1.0000
  N   N144      1.0  0.82800  0.45366  0.99972  1.0000
  C   C2257     1.0  0.76568  0.47484  0.00376  1.0000
  H   H2676     1.0  0.82323  0.43683  0.00721  1.0000
  H   H2677     1.0  0.61524  0.48936  0.99397  1.0000
  Fe  Fe312     1.0  0.94667  0.49114  0.13819  1.0000
  C   C2258     1.0  0.83822  0.45890  0.99757  1.0000
  Fe  Fe313     1.0  0.59815  0.01016  0.15372  1.0000
  H   H2678     1.0  0.58935  0.21452  0.00041  1.0000
  C   C2259     1.0  0.51005  0.23531  0.05050  1.0000
  H   H2679     1.0  0.56803  0.08059  0.06690  1.0000
  H   H2680     1.0  0.85297  0.47951  0.03375  1.0000
  H   H2681     1.0  0.52652  0.28650  0.01124  1.0000
  H   H2682     1.0  0.51258  0.16893  0.05647  1.0000
  H   H2683     1.0  0.52741  0.23313  0.01473  1.0000
  N   N145      1.0  0.77530  0.48105  0.99741  1.0000
  C   C2260     1.0  0.93198  0.46738  0.18698  1.0000
  C   C2261     1.0  0.50802  0.20497  0.04861  1.0000
  C   C2262     1.0  0.88728  0.42553  0.09418  1.0000
  C   C2263     1.0  0.56294  0.24683  0.01318  1.0000
  C   C2264     1.0  0.80911  0.38051  0.06080  1.0000
  C   C2265     1.0  0.49690  0.19746  0.99949  1.0000
  C   C2266     1.0  0.54169  0.29363  0.03539  1.0000
  C   C2267     1.0  0.69451  0.45284  0.04444  1.0000
  H   H2684     1.0  0.53648  0.15803  0.03554  1.0000
  H   H2685     1.0  0.54287  0.04692  0.08610  1.0000
  C   C2268     1.0  0.55295  0.18453  0.99209  1.0000
  C   C2269     1.0  0.53370  0.25859  0.99700  1.0000
  H   H2686     1.0  0.87294  0.49264  0.04026  1.0000
  H   H2687     1.0  0.55372  0.06004  0.10404  1.0000
  S   S615      1.0  0.51019  0.26658  0.02938  1.0000
  H   H2688     1.0  0.51187  0.22338  0.00945  1.0000
  C   C2270     1.0  0.55372  0.25030  0.00733  1.0000
  H   H2689     1.0  0.60116  0.23033  0.02076  1.0000
  H   H2690     1.0  0.79920  0.39513  0.01546  1.0000
  H   H2691     1.0  0.65658  0.01133  0.15837  1.0000
  H   H2692     1.0  0.54197  0.02560  0.17566  1.0000
  C   C2271     1.0  0.86900  0.44150  0.10513  1.0000
  H   H2693     1.0  0.51506  0.28943  0.02387  1.0000
  C   C2272     1.0  0.68308  0.48142  0.01214  1.0000
  C   C2273     1.0  0.88068  0.44161  0.10431  1.0000
  C   C2274     1.0  0.53592  0.32376  0.04089  1.0000
  H   H2694     1.0  0.53623  0.03604  0.16363  1.0000
  H   H2695     1.0  0.80109  0.37798  0.06693  1.0000
  C   C2275     1.0  0.98401  0.45287  0.15621  1.0000
  Fe  Fe314     1.0  0.49892  0.03128  0.19064  1.0000
  C   C2276     1.0  0.59942  0.23089  0.01238  1.0000
  C   C2277     1.0  0.84549  0.47629  0.03320  1.0000
  H   H2696     1.0  0.79417  0.47700  0.99315  1.0000
  C   C2278     1.0  0.69411  0.46550  0.02512  1.0000
  H   H2697     1.0  0.68361  0.45496  0.00760  1.0000
  H   H2698     1.0  0.73080  0.36373  0.02510  1.0000
  H   H2699     1.0  0.55966  0.13662  0.01863  1.0000
  C   C2279     1.0  0.52492  0.30958  0.00030  1.0000
  H   H2700     1.0  0.94881  0.43036  0.18456  1.0000
  N   N146      1.0  0.53679  0.24580  0.00217  1.0000
  H   H2701     1.0  0.53593  0.14553  0.00288  1.0000
  H   H2702     1.0  0.82591  0.46876  0.03916  1.0000
  H   H2703     1.0  0.61491  0.26689  0.06601  1.0000
  C   C2280     1.0  0.70131  0.47058  0.03986  1.0000
  C   C2281     1.0  0.88980  0.48106  0.01570  1.0000
  H   H2704     1.0  0.81957  0.45811  0.01660  1.0000
  H   H2705     1.0  0.69469  0.44473  0.04179  1.0000
  C   C2282     1.0  0.52324  0.18294  0.01917  1.0000
  H   H2706     1.0  0.71288  0.35950  0.02295  1.0000
  C   C2283     1.0  0.69201  0.45746  0.01983  1.0000
  C   C2284     1.0  0.51654  0.33240  0.03684  1.0000
  N   N147      1.0  0.53575  0.05208  0.02567  1.0000
  H   H2707     1.0  0.58718  0.26138  0.00674  1.0000
  H   H2708     1.0  0.89704  0.44066  0.02738  1.0000
  C   C2285     1.0  0.84713  0.47425  0.99872  1.0000
  C   C2286     1.0  0.90283  0.48158  0.99258  1.0000
  C   C2287     1.0  0.85801  0.46892  0.99265  1.0000
  S   S616      1.0  0.58010  0.34785  0.00637  1.0000
  H   H2709     1.0  0.80727  0.39025  0.05850  1.0000
  H   H2710     1.0  0.62927  0.27700  0.01278  1.0000
  C   C2288     1.0  0.51200  0.31254  0.01884  1.0000
  H   H2711     1.0  0.69523  0.44807  0.02256  1.0000
  H   H2712     1.0  0.59841  0.26970  0.00103  1.0000
  C   C2289     1.0  0.54169  0.30830  0.01316  1.0000
  H   H2713     1.0  0.56907  0.32897  0.02585  1.0000
  H   H2714     1.0  0.86282  0.42691  0.00714  1.0000
  C   C2290     1.0  0.90211  0.47830  0.01342  1.0000
  C   C2291     1.0  0.55108  0.29901  0.02955  1.0000
  H   H2715     1.0  0.87356  0.41943  0.09125  1.0000
  C   C2292     1.0  0.50906  0.19495  0.05769  1.0000
  H   H2716     1.0  0.55848  0.31034  0.01381  1.0000
  H   H2717     1.0  0.97957  0.42669  0.17361  1.0000
  H   H2718     1.0  0.77399  0.38308  0.04597  1.0000
  H   H2719     1.0  0.69879  0.44974  0.05208  1.0000
  C   C2293     1.0  0.50694  0.13813  0.01994  1.0000
  H   H2720     1.0  0.53291  0.21904  0.08101  1.0000
  C   C2294     1.0  0.77728  0.43767  0.06319  1.0000
  Fe  Fe315     1.0  0.94666  0.46705  0.15424  1.0000
  N   N148      1.0  0.55246  0.02370  0.15844  1.0000
  H   H2721     1.0  0.75706  0.48069  0.00243  1.0000
  H   H2722     1.0  0.78157  0.42812  0.06482  1.0000
  H   H2723     1.0  0.89399  0.41932  0.08964  1.0000
  H   H2724     1.0  0.57054  0.01369  0.15646  1.0000
  H   H2725     1.0  0.78392  0.44236  0.05684  1.0000
  C   C2295     1.0  0.55910  0.07931  0.06980  1.0000
  H   H2726     1.0  0.56281  0.06628  0.08475  1.0000
  H   H2727     1.0  0.52467  0.11315  0.08174  1.0000
  H   H2728     1.0  0.82911  0.47415  0.00562  1.0000
  H   H2729     1.0  0.53861  0.18546  0.05178  1.0000
  H   H2730     1.0  0.54698  0.22247  0.07382  1.0000
  H   H2731     1.0  0.55171  0.20416  0.06549  1.0000
  H   H2732     1.0  0.52829  0.06092  0.11174  1.0000
  H   H2733     1.0  0.86186  0.44779  0.10922  1.0000
  H   H2734     1.0  0.91375  0.44254  0.10135  1.0000
  H   H2735     1.0  0.91818  0.43582  0.08386  1.0000
  H   H2736     1.0  0.52961  0.01948  0.16775  1.0000
  H   H2737     1.0  0.55518  0.32122  0.05018  1.0000
  Fe  Fe316     1.0  0.54526  0.09172  0.01205  1.0000
  C   C2296     1.0  0.90428  0.44265  0.10258  1.0000
  H   H2738     1.0  0.90028  0.45160  0.09805  1.0000
  H   H2739     1.0  0.90452  0.44378  0.08008  1.0000
  H   H2740     1.0  0.54689  0.19286  0.99283  1.0000
  H   H2741     1.0  0.96770  0.44243  0.15496  1.0000
  C   C2297     1.0  0.72780  0.36746  0.01697  1.0000
  H   H2742     1.0  0.52011  0.25707  0.06778  1.0000
  C   C2298     1.0  0.90888  0.43534  0.08509  1.0000
  H   H2743     1.0  0.90042  0.44150  0.11218  1.0000
  H   H2744     1.0  0.91785  0.42157  0.10362  1.0000
  H   H2745     1.0  0.97074  0.44100  0.17411  1.0000
  H   H2746     1.0  0.90388  0.41994  0.11333  1.0000
  C   C2299     1.0  0.71269  0.45480  0.03032  1.0000
  H   H2747     1.0  0.52713  0.07510  0.07936  1.0000
  C   C2300     1.0  0.68544  0.46132  0.01116  1.0000
  H   H2748     1.0  0.91809  0.47652  0.00003  1.0000
  H   H2749     1.0  0.54238  0.20326  0.05692  1.0000
  C   C2301     1.0  0.73930  0.40311  0.00591  1.0000
  H   H2750     1.0  0.55257  0.35116  0.02167  1.0000
  C   C2302     1.0  0.52920  0.20128  0.04209  1.0000
  C   C2303     1.0  0.53016  0.19110  0.05098  1.0000
  N   N149      1.0  0.90271  0.43344  0.09766  1.0000
  H   H2751     1.0  0.90906  0.42831  0.08080  1.0000
  C   C2304     1.0  0.52057  0.06909  0.01771  1.0000
  N   N150      1.0  0.55156  0.33538  0.03524  1.0000
  C   C2305     1.0  0.50074  0.13145  0.02978  1.0000
  H   H2752     1.0  0.69083  0.48448  0.02420  1.0000
  C   C2306     1.0  0.53541  0.25725  0.05365  1.0000
  C   C2307     1.0  0.54245  0.20667  0.06445  1.0000
  C   C2308     1.0  0.52184  0.23190  0.05136  1.0000
  H   H2753     1.0  0.53739  0.20180  0.07250  1.0000
  C   C2309     1.0  0.90853  0.42187  0.10392  1.0000
  H   H2754     1.0  0.90868  0.41456  0.10002  1.0000
  C   C2310     1.0  0.53307  0.05635  0.00471  1.0000
  C   C2311     1.0  0.53103  0.00502  0.16072  1.0000
  C   C2312     1.0  0.65660  0.00579  0.16737  1.0000
  H   H2755     1.0  0.53395  0.07399  0.10524  1.0000
  C   C2313     1.0  0.53967  0.25905  0.04148  1.0000
  H   H2756     1.0  0.53512  0.26271  0.02474  1.0000
  H   H2757     1.0  0.59454  0.26344  0.99158  1.0000
  H   H2758     1.0  0.92744  0.47146  0.17988  1.0000
  C   C2314     1.0  0.53788  0.22372  0.07273  1.0000
  C   C2315     1.0  0.68962  0.47767  0.02084  1.0000
  N   N151      1.0  0.84255  0.46693  0.04358  1.0000
  C   C2316     1.0  0.97990  0.43614  0.17126  1.0000
  C   C2317     1.0  0.60102  0.24056  0.00275  1.0000
  C   C2318     1.0  0.55509  0.03157  0.14674  1.0000
  H   H2759     1.0  0.56200  0.02689  0.14034  1.0000
  C   C2319     1.0  0.89022  0.43361  0.09874  1.0000
  C   C2320     1.0  0.52335  0.25855  0.05837  1.0000
  S   S617      1.0  0.54512  0.99909  0.09797  1.0000
  C   C2321     1.0  0.86646  0.43344  0.10054  1.0000
  H   H2760     1.0  0.52780  0.23663  0.04464  1.0000
  H   H2761     1.0  0.53152  0.26395  0.00373  1.0000
  H   H2762     1.0  0.52826  0.05599  0.08816  1.0000
  H   H2763     1.0  0.53376  0.23327  0.07185  1.0000
  C   C2322     1.0  0.53183  0.26186  0.03409  1.0000
  S   S618      1.0  0.52996  0.10910  0.03681  1.0000
  H   H2764     1.0  0.63172  0.35660  0.01299  1.0000
  H   H2765     1.0  0.88472  0.48105  0.02455  1.0000
  H   H2766     1.0  0.73744  0.48184  0.99501  1.0000
  H   H2767     1.0  0.62062  0.26677  0.02977  1.0000
  C   C2323     1.0  0.55086  0.08587  0.06314  1.0000
  C   C2324     1.0  0.79711  0.39069  0.02462  1.0000
  C   C2325     1.0  0.53597  0.05194  0.09222  1.0000
  C   C2326     1.0  0.51811  0.20828  0.04092  1.0000
  C   C2327     1.0  0.52014  0.18810  0.05897  1.0000
  H   H2768     1.0  0.51731  0.21618  0.03409  1.0000
  H   H2769     1.0  0.54071  0.22978  0.99590  1.0000
  C   C2328     1.0  0.52966  0.05894  0.01608  1.0000
  H   H2770     1.0  0.52100  0.18026  0.06586  1.0000
  C   C2329     1.0  0.56544  0.02448  0.19020  1.0000
  Fe  Fe317     1.0  0.52975  0.09073  0.03648  1.0000
  C   C2330     1.0  0.80592  0.38643  0.03103  1.0000
  H   H2771     1.0  0.56730  0.02529  0.16384  1.0000
  C   C2331     1.0  0.51975  0.26325  0.03881  1.0000
  C   C2332     1.0  0.60548  0.18782  0.99426  1.0000
  H   H2772     1.0  0.54852  0.03773  0.16767  1.0000
  C   C2333     1.0  0.81751  0.45881  0.00804  1.0000
  H   H2773     1.0  0.54780  0.03565  0.03081  1.0000
  S   S619      1.0  0.57959  0.16332  0.00690  1.0000
  H   H2774     1.0  0.53550  0.37022  0.00484  1.0000
  S   S620      1.0  0.82256  0.39602  0.99763  1.0000
  C   C2334     1.0  0.97709  0.43806  0.15202  1.0000
  H   H2775     1.0  0.52710  0.20679  0.00282  1.0000
  H   H2776     1.0  0.57422  0.02572  0.18616  1.0000
  Fe  Fe318     1.0  0.60313  0.32283  0.99298  1.0000
  H   H2777     1.0  0.57869  0.29499  0.99405  1.0000
  C   C2335     1.0  0.63340  0.02879  0.18640  1.0000
  H   H2778     1.0  0.54178  0.28780  0.04395  1.0000
  C   C2336     1.0  0.52755  0.06341  0.99567  1.0000
  H   H2779     1.0  0.50833  0.08389  0.01001  1.0000
  H   H2780     1.0  0.61690  0.35230  0.00533  1.0000
  C   C2337     1.0  0.62762  0.02131  0.18442  1.0000
  H   H2781     1.0  0.79725  0.37410  0.00360  1.0000
  C   C2338     1.0  0.61616  0.25180  0.99502  1.0000
  H   H2782     1.0  0.50327  0.14264  0.05318  1.0000
  C   C2339     1.0  0.61554  0.19721  0.00280  1.0000
  H   H2783     1.0  0.84619  0.48237  0.00136  1.0000
  H   H2784     1.0  0.67565  0.47626  0.00080  1.0000
  H   H2785     1.0  0.81384  0.46817  0.00439  1.0000
  H   H2786     1.0  0.74202  0.46035  0.99915  1.0000
  H   H2787     1.0  0.60958  0.47300  0.99658  1.0000
  H   H2788     1.0  0.61927  0.25946  0.99533  1.0000
  Fe  Fe319     1.0  0.49729  0.36175  0.00441  1.0000
  H   H2789     1.0  0.74143  0.37707  0.00901  1.0000
  H   H2790     1.0  0.62318  0.00443  0.19052  1.0000
  C   C2340     1.0  0.71357  0.37014  0.00542  1.0000
  C   C2341     1.0  0.52657  0.34890  0.99878  1.0000
  Fe  Fe320     1.0  0.59752  0.34893  0.99366  1.0000
  C   C2342     1.0  0.71949  0.37779  0.99596  1.0000
  C   C2343     1.0  0.73378  0.37496  0.00790  1.0000
  H   H2791     1.0  0.96445  0.41254  0.18871  1.0000
  C   C2344     1.0  0.57826  0.10966  0.99187  1.0000
  C   C2345     1.0  0.59876  0.24004  0.99210  1.0000
  S   S621      1.0  0.49852  0.20345  0.01026  1.0000
  H   H2792     1.0  0.63535  0.00022  0.17208  1.0000
  H   H2793     1.0  0.77921  0.37753  0.99947  1.0000
  H   H2794     1.0  0.58390  0.18592  0.99564  1.0000
  H   H2795     1.0  0.50436  0.24071  0.99478  1.0000
  H   H2796     1.0  0.97961  0.49148  0.18137  1.0000
  C   C2346     1.0  0.62517  0.38276  0.99412  1.0000
  H   H2797     1.0  0.51806  0.30946  0.99596  1.0000
  C   C2347     1.0  0.53800  0.99726  0.15361  1.0000
  C   C2348     1.0  0.61182  0.19641  0.99321  1.0000
  C   C2349     1.0  0.51863  0.07325  0.99759  1.0000
  H   H2798     1.0  0.73509  0.43215  0.99445  1.0000
  S   S622      1.0  0.49686  0.32494  0.99391  1.0000
  H   H2799     1.0  0.61257  0.45163  0.00136  1.0000
  H   H2800     1.0  0.52592  0.26097  0.99301  1.0000
  H   H2801     1.0  0.53333  0.30449  0.99582  1.0000
  H   H2802     1.0  0.59283  0.99452  0.14185  1.0000
  S   S623      1.0  0.51765  0.02261  0.19118  1.0000
  H   H2803     1.0  0.94804  0.49244  0.08221  1.0000
  H   H2804     1.0  0.96020  0.47484  0.19069  1.0000
  H   H2805     1.0  0.80862  0.36724  0.99287  1.0000
  S   S624      1.0  0.59400  0.99330  0.16549  1.0000
  S   S625      1.0  0.56146  0.33488  0.99167  1.0000
  S   S626      1.0  0.66799  0.41736  0.99212  1.0000
  H   H2806     1.0  0.76548  0.37022  0.99372  1.0000
  C   C2350     1.0  0.73353  0.44190  0.99223  1.0000
  S   S627      1.0  0.80653  0.49245  0.99962  1.0000
  N   N152      1.0  0.65416  0.99415  0.16859  1.0000
  H   H2807     1.0  0.50187  0.26662  0.08129  1.0000
  H   H2808     1.0  0.79860  0.39940  0.99258  1.0000
  C   C2351     1.0  0.61635  0.45609  0.99262  1.0000
  C   C2352     1.0  0.49658  0.25076  0.08278  1.0000
  H   H2809     1.0  0.66423  0.99376  0.15090  1.0000
  H   H2810     1.0  0.69686  0.38333  0.99179  1.0000
  H   H2811     1.0  0.70690  0.39929  0.99170  1.0000
  H   H2812     1.0  0.98280  0.48366  0.35077  1.0000
  Fe  Fe321     1.0  0.95171  0.45872  0.25029  1.0000
  S   S628      1.0  0.93277  0.46763  0.25088  1.0000
  S   S629      1.0  0.96513  0.46774  0.25057  1.0000
  Fe  Fe322     1.0  0.94859  0.43552  0.24900  1.0000
  S   S630      1.0  0.92932  0.44211  0.24969  1.0000
  S   S631      1.0  0.95807  0.41691  0.24855  1.0000
  Fe  Fe323     1.0  0.93450  0.45808  0.23685  1.0000
  S   S632      1.0  0.92564  0.46715  0.22162  1.0000
  Fe  Fe324     1.0  0.92947  0.45095  0.26354  1.0000
  S   S633      1.0  0.91639  0.44974  0.28069  1.0000
  S   S634      1.0  0.95390  0.45080  0.23508  1.0000
  S   S635      1.0  0.94833  0.44283  0.26401  1.0000
  C   C2353     1.0  0.61895  0.99389  0.28701  1.0000
  S   S636      1.0  0.52771  0.02697  0.26154  1.0000
  C   C2354     1.0  0.71342  0.01886  0.38528  1.0000
  Fe  Fe325     1.0  0.52817  0.02305  0.29427  1.0000
  S   S637      1.0  0.54355  0.01506  0.28166  1.0000
  S   S638      1.0  0.52974  0.01812  0.31294  1.0000
  Fe  Fe326     1.0  0.53965  0.03232  0.26916  1.0000
  S   S639      1.0  0.55495  0.03997  0.25825  1.0000
  C   C2355     1.0  0.92688  0.46986  0.19820  1.0000
  C   C2356     1.0  0.98559  0.43976  0.22283  1.0000
  H   H2813     1.0  0.49886  0.07774  0.23218  1.0000
  C   C2357     1.0  0.98456  0.42429  0.28848  1.0000
  C   C2358     1.0  0.94819  0.42491  0.19337  1.0000
  H   H2814     1.0  0.56893  0.00586  0.33906  1.0000
  C   C2359     1.0  0.97184  0.41561  0.27822  1.0000
  C   C2360     1.0  0.93871  0.42810  0.20242  1.0000
  N   N153      1.0  0.92968  0.45870  0.35849  1.0000
  H   H2815     1.0  0.52394  0.99542  0.23663  1.0000
  H   H2816     1.0  0.97690  0.48010  0.25728  1.0000
  H   H2817     1.0  0.52089  0.04740  0.21973  1.0000
  H   H2818     1.0  0.55203  0.02487  0.22293  1.0000
  N   N154      1.0  0.51150  0.06370  0.22490  1.0000
  H   H2819     1.0  0.97349  0.43107  0.35640  1.0000
  H   H2820     1.0  0.56774  0.00360  0.28270  1.0000
  C   C2361     1.0  0.94155  0.45089  0.35822  1.0000
  H   H2821     1.0  0.64681  0.00453  0.30655  1.0000
  C   C2362     1.0  0.97800  0.41727  0.21081  1.0000
  H   H2822     1.0  0.94505  0.45011  0.33979  1.0000
  H   H2823     1.0  0.96500  0.43803  0.33885  1.0000
  C   C2363     1.0  0.95531  0.43538  0.30493  1.0000
  C   C2364     1.0  0.98383  0.41082  0.27742  1.0000
  H   H2824     1.0  0.60968  0.02231  0.21027  1.0000
  C   C2365     1.0  0.96561  0.49205  0.26746  1.0000
  H   H2825     1.0  0.96809  0.44807  0.30792  1.0000
  C   C2366     1.0  0.56506  0.04502  0.22538  1.0000
  H   H2826     1.0  0.91841  0.47590  0.19968  1.0000
  H   H2827     1.0  0.51185  0.07971  0.21159  1.0000
  H   H2828     1.0  0.53493  0.03211  0.32861  1.0000
  C   C2367     1.0  0.95979  0.48239  0.24433  1.0000
  H   H2829     1.0  0.60949  0.01517  0.33037  1.0000
  C   C2368     1.0  0.98994  0.47835  0.34506  1.0000
  H   H2830     1.0  0.64847  0.01119  0.28535  1.0000
  Fe  Fe327     1.0  0.94253  0.47425  0.31702  1.0000
  S   S640      1.0  0.95258  0.48234  0.29953  1.0000
  S   S641      1.0  0.93341  0.45946  0.32094  1.0000
  Fe  Fe328     1.0  0.51356  0.03406  0.27588  1.0000
  H   H2831     1.0  0.51866  0.00772  0.36659  1.0000
  C   C2369     1.0  0.63807  0.01454  0.20387  1.0000
  Fe  Fe329     1.0  0.51020  0.01361  0.20926  1.0000
  Fe  Fe330     1.0  0.96588  0.48121  0.30958  1.0000
  S   S642      1.0  0.98530  0.47469  0.30546  1.0000
  N   N155      1.0  0.99242  0.43512  0.24196  1.0000
  S   S643      1.0  0.95675  0.47148  0.32653  1.0000
  Fe  Fe331     1.0  0.51690  0.03696  0.19974  1.0000
  H   H2832     1.0  0.56781  0.00350  0.24410  1.0000
  C   C2370     1.0  0.95118  0.48290  0.35864  1.0000
  H   H2833     1.0  0.56518  0.01621  0.32071  1.0000
  H   H2834     1.0  0.92508  0.45070  0.34708  1.0000
  H   H2835     1.0  0.61110  0.02322  0.29051  1.0000
  C   C2371     1.0  0.62764  0.00966  0.31131  1.0000
  C   C2372     1.0  0.53924  0.01590  0.34176  1.0000
  C   C2373     1.0  0.51559  0.02365  0.35353  1.0000
  C   C2374     1.0  0.94855  0.45406  0.19436  1.0000
  C   C2375     1.0  0.98463  0.46803  0.28587  1.0000
  C   C2376     1.0  0.53897  0.07002  0.22910  1.0000
  H   H2836     1.0  0.50517  0.06966  0.20883  1.0000
  H   H2837     1.0  0.50628  0.02977  0.30974  1.0000
  H   H2838     1.0  0.97707  0.47525  0.28509  1.0000
  C   C2377     1.0  0.60044  0.99634  0.30676  1.0000
  C   C2378     1.0  0.55891  0.02932  0.22199  1.0000
  H   H2839     1.0  0.83561  0.99809  0.38828  1.0000
  C   C2379     1.0  0.51184  0.00159  0.26688  1.0000
  H   H2840     1.0  0.98014  0.42432  0.24472  1.0000
  H   H2841     1.0  0.96174  0.43641  0.37523  1.0000
  H   H2842     1.0  0.60955  0.00110  0.32799  1.0000
  C   C2380     1.0  0.98317  0.44759  0.21249  1.0000
  C   C2381     1.0  0.95794  0.43933  0.36756  1.0000
  C   C2382     1.0  0.52036  0.03042  0.34288  1.0000
  H   H2843     1.0  0.92262  0.45446  0.37718  1.0000
  S   S644      1.0  0.64486  0.01018  0.21585  1.0000
  C   C2383     1.0  0.96456  0.43633  0.35699  1.0000
  H   H2844     1.0  0.98772  0.44870  0.25193  1.0000
  H   H2845     1.0  0.83742  0.01799  0.38825  1.0000
  C   C2384     1.0  0.97586  0.48841  0.25937  1.0000
  S   S645      1.0  0.51504  0.01701  0.28910  1.0000
  N   N156      1.0  0.59175  0.02674  0.20813  1.0000
  S   S646      1.0  0.58927  0.99883  0.31921  1.0000
  C   C2385     1.0  0.98897  0.46261  0.21754  1.0000
  H   H2846     1.0  0.98496  0.46280  0.27016  1.0000
  C   C2386     1.0  0.62720  0.01044  0.19212  1.0000
  H   H2847     1.0  0.55558  0.02823  0.32696  1.0000
  C   C2387     1.0  0.57569  0.99844  0.27767  1.0000
  H   H2848     1.0  0.93214  0.43592  0.20008  1.0000
  H   H2849     1.0  0.70476  0.01267  0.37582  1.0000
  H   H2850     1.0  0.71972  0.02184  0.37749  1.0000
  C   C2388     1.0  0.53407  0.00928  0.35265  1.0000
  C   C2389     1.0  0.52061  0.05913  0.24231  1.0000
  C   C2390     1.0  0.95613  0.40785  0.20694  1.0000
  H   H2851     1.0  0.98003  0.44472  0.20648  1.0000
  C   C2391     1.0  0.56559  0.02850  0.25278  1.0000
  C   C2392     1.0  0.57756  0.02820  0.25085  1.0000
  C   C2393     1.0  0.58603  0.01875  0.24687  1.0000
  H   H2852     1.0  0.59186  0.00827  0.21315  1.0000
  C   C2394     1.0  0.94632  0.48368  0.37037  1.0000
  C   C2395     1.0  0.56210  0.01948  0.25052  1.0000
  H   H2853     1.0  0.58026  0.03513  0.25268  1.0000
  H   H2854     1.0  0.51378  0.05466  0.24782  1.0000
  S   S647      1.0  0.93279  0.49129  0.32235  1.0000
  H   H2855     1.0  0.55288  0.01971  0.25193  1.0000
  H   H2856     1.0  0.95692  0.44790  0.19288  1.0000
  C   C2396     1.0  0.98548  0.44039  0.25216  1.0000
  Fe  Fe332     1.0  0.98291  0.44466  0.38222  1.0000
  H   H2857     1.0  0.55793  0.00118  0.35122  1.0000
  C   C2397     1.0  0.58250  0.00987  0.24439  1.0000
  H   H2858     1.0  0.52071  0.06645  0.20665  1.0000
  Fe  Fe333     1.0  0.53025  0.01044  0.27546  1.0000
  H   H2859     1.0  0.96393  0.47248  0.34702  1.0000
  C   C2398     1.0  0.94885  0.48862  0.24952  1.0000
  C   C2399     1.0  0.92118  0.45281  0.29162  1.0000
  C   C2400     1.0  0.91722  0.44759  0.30337  1.0000
  C   C2401     1.0  0.92103  0.44975  0.31226  1.0000
  C   C2402     1.0  0.92853  0.45743  0.30950  1.0000
  C   C2403     1.0  0.93237  0.46284  0.29775  1.0000
  C   C2404     1.0  0.92887  0.46036  0.28878  1.0000
  H   H2860     1.0  0.91128  0.44177  0.30559  1.0000
  H   H2861     1.0  0.91804  0.44553  0.32130  1.0000
  H   H2862     1.0  0.93803  0.46890  0.29556  1.0000
  H   H2863     1.0  0.93186  0.46451  0.27970  1.0000
  H   H2864     1.0  0.61396  0.00199  0.34049  1.0000
  H   H2865     1.0  0.63178  0.00790  0.33842  1.0000
  S   S648      1.0  0.62026  0.00791  0.24434  1.0000
  C   C2405     1.0  0.93260  0.46442  0.20752  1.0000
  C   C2406     1.0  0.94355  0.45663  0.20552  1.0000
  H   H2866     1.0  0.98415  0.43106  0.22426  1.0000
  H   H2867     1.0  0.53131  0.07370  0.21450  1.0000
  H   H2868     1.0  0.52908  0.05539  0.25673  1.0000
  H   H2869     1.0  0.94810  0.45245  0.21258  1.0000
  C   C2407     1.0  0.70494  0.01367  0.38434  1.0000
  Fe  Fe334     1.0  0.94799  0.48927  0.33030  1.0000
  H   H2870     1.0  0.50780  0.00158  0.19473  1.0000
  H   H2871     1.0  0.63076  0.02039  0.27722  1.0000
  H   H2872     1.0  0.57654  0.00286  0.26826  1.0000
  S   S649      1.0  0.98642  0.41860  0.19646  1.0000
  H   H2873     1.0  0.58838  0.01556  0.19897  1.0000
  H   H2874     1.0  0.98815  0.49077  0.37516  1.0000
  C   C2408     1.0  0.57043  0.02495  0.21630  1.0000
  C   C2409     1.0  0.96752  0.42552  0.21331  1.0000
  C   C2410     1.0  0.96122  0.42516  0.22492  1.0000
  C   C2411     1.0  0.96533  0.41648  0.23402  1.0000
  H   H2875     1.0  0.99466  0.45799  0.23357  1.0000
  C   C2412     1.0  0.54271  0.02152  0.20123  1.0000
  H   H2876     1.0  0.96437  0.43229  0.20631  1.0000
  H   H2877     1.0  0.95316  0.43159  0.22680  1.0000
  H   H2878     1.0  0.64198  0.01031  0.32461  1.0000
  H   H2879     1.0  0.96694  0.41235  0.27409  1.0000
  H   H2880     1.0  0.97644  0.43314  0.30932  1.0000
  C   C2413     1.0  0.53848  0.06491  0.24096  1.0000
  H   H2881     1.0  0.57188  0.01707  0.21317  1.0000
  H   H2882     1.0  0.92183  0.47618  0.34983  1.0000
  C   C2414     1.0  0.57963  0.03067  0.21479  1.0000
  H   H2883     1.0  0.50487  0.02912  0.25748  1.0000
  C   C2415     1.0  0.97224  0.42907  0.28986  1.0000
  H   H2884     1.0  0.53891  0.00096  0.35669  1.0000
  H   H2885     1.0  0.58345  0.99924  0.28024  1.0000
  N   N157      1.0  0.96591  0.43858  0.29629  1.0000
  H   H2886     1.0  0.67980  0.03772  0.38606  1.0000
  H   H2887     1.0  0.79366  0.05305  0.39070  1.0000
  H   H2888     1.0  0.52888  0.99684  0.24857  1.0000
  H   H2889     1.0  0.93695  0.47393  0.35027  1.0000
  C   C2416     1.0  0.96611  0.42458  0.28436  1.0000
  H   H2890     1.0  0.59347  0.04428  0.19859  1.0000
  C   C2417     1.0  0.98201  0.40840  0.21987  1.0000
  H   H2891     1.0  0.50643  0.00090  0.31287  1.0000
  H   H2892     1.0  0.97126  0.45697  0.36302  1.0000
  C   C2418     1.0  0.51240  0.07022  0.21247  1.0000
  H   H2893     1.0  0.91822  0.41330  0.22174  1.0000
  C   C2419     1.0  0.63882  0.00858  0.30341  1.0000
  Fe  Fe335     1.0  0.61072  0.99514  0.24301  1.0000
  C   C2420     1.0  0.99141  0.45484  0.22790  1.0000
  C   C2421     1.0  0.59380  0.01518  0.20511  1.0000
  S   S650      1.0  0.52534  0.04090  0.28240  1.0000
  C   C2422     1.0  0.63233  0.00711  0.20183  1.0000
  N   N158      1.0  0.99247  0.48494  0.33269  1.0000
  N   N159      1.0  0.92767  0.42492  0.22360  1.0000
  C   C2423     1.0  0.92923  0.41835  0.23557  1.0000
  C   C2424     1.0  0.92560  0.43762  0.22337  1.0000
  C   C2425     1.0  0.91703  0.42273  0.22173  1.0000
  C   C2426     1.0  0.93783  0.42141  0.21414  1.0000
  H   H2894     1.0  0.97880  0.40119  0.23855  1.0000
  C   C2427     1.0  0.94675  0.41101  0.21609  1.0000
  C   C2428     1.0  0.96438  0.46445  0.36513  1.0000
  H   H2895     1.0  0.95547  0.44874  0.28357  1.0000
  H   H2896     1.0  0.58993  0.00708  0.29437  1.0000
  H   H2897     1.0  0.93748  0.41920  0.23724  1.0000
  H   H2898     1.0  0.92188  0.42169  0.24257  1.0000
  H   H2899     1.0  0.92946  0.40885  0.23699  1.0000
  H   H2900     1.0  0.59891  0.01927  0.22355  1.0000
  H   H2901     1.0  0.92280  0.44346  0.21537  1.0000
  C   C2429     1.0  0.59404  0.03553  0.19701  1.0000
  H   H2902     1.0  0.91498  0.42797  0.21315  1.0000
  H   H2903     1.0  0.54739  0.04242  0.23134  1.0000
  H   H2904     1.0  0.90915  0.42512  0.22871  1.0000
  H   H2905     1.0  0.97756  0.48129  0.32933  1.0000
  H   H2906     1.0  0.94692  0.40533  0.22466  1.0000
  H   H2907     1.0  0.58297  0.04584  0.21853  1.0000
  H   H2908     1.0  0.99032  0.47148  0.21543  1.0000
  H   H2909     1.0  0.99008  0.40191  0.21793  1.0000
  H   H2910     1.0  0.56302  0.05257  0.22929  1.0000
  H   H2911     1.0  0.60052  0.03404  0.21679  1.0000
  C   C2430     1.0  0.98965  0.42345  0.24409  1.0000
  H   H2912     1.0  0.50349  0.00274  0.34893  1.0000
  H   H2913     1.0  0.96974  0.45167  0.28055  1.0000
  C   C2431     1.0  0.52933  0.05946  0.24753  1.0000
  C   C2432     1.0  0.53030  0.06972  0.22375  1.0000
  C   C2433     1.0  0.52245  0.01310  0.35841  1.0000
  H   H2914     1.0  0.54527  0.06501  0.24509  1.0000
  H   H2915     1.0  0.53399  0.02022  0.20545  1.0000
  H   H2916     1.0  0.99172  0.41765  0.25243  1.0000
  C   C2434     1.0  0.99019  0.41523  0.28242  1.0000
  C   C2435     1.0  0.94666  0.44657  0.36821  1.0000
  H   H2917     1.0  0.97441  0.48265  0.22943  1.0000
  H   H2918     1.0  0.98679  0.47035  0.34580  1.0000
  S   S651      1.0  0.51123  0.02696  0.21803  1.0000
  C   C2436     1.0  0.59849  0.00167  0.29545  1.0000
  C   C2437     1.0  0.60770  0.00021  0.28552  1.0000
  C   C2438     1.0  0.49726  0.03544  0.25501  1.0000
  H   H2919     1.0  0.94230  0.44889  0.37658  1.0000
  C   C2439     1.0  0.95693  0.41485  0.19565  1.0000
  C   C2440     1.0  0.63989  0.01247  0.29127  1.0000
  C   C2441     1.0  0.95977  0.44030  0.34708  1.0000
  Fe  Fe336     1.0  0.63520  0.99912  0.23165  1.0000
  H   H2920     1.0  0.95681  0.42799  0.28476  1.0000
  H   H2921     1.0  0.94388  0.48453  0.25779  1.0000
  C   C2442     1.0  0.49969  0.06854  0.23166  1.0000
  C   C2443     1.0  0.98477  0.45901  0.20989  1.0000
  C   C2444     1.0  0.53199  0.02665  0.33704  1.0000
  C   C2445     1.0  0.55211  0.01174  0.20098  1.0000
  H   H2922     1.0  0.94828  0.43543  0.30070  1.0000
  H   H2923     1.0  0.91524  0.46826  0.36977  1.0000
  C   C2446     1.0  0.97315  0.44111  0.30291  1.0000
  C   C2447     1.0  0.61765  0.01535  0.30632  1.0000
  C   C2448     1.0  0.95030  0.47475  0.37947  1.0000
  H   H2924     1.0  0.91848  0.44034  0.23082  1.0000
  C   C2449     1.0  0.93041  0.46966  0.34937  1.0000
  C   C2450     1.0  0.99025  0.46590  0.29508  1.0000
  H   H2925     1.0  0.50514  0.05038  0.22166  1.0000
  H   H2926     1.0  0.51425  0.00990  0.26491  1.0000
  S   S652      1.0  0.57496  0.00069  0.19510  1.0000
  H   H2927     1.0  0.51488  0.03844  0.33892  1.0000
  C   C2451     1.0  0.50404  0.00865  0.34041  1.0000
  C   C2452     1.0  0.95941  0.46517  0.37688  1.0000
  H   H2928     1.0  0.62829  0.02083  0.32725  1.0000
  H   H2929     1.0  0.55072  0.02157  0.31810  1.0000
  H   H2930     1.0  0.99009  0.42738  0.29196  1.0000
  C   C2453     1.0  0.55624  0.03928  0.22659  1.0000
  C   C2454     1.0  0.62992  0.01774  0.28666  1.0000
  H   H2931     1.0  0.92945  0.46700  0.37210  1.0000
  S   S653      1.0  0.53255  0.04482  0.19541  1.0000
  H   H2932     1.0  0.95756  0.42652  0.31063  1.0000
  H   H2933     1.0  0.95111  0.44174  0.31076  1.0000
  S   S654      1.0  0.63109  0.99317  0.27514  1.0000
  H   H2934     1.0  0.55879  0.01631  0.34724  1.0000
  H   H2935     1.0  0.91283  0.45818  0.35635  1.0000
  C   C2455     1.0  0.63871  0.02536  0.19606  1.0000
  H   H2936     1.0  0.98708  0.43444  0.26064  1.0000
  C   C2456     1.0  0.94839  0.44732  0.34770  1.0000
  H   H2937     1.0  0.95824  0.45716  0.29202  1.0000
  C   C2457     1.0  0.51233  0.05126  0.22513  1.0000
  S   S655      1.0  0.59281  0.99787  0.23964  1.0000
  C   C2458     1.0  0.61885  0.01930  0.29417  1.0000
  C   C2459     1.0  0.97561  0.40794  0.23150  1.0000
  H   H2938     1.0  0.98997  0.47854  0.24056  1.0000
  C   C2460     1.0  0.98134  0.48888  0.32859  1.0000
  N   N160      1.0  0.55145  0.01136  0.33565  1.0000
  C   C2461     1.0  0.51508  0.00962  0.33313  1.0000
  C   C2462     1.0  0.92404  0.46221  0.36992  1.0000
  C   C2463     1.0  0.96016  0.47321  0.35603  1.0000
  C   C2464     1.0  0.61438  0.00584  0.33096  1.0000
  C   C2465     1.0  0.98912  0.46106  0.27741  1.0000
  H   H2939     1.0  0.93367  0.43981  0.22393  1.0000
  H   H2940     1.0  0.59525  0.01841  0.24566  1.0000
  C   C2466     1.0  0.92191  0.45267  0.35602  1.0000
  C   C2467     1.0  0.96218  0.44950  0.28776  1.0000
  C   C2468     1.0  0.50165  0.00103  0.26408  1.0000
  C   C2469     1.0  0.55959  0.00858  0.34363  1.0000
  C   C2470     1.0  0.57055  0.01033  0.24605  1.0000
  H   H2941     1.0  0.93300  0.46805  0.34036  1.0000
  H   H2942     1.0  0.54617  0.07417  0.22400  1.0000
  S   S656      1.0  0.98661  0.42808  0.37603  1.0000
  C   C2471     1.0  0.51590  0.01721  0.32207  1.0000
  C   C2472     1.0  0.52076  0.06433  0.23026  1.0000
  H   H2943     1.0  0.99491  0.41864  0.23707  1.0000
  C   C2473     1.0  0.55204  0.00048  0.33204  1.0000
  H   H2944     1.0  0.92141  0.44417  0.36245  1.0000
  H   H2945     1.0  0.60627  0.00449  0.27679  1.0000
  H   H2946     1.0  0.60876  0.01652  0.31153  1.0000
  H   H2947     1.0  0.98079  0.44450  0.29696  1.0000
  C   C2474     1.0  0.50568  0.02381  0.31825  1.0000
  C   C2475     1.0  0.54459  0.03282  0.19592  1.0000
  H   H2948     1.0  0.50647  0.02644  0.35785  1.0000
  C   C2476     1.0  0.60052  0.02558  0.21500  1.0000
  H   H2949     1.0  0.55050  0.00304  0.20492  1.0000
  C   C2477     1.0  0.96614  0.48758  0.23362  1.0000
  C   C2478     1.0  0.57654  0.04092  0.21943  1.0000
  H   H2950     1.0  0.51164  0.04572  0.23413  1.0000
  H   H2951     1.0  0.93939  0.49116  0.37244  1.0000
  H   H2952     1.0  0.98279  0.46509  0.20193  1.0000
  H   H2953     1.0  0.96310  0.40015  0.20871  1.0000
  H   H2954     1.0  0.94960  0.48291  0.20777  1.0000
  N   N161      1.0  0.62672  0.00486  0.32408  1.0000
  H   H2955     1.0  0.97589  0.44238  0.25251  1.0000
  C   C2479     1.0  0.98972  0.44318  0.23093  1.0000
  H   H2956     1.0  0.95918  0.48663  0.27111  1.0000
  H   H2957     1.0  0.98822  0.40372  0.27283  1.0000
  H   H2958     1.0  0.54616  0.00224  0.32591  1.0000
  S   S657      1.0  0.51705  0.99462  0.21583  1.0000
  C   C2480     1.0  0.55588  0.01977  0.32491  1.0000
  H   H2959     1.0  0.56113  0.99670  0.32753  1.0000
  H   H2960     1.0  0.52296  0.00439  0.33606  1.0000
  H   H2961     1.0  0.53612  0.00192  0.23375  1.0000
  H   H2962     1.0  0.63238  0.99852  0.20736  1.0000
  C   C2481     1.0  0.63245  0.01126  0.32876  1.0000
  H   H2963     1.0  0.60307  0.01222  0.20058  1.0000
  C   C2482     1.0  0.56346  0.01318  0.19536  1.0000
  H   H2964     1.0  0.93351  0.48645  0.22320  1.0000
  S   S658      1.0  0.96433  0.45409  0.38843  1.0000
  C   C2483     1.0  0.94651  0.48699  0.19976  1.0000
  H   H2965     1.0  0.64325  0.03113  0.19751  1.0000
  N   N162      1.0  0.99507  0.49195  0.24530  1.0000
  H   H2966     1.0  0.94644  0.47540  0.38852  1.0000
  S   S659      1.0  0.49876  0.04674  0.19749  1.0000
  S   S660      1.0  0.99460  0.45322  0.36647  1.0000
  H   H2967     1.0  0.91664  0.49115  0.21333  1.0000
  H   H2968     1.0  0.73116  0.99505  0.37137  1.0000
  C   C2484     1.0  0.53189  0.99478  0.23975  1.0000
  H   H2969     1.0  0.54919  0.99358  0.33963  1.0000
  H   H2970     1.0  0.49796  0.02806  0.24059  1.0000
  H   H2971     1.0  0.49772  0.06332  0.24078  1.0000
  S   S661      1.0  0.58990  0.99455  0.35237  1.0000
  H   H2972     1.0  0.49607  0.00896  0.26013  1.0000
  H   H2973     1.0  0.58760  0.03673  0.19160  1.0000
  H   H2974     1.0  0.60300  0.03284  0.19157  1.0000
  C   C2485     1.0  0.68502  0.00087  0.46285  1.0000
  H   H2975     1.0  0.81018  0.99442  0.53058  1.0000
  H   H2976     1.0  0.95237  0.10661  0.58203  1.0000
  H   H2977     1.0  0.77341  0.05116  0.40118  1.0000
  H   H2978     1.0  0.85631  0.99930  0.40407  1.0000
  H   H2979     1.0  0.98599  0.11180  0.45805  1.0000
  S   S662      1.0  0.82548  0.02258  0.44178  1.0000
  S   S663      1.0  0.95727  0.16802  0.54156  1.0000
  H   H2980     1.0  0.79370  0.05625  0.50143  1.0000
  H   H2981     1.0  0.96760  0.09700  0.54658  1.0000
  H   H2982     1.0  0.80249  0.00930  0.42831  1.0000
  Fe  Fe337     1.0  0.80215  0.05117  0.43475  1.0000
  H   H2983     1.0  0.98915  0.16952  0.45846  1.0000
  H   H2984     1.0  0.99178  0.22327  0.59130  1.0000
  Fe  Fe338     1.0  0.68539  0.03342  0.52114  1.0000
  S   S664      1.0  0.69208  0.03396  0.50200  1.0000
  S   S665      1.0  0.66706  0.04296  0.52795  1.0000
  Fe  Fe339     1.0  0.70861  0.01973  0.52684  1.0000
  S   S666      1.0  0.71777  0.01904  0.50808  1.0000
  S   S667      1.0  0.71534  0.01076  0.54325  1.0000
  Fe  Fe340     1.0  0.70808  0.03790  0.50420  1.0000
  S   S668      1.0  0.71394  0.05170  0.48890  1.0000
  Fe  Fe341     1.0  0.70113  0.01519  0.50716  1.0000
  S   S669      1.0  0.70061  0.03909  0.52301  1.0000
  S   S670      1.0  0.69276  0.01409  0.52626  1.0000
  S   S671      1.0  0.69828  0.03924  0.44962  1.0000
  S   S672      1.0  0.95456  0.20196  0.53362  1.0000
  S   S673      1.0  0.79580  0.01142  0.45561  1.0000
  Fe  Fe342     1.0  0.77433  0.02437  0.53355  1.0000
  S   S674      1.0  0.77413  0.01719  0.51864  1.0000
  S   S675      1.0  0.76096  0.02034  0.55020  1.0000
  Fe  Fe343     1.0  0.79533  0.03493  0.52028  1.0000
  S   S676      1.0  0.79685  0.02874  0.50414  1.0000
  S   S677      1.0  0.80769  0.04616  0.51912  1.0000
  Fe  Fe344     1.0  0.77730  0.03451  0.50756  1.0000
  S   S678      1.0  0.76915  0.04280  0.49201  1.0000
  C   C2486     1.0  0.78080  0.04385  0.40271  1.0000
  H   H2985     1.0  0.66651  0.02600  0.44972  1.0000
  S   S679      1.0  0.77580  0.04239  0.52267  1.0000
  S   S680      1.0  0.79378  0.01747  0.53252  1.0000
  Fe  Fe345     1.0  0.93809  0.11681  0.51241  1.0000
  S   S681      1.0  0.95697  0.11697  0.50934  1.0000
  S   S682      1.0  0.92360  0.12768  0.52373  1.0000
  Fe  Fe346     1.0  0.94256  0.10016  0.49620  1.0000
  H   H2986     1.0  0.89025  0.02008  0.45783  1.0000
  S   S683      1.0  0.93625  0.09012  0.48670  1.0000
  Fe  Fe347     1.0  0.96029  0.09762  0.51072  1.0000
  S   S684      1.0  0.64666  0.01008  0.44313  1.0000
  Fe  Fe348     1.0  0.95753  0.11854  0.49045  1.0000
  H   H2987     1.0  0.94577  0.23673  0.54462  1.0000
  S   S685      1.0  0.94114  0.09709  0.51565  1.0000
  S   S686      1.0  0.93813  0.11993  0.49329  1.0000
  Fe  Fe349     1.0  0.88074  0.05074  0.47479  1.0000
  S   S687      1.0  0.88337  0.03117  0.47990  1.0000
  S   S688      1.0  0.87325  0.06056  0.45890  1.0000
  Fe  Fe350     1.0  0.88970  0.05217  0.49526  1.0000
  S   S689      1.0  0.89252  0.03258  0.50248  1.0000
  S   S690      1.0  0.89321  0.06461  0.50424  1.0000
  Fe  Fe351     1.0  0.90025  0.03121  0.48372  1.0000
  C   C2487     1.0  0.77888  0.03351  0.41085  1.0000
  Fe  Fe352     1.0  0.87522  0.03414  0.49814  1.0000
  S   S691      1.0  0.86225  0.02275  0.50810  1.0000
  S   S692      1.0  0.89857  0.05064  0.47674  1.0000
  S   S693      1.0  0.87151  0.05383  0.49280  1.0000
  Fe  Fe353     1.0  0.95768  0.20557  0.47159  1.0000
  S   S694      1.0  0.95550  0.20584  0.45376  1.0000
  C   C2488     1.0  0.76953  0.07426  0.41975  1.0000
  Fe  Fe354     1.0  0.93182  0.20967  0.48261  1.0000
  S   S695      1.0  0.92686  0.21043  0.46600  1.0000
  S   S696      1.0  0.92019  0.20924  0.50066  1.0000
  Fe  Fe355     1.0  0.94214  0.19507  0.46391  1.0000
  S   S697      1.0  0.93869  0.17982  0.45951  1.0000
  Fe  Fe356     1.0  0.94044  0.22121  0.45707  1.0000
  S   S698      1.0  0.93637  0.23740  0.44311  1.0000
  S   S699      1.0  0.94586  0.19336  0.48132  1.0000
  S   S700      1.0  0.94393  0.22195  0.47393  1.0000
  H   H2988     1.0  0.96762  0.43927  0.42699  1.0000
  H   H2989     1.0  0.90177  0.10171  0.45318  1.0000
  Fe  Fe357     1.0  0.80593  0.02526  0.44576  1.0000
  C   C2489     1.0  0.66689  0.01920  0.55766  1.0000
  S   S701      1.0  0.93846  0.18219  0.56151  1.0000
  H   H2990     1.0  0.68202  0.04842  0.43103  1.0000
  S   S702      1.0  0.63070  0.02538  0.51280  1.0000
  H   H2991     1.0  0.72950  0.00256  0.45278  1.0000
  H   H2992     1.0  0.95058  0.19981  0.57383  1.0000
  H   H2993     1.0  0.97522  0.15298  0.46868  1.0000
  S   S703      1.0  0.91765  0.01975  0.47708  1.0000
  H   H2994     1.0  0.69120  0.04352  0.41366  1.0000
  H   H2995     1.0  0.85210  0.01023  0.41914  1.0000
  C   C2490     1.0  0.74346  0.00137  0.47434  1.0000
  C   C2491     1.0  0.95856  0.10164  0.54926  1.0000
  H   H2996     1.0  0.77146  0.00501  0.46735  1.0000
  H   H2997     1.0  0.95295  0.03758  0.48511  1.0000
  N   N163      1.0  0.96319  0.29293  0.52858  1.0000
  H   H2998     1.0  0.87170  0.08659  0.48203  1.0000
  S   S704      1.0  0.98609  0.33739  0.45089  1.0000
  C   C2492     1.0  0.87905  0.08100  0.47681  1.0000
  H   H2999     1.0  0.98711  0.26324  0.48574  1.0000
  Fe  Fe358     1.0  0.94954  0.27636  0.47151  1.0000
  S   S705      1.0  0.95108  0.25790  0.48210  1.0000
  S   S706      1.0  0.94117  0.28229  0.45600  1.0000
  Fe  Fe359     1.0  0.96124  0.28353  0.48664  1.0000
  S   S707      1.0  0.96388  0.26553  0.49838  1.0000
  S   S708      1.0  0.96646  0.29767  0.49136  1.0000
  Fe  Fe360     1.0  0.96920  0.25915  0.48154  1.0000
  H   H3000     1.0  0.94455  0.13343  0.52663  1.0000
  Fe  Fe361     1.0  0.94550  0.26625  0.49759  1.0000
  S   S709      1.0  0.93102  0.26151  0.51286  1.0000
  S   S710      1.0  0.96808  0.27711  0.46988  1.0000
  S   S711      1.0  0.94239  0.28474  0.48708  1.0000
  H   H3001     1.0  0.97162  0.21306  0.51751  1.0000
  H   H3002     1.0  0.53577  0.00947  0.56705  1.0000
  H   H3003     1.0  0.66310  0.02501  0.42140  1.0000
  H   H3004     1.0  0.88457  0.09073  0.48980  1.0000
  C   C2493     1.0  0.82819  0.00812  0.41762  1.0000
  H   H3005     1.0  0.65145  0.03272  0.47845  1.0000
  C   C2494     1.0  0.83079  0.00446  0.46818  1.0000
  H   H3006     1.0  0.70104  0.00513  0.46286  1.0000
  N   N164      1.0  0.80527  0.06076  0.48452  1.0000
  C   C2495     1.0  0.84245  0.04509  0.46066  1.0000
  C   C2496     1.0  0.98577  0.15129  0.51995  1.0000
  H   H3007     1.0  0.90829  0.00613  0.45288  1.0000
  C   C2497     1.0  0.74114  0.99624  0.40737  1.0000
  S   S712      1.0  0.62289  0.99539  0.51466  1.0000
  H   H3008     1.0  0.94416  0.13373  0.57652  1.0000
  H   H3009     1.0  0.98803  0.20981  0.54005  1.0000
  S   S713      1.0  0.97455  0.26089  0.54847  1.0000
  C   C2498     1.0  0.92134  0.04237  0.50429  1.0000
  H   H3010     1.0  0.69046  0.00845  0.41293  1.0000
  C   C2499     1.0  0.67880  0.03702  0.39537  1.0000
  C   C2500     1.0  0.98068  0.32627  0.46201  1.0000
  C   C2501     1.0  0.97891  0.32664  0.47377  1.0000
  C   C2502     1.0  0.97450  0.31782  0.48268  1.0000
  C   C2503     1.0  0.97213  0.30844  0.47990  1.0000
  C   C2504     1.0  0.97412  0.30791  0.46812  1.0000
  C   C2505     1.0  0.97828  0.31690  0.45916  1.0000
  H   H3011     1.0  0.98065  0.33388  0.47603  1.0000
  H   H3012     1.0  0.97281  0.31841  0.49175  1.0000
  H   H3013     1.0  0.97236  0.30066  0.46595  1.0000
  H   H3014     1.0  0.97975  0.31656  0.45005  1.0000
  C   C2506     1.0  0.89214  0.09499  0.47079  1.0000
  H   H3015     1.0  0.98254  0.17280  0.53641  1.0000
  S   S714      1.0  0.98664  0.14950  0.55071  1.0000
  H   H3016     1.0  0.78692  0.06584  0.47270  1.0000
  H   H3017     1.0  0.89107  0.07377  0.45794  1.0000
  H   H3018     1.0  0.91356  0.23969  0.55075  1.0000
  H   H3019     1.0  0.97074  0.14798  0.51657  1.0000
  C   C2507     1.0  0.79574  0.07140  0.45519  1.0000
  S   S715      1.0  0.78813  0.06720  0.43023  1.0000
  H   H3020     1.0  0.75472  0.08034  0.41159  1.0000
  C   C2508     1.0  0.93361  0.26409  0.52524  1.0000
  C   C2509     1.0  0.92457  0.27050  0.53259  1.0000
  C   C2510     1.0  0.92668  0.27254  0.54253  1.0000
  Fe  Fe362     1.0  0.71555  0.03474  0.43719  1.0000
  S   S716      1.0  0.98658  0.23678  0.56499  1.0000
  C   C2511     1.0  0.94471  0.25960  0.52791  1.0000
  H   H3021     1.0  0.91597  0.27399  0.53053  1.0000
  H   H3022     1.0  0.91971  0.27756  0.54818  1.0000
  H   H3023     1.0  0.74796  0.00118  0.40351  1.0000
  H   H3024     1.0  0.95167  0.25449  0.52235  1.0000
  Fe  Fe363     1.0  0.82212  0.03938  0.44765  1.0000
  C   C2512     1.0  0.92737  0.21810  0.58425  1.0000
  H   H3025     1.0  0.97233  0.22987  0.49411  1.0000
  C   C2513     1.0  0.93776  0.26796  0.54525  1.0000
  C   C2514     1.0  0.89635  0.10178  0.48609  1.0000
  H   H3026     1.0  0.84299  0.03830  0.47894  1.0000
  C   C2515     1.0  0.93883  0.24998  0.44552  1.0000
  C   C2516     1.0  0.93213  0.26107  0.44136  1.0000
  C   C2517     1.0  0.93317  0.27109  0.44422  1.0000
  C   C2518     1.0  0.94113  0.27007  0.45098  1.0000
  C   C2519     1.0  0.94849  0.25913  0.45432  1.0000
  C   C2520     1.0  0.94717  0.24905  0.45182  1.0000
  H   H3027     1.0  0.92582  0.26183  0.43630  1.0000
  H   H3028     1.0  0.92758  0.27955  0.44146  1.0000
  H   H3029     1.0  0.95525  0.25841  0.45876  1.0000
  H   H3030     1.0  0.95268  0.24057  0.45464  1.0000
  C   C2521     1.0  0.96128  0.14394  0.47218  1.0000
  C   C2522     1.0  0.94971  0.14509  0.47156  1.0000
  C   C2523     1.0  0.94297  0.15612  0.46737  1.0000
  C   C2524     1.0  0.94768  0.16610  0.46402  1.0000
  C   C2525     1.0  0.95934  0.16498  0.46444  1.0000
  C   C2526     1.0  0.96622  0.15384  0.46834  1.0000
  H   H3031     1.0  0.94597  0.13746  0.47414  1.0000
  H   H3032     1.0  0.93401  0.15696  0.46688  1.0000
  H   H3033     1.0  0.96303  0.17268  0.46170  1.0000
  H   H3034     1.0  0.81097  0.04300  0.48207  1.0000
  C   C2527     1.0  0.92400  0.08340  0.49168  1.0000
  C   C2528     1.0  0.92214  0.07713  0.48448  1.0000
  C   C2529     1.0  0.91289  0.07119  0.48826  1.0000
  C   C2530     1.0  0.90527  0.07158  0.49926  1.0000
  C   C2531     1.0  0.90711  0.07786  0.50645  1.0000
  C   C2532     1.0  0.91644  0.08372  0.50271  1.0000
  H   H3035     1.0  0.92792  0.07683  0.47593  1.0000
  H   H3036     1.0  0.91164  0.06632  0.48267  1.0000
  H   H3037     1.0  0.90124  0.07823  0.51496  1.0000
  H   H3038     1.0  0.91777  0.08848  0.50836  1.0000
  C   C2533     1.0  0.82281  0.03966  0.51553  1.0000
  C   C2534     1.0  0.82671  0.02763  0.51567  1.0000
  C   C2535     1.0  0.83883  0.02256  0.51325  1.0000
  C   C2536     1.0  0.84711  0.02950  0.51042  1.0000
  C   C2537     1.0  0.84318  0.04160  0.50984  1.0000
  C   C2538     1.0  0.83107  0.04665  0.51247  1.0000
  H   H3039     1.0  0.82040  0.02219  0.51798  1.0000
  H   H3040     1.0  0.84176  0.01321  0.51367  1.0000
  H   H3041     1.0  0.84947  0.04702  0.50777  1.0000
  H   H3042     1.0  0.82810  0.05595  0.51233  1.0000
  C   C2539     1.0  0.78605  0.01852  0.46640  1.0000
  C   C2540     1.0  0.77846  0.02928  0.46304  1.0000
  C   C2541     1.0  0.77269  0.03647  0.47113  1.0000
  C   C2542     1.0  0.77467  0.03298  0.48250  1.0000
  C   C2543     1.0  0.78168  0.02186  0.48601  1.0000
  C   C2544     1.0  0.78730  0.01458  0.47800  1.0000
  H   H3043     1.0  0.77757  0.03239  0.45404  1.0000
  H   H3044     1.0  0.76720  0.04494  0.46835  1.0000
  H   H3045     1.0  0.78323  0.01900  0.49475  1.0000
  H   H3046     1.0  0.97325  0.18525  0.46636  1.0000
  C   C2545     1.0  0.86109  0.05507  0.45953  1.0000
  C   C2546     1.0  0.85661  0.05704  0.44952  1.0000
  C   C2547     1.0  0.84731  0.05198  0.45006  1.0000
  H   H3047     1.0  0.86047  0.06225  0.44131  1.0000
  H   H3048     1.0  0.84400  0.05332  0.44230  1.0000
  C   C2548     1.0  0.94459  0.20425  0.52486  1.0000
  C   C2549     1.0  0.94606  0.21186  0.51386  1.0000
  C   C2550     1.0  0.93859  0.21331  0.50645  1.0000
  C   C2551     1.0  0.92922  0.20767  0.51022  1.0000
  C   C2552     1.0  0.92737  0.20050  0.52150  1.0000
  C   C2553     1.0  0.93524  0.19855  0.52872  1.0000
  H   H3049     1.0  0.95310  0.21647  0.51095  1.0000
  H   H3050     1.0  0.94006  0.21891  0.49785  1.0000
  H   H3051     1.0  0.92011  0.19614  0.52448  1.0000
  H   H3052     1.0  0.93401  0.19269  0.53726  1.0000
  C   C2554     1.0  0.91575  0.14104  0.53998  1.0000
  C   C2555     1.0  0.92574  0.13585  0.53255  1.0000
  H   H3053     1.0  0.90719  0.13991  0.54015  1.0000
  C   C2556     1.0  0.70965  0.04844  0.47783  1.0000
  C   C2557     1.0  0.70132  0.05667  0.47202  1.0000
  C   C2558     1.0  0.69749  0.05372  0.46359  1.0000
  C   C2559     1.0  0.70210  0.04260  0.46091  1.0000
  C   C2560     1.0  0.71033  0.03435  0.46679  1.0000
  C   C2561     1.0  0.71396  0.03721  0.47539  1.0000
  H   H3054     1.0  0.69763  0.06520  0.47424  1.0000
  H   H3055     1.0  0.69112  0.06010  0.45903  1.0000
  H   H3056     1.0  0.71383  0.02571  0.46481  1.0000
  H   H3057     1.0  0.72006  0.03069  0.48017  1.0000
  C   C2562     1.0  0.72729  0.01495  0.54499  1.0000
  C   C2563     1.0  0.72998  0.01151  0.55608  1.0000
  C   C2564     1.0  0.74017  0.01350  0.55760  1.0000
  C   C2565     1.0  0.74778  0.01892  0.54805  1.0000
  C   C2566     1.0  0.74494  0.02271  0.53698  1.0000
  C   C2567     1.0  0.73467  0.02073  0.53544  1.0000
  C   C2568     1.0  0.60243  0.00029  0.44267  1.0000
  H   H3058     1.0  0.74228  0.01066  0.56618  1.0000
  H   H3059     1.0  0.75057  0.02728  0.52965  1.0000
  H   H3060     1.0  0.73256  0.02352  0.52687  1.0000
  H   H3061     1.0  0.96467  0.03806  0.49672  1.0000
  H   H3062     1.0  0.66519  0.02743  0.40049  1.0000
  Fe  Fe364     1.0  0.95174  0.17426  0.57270  1.0000
  C   C2569     1.0  0.93681  0.13741  0.53238  1.0000
  S   S717      1.0  0.96939  0.13026  0.47825  1.0000
  S   S718      1.0  0.96212  0.09913  0.49156  1.0000
  S   S719      1.0  0.98567  0.23426  0.53371  1.0000
  H   H3063     1.0  0.94429  0.22886  0.53488  1.0000
  H   H3064     1.0  0.93749  0.06737  0.50597  1.0000
  N   N165      1.0  0.94016  0.11940  0.57222  1.0000
  C   C2570     1.0  0.92910  0.22770  0.58716  1.0000
  C   C2571     1.0  0.64048  0.03008  0.51767  1.0000
  C   C2572     1.0  0.63903  0.04207  0.51702  1.0000
  C   C2573     1.0  0.64707  0.04596  0.52048  1.0000
  C   C2574     1.0  0.65678  0.03792  0.52422  1.0000
  C   C2575     1.0  0.65827  0.02594  0.52484  1.0000
  C   C2576     1.0  0.64999  0.02199  0.52180  1.0000
  H   H3065     1.0  0.63166  0.04833  0.51389  1.0000
  H   H3066     1.0  0.64589  0.05523  0.52001  1.0000
  H   H3067     1.0  0.66571  0.01968  0.52785  1.0000
  H   H3068     1.0  0.65110  0.01271  0.52251  1.0000
  C   C2577     1.0  0.69668  0.00983  0.39427  1.0000
  C   C2578     1.0  0.55602  0.99361  0.56372  1.0000
  H   H3069     1.0  0.73610  0.00133  0.48226  1.0000
  C   C2579     1.0  0.78838  0.02399  0.41347  1.0000
  H   H3070     1.0  0.97595  0.38760  0.45399  1.0000
  C   C2580     1.0  0.92924  0.04818  0.50542  1.0000
  S   S720      1.0  0.95468  0.15600  0.56998  1.0000
  C   C2581     1.0  0.77907  0.01706  0.43381  1.0000
  C   C2582     1.0  0.94283  0.11062  0.58292  1.0000
  C   C2583     1.0  0.95674  0.20996  0.58197  1.0000
  C   C2584     1.0  0.93115  0.23757  0.57843  1.0000
  H   H3071     1.0  0.92527  0.12967  0.58250  1.0000
  N   N166      1.0  0.91631  0.25270  0.48858  1.0000
  C   C2585     1.0  0.92063  0.26353  0.48218  1.0000
  C   C2586     1.0  0.90671  0.25570  0.49870  1.0000
  C   C2587     1.0  0.92614  0.24388  0.49313  1.0000
  C   C2588     1.0  0.91208  0.24765  0.48121  1.0000
  C   C2589     1.0  0.90729  0.23752  0.48619  1.0000
  C   C2590     1.0  0.91302  0.25219  0.46894  1.0000
  C   C2591     1.0  0.90385  0.23216  0.47932  1.0000
  C   C2592     1.0  0.90952  0.24677  0.46216  1.0000
  C   C2593     1.0  0.90500  0.23676  0.46731  1.0000
  H   H3072     1.0  0.91365  0.27058  0.47854  1.0000
  H   H3073     1.0  0.92362  0.26717  0.48801  1.0000
  H   H3074     1.0  0.92833  0.26178  0.47483  1.0000
  H   H3075     1.0  0.89889  0.26183  0.49565  1.0000
  H   H3076     1.0  0.90956  0.25996  0.50413  1.0000
  H   H3077     1.0  0.90384  0.24781  0.50476  1.0000
  H   H3078     1.0  0.93352  0.24137  0.48578  1.0000
  H   H3079     1.0  0.92968  0.24726  0.49870  1.0000
  H   H3080     1.0  0.92342  0.23570  0.49863  1.0000
  H   H3081     1.0  0.90653  0.23338  0.49540  1.0000
  H   H3082     1.0  0.91671  0.25973  0.46428  1.0000
  H   H3083     1.0  0.90064  0.22417  0.48330  1.0000
  H   H3084     1.0  0.91074  0.25010  0.45273  1.0000
  H   H3085     1.0  0.90268  0.23240  0.46192  1.0000
  H   H3086     1.0  0.75945  0.04476  0.43160  1.0000
  C   C2594     1.0  0.66653  0.03862  0.56088  1.0000
  H   H3087     1.0  0.68762  0.02341  0.44456  1.0000
  C   C2595     1.0  0.75595  0.06238  0.42117  1.0000
  C   C2596     1.0  0.92765  0.14914  0.54729  1.0000
  Fe  Fe365     1.0  0.95751  0.25855  0.56102  1.0000
  S   S721      1.0  0.74302  0.06174  0.41776  1.0000
  C   C2597     1.0  0.87594  0.99843  0.46114  1.0000
  H   H3088     1.0  0.96203  0.10713  0.56284  1.0000
  H   H3089     1.0  0.54405  0.01099  0.57648  1.0000
  H   H3090     1.0  0.66678  0.04479  0.48368  1.0000
  C   C2598     1.0  0.66954  0.02980  0.41559  1.0000
  C   C2599     1.0  0.98534  0.19542  0.50625  1.0000
  H   H3091     1.0  0.95165  0.06451  0.50889  1.0000
  S   S722      1.0  0.72264  0.01774  0.43115  1.0000
  C   C2600     1.0  0.77605  0.06486  0.42659  1.0000
  H   H3092     1.0  0.88455  0.07467  0.48280  1.0000
  Fe  Fe366     1.0  0.73982  0.01938  0.43333  1.0000
  H   H3093     1.0  0.99508  0.24160  0.58280  1.0000
  H   H3094     1.0  0.95620  0.21757  0.57485  1.0000
  H   H3095     1.0  0.90889  0.15130  0.55322  1.0000
  C   C2601     1.0  0.64651  0.00078  0.45714  1.0000
  H   H3096     1.0  0.94942  0.22095  0.54800  1.0000
  C   C2602     1.0  0.98013  0.14750  0.51367  1.0000
  H   H3097     1.0  0.87491  0.07572  0.47364  1.0000
  H   H3098     1.0  0.66820  0.01771  0.43914  1.0000
  C   C2603     1.0  0.86395  0.01787  0.45574  1.0000
  H   H3099     1.0  0.68940  0.99434  0.45758  1.0000
  H   H3100     1.0  0.95901  0.05479  0.48138  1.0000
  C   C2604     1.0  0.98300  0.11397  0.52447  1.0000
  Fe  Fe367     1.0  0.72721  0.02926  0.41338  1.0000
  S   S723      1.0  0.98512  0.24591  0.47516  1.0000
  H   H3101     1.0  0.98194  0.43316  0.41866  1.0000
  S   S724      1.0  0.98855  0.35966  0.46791  1.0000
  C   C2605     1.0  0.99094  0.20107  0.54560  1.0000
  C   C2606     1.0  0.68510  0.04019  0.41118  1.0000
  S   S725      1.0  0.80256  0.04113  0.45315  1.0000
  H   H3102     1.0  0.98089  0.40596  0.45374  1.0000
  H   H3103     1.0  0.94004  0.11466  0.59075  1.0000
  Fe  Fe368     1.0  0.82324  0.03422  0.42429  1.0000
  C   C2607     1.0  0.99181  0.27981  0.56587  1.0000
  H   H3104     1.0  0.98281  0.08336  0.49685  1.0000
  C   C2608     1.0  0.89033  0.09545  0.48276  1.0000
  H   H3105     1.0  0.96408  0.27494  0.52865  1.0000
  C   C2609     1.0  0.84013  0.00168  0.48409  1.0000
  S   S726      1.0  0.80211  0.99570  0.50973  1.0000
  S   S727      1.0  0.97402  0.20282  0.47785  1.0000
  H   H3106     1.0  0.98190  0.17211  0.58954  1.0000
  H   H3107     1.0  0.66643  0.05027  0.43293  1.0000
  C   C2610     1.0  0.86089  0.99605  0.43097  1.0000
  H   H3108     1.0  0.94628  0.06616  0.48460  1.0000
  H   H3109     1.0  0.97584  0.19746  0.50899  1.0000
  H   H3110     1.0  0.97827  0.19213  0.57857  1.0000
  H   H3111     1.0  0.68961  0.01650  0.43260  1.0000
  C   C2611     1.0  0.56366  0.00136  0.56118  1.0000
  H   H3112     1.0  0.77220  0.08257  0.41653  1.0000
  C   C2612     1.0  0.94100  0.04665  0.49865  1.0000
  H   H3113     1.0  0.82001  0.02034  0.48051  1.0000
  Fe  Fe369     1.0  0.97794  0.24156  0.54989  1.0000
  H   H3114     1.0  0.96647  0.04765  0.50451  1.0000
  C   C2613     1.0  0.97781  0.29602  0.57372  1.0000
  C   C2614     1.0  0.85714  0.00120  0.42052  1.0000
  H   H3115     1.0  0.60829  0.99930  0.55099  1.0000
  H   H3116     1.0  0.95704  0.03749  0.51176  1.0000
  C   C2615     1.0  0.95991  0.04355  0.50330  1.0000
  C   C2616     1.0  0.99161  0.17024  0.53716  1.0000
  H   H3117     1.0  0.83699  0.02056  0.48293  1.0000
  C   C2617     1.0  0.65515  0.00501  0.55212  1.0000
  H   H3118     1.0  0.96703  0.28423  0.51423  1.0000
  N   N167      1.0  0.54650  0.99318  0.57448  1.0000
  H   H3119     1.0  0.63783  0.01464  0.46659  1.0000
  C   C2618     1.0  0.94495  0.06014  0.50838  1.0000
  H   H3120     1.0  0.82452  0.07247  0.44555  1.0000
  N   N168      1.0  0.72946  0.07318  0.45233  1.0000
  C   C2619     1.0  0.72914  0.06132  0.45161  1.0000
  C   C2620     1.0  0.71841  0.07808  0.46020  1.0000
  C   C2621     1.0  0.72967  0.08093  0.44043  1.0000
  C   C2622     1.0  0.73984  0.07217  0.45694  1.0000
  C   C2623     1.0  0.73998  0.06711  0.46896  1.0000
  C   C2624     1.0  0.75033  0.07535  0.44958  1.0000
  C   C2625     1.0  0.74985  0.06566  0.47336  1.0000
  C   C2626     1.0  0.76018  0.07381  0.45407  1.0000
  C   C2627     1.0  0.75992  0.06902  0.46594  1.0000
  H   H3121     1.0  0.72864  0.05514  0.46032  1.0000
  H   H3122     1.0  0.72142  0.06151  0.44830  1.0000
  H   H3123     1.0  0.73721  0.05749  0.44556  1.0000
  H   H3124     1.0  0.71655  0.07205  0.46889  1.0000
  H   H3125     1.0  0.71057  0.07962  0.45650  1.0000
  H   H3126     1.0  0.71878  0.08655  0.46176  1.0000
  H   H3127     1.0  0.73690  0.07716  0.43366  1.0000
  H   H3128     1.0  0.72151  0.08203  0.43741  1.0000
  H   H3129     1.0  0.73064  0.08982  0.44024  1.0000
  H   H3130     1.0  0.73258  0.06398  0.47506  1.0000
  H   H3131     1.0  0.75127  0.07886  0.44026  1.0000
  H   H3132     1.0  0.74982  0.06162  0.48255  1.0000
  H   H3133     1.0  0.76813  0.07613  0.44822  1.0000
  H   H3134     1.0  0.76764  0.06756  0.46937  1.0000
  Fe  Fe370     1.0  0.73628  0.04523  0.42260  1.0000
  H   H3135     1.0  0.62218  0.99983  0.42554  1.0000
  H   H3136     1.0  0.74259  0.04043  0.49636  1.0000
  H   H3137     1.0  0.96330  0.40367  0.42258  1.0000
  H   H3138     1.0  0.66784  0.99808  0.46484  1.0000
  C   C2628     1.0  0.65538  0.02367  0.55545  1.0000
  N   N169      1.0  0.66776  0.02655  0.48437  1.0000
  H   H3139     1.0  0.59609  0.00889  0.56737  1.0000
  C   C2629     1.0  0.65469  0.02936  0.48672  1.0000
  C   C2630     1.0  0.67116  0.02189  0.49583  1.0000
  C   C2631     1.0  0.67348  0.01781  0.47688  1.0000
  C   C2632     1.0  0.68589  0.01522  0.47275  1.0000
  C   C2633     1.0  0.66711  0.01136  0.47384  1.0000
  C   C2634     1.0  0.69154  0.00692  0.46581  1.0000
  N   N170      1.0  0.67324  0.02634  0.56065  1.0000
  H   H3140     1.0  0.96718  0.13167  0.54336  1.0000
  H   H3141     1.0  0.87150  0.10258  0.46420  1.0000
  H   H3142     1.0  0.70611  0.01716  0.41470  1.0000
  H   H3143     1.0  0.80396  0.07778  0.48746  1.0000
  H   H3144     1.0  0.65100  0.02160  0.49200  1.0000
  S   S728      1.0  0.92805  0.15642  0.55779  1.0000
  H   H3145     1.0  0.65068  0.03619  0.49209  1.0000
  H   H3146     1.0  0.68082  0.01977  0.49484  1.0000
  H   H3147     1.0  0.87355  0.09124  0.45644  1.0000
  H   H3148     1.0  0.66805  0.01371  0.50067  1.0000
  H   H3149     1.0  0.69139  0.01945  0.47505  1.0000
  H   H3150     1.0  0.65770  0.01244  0.47687  1.0000
  H   H3151     1.0  0.94610  0.29237  0.54024  1.0000
  C   C2635     1.0  0.99483  0.30141  0.49973  1.0000
  H   H3152     1.0  0.99342  0.21318  0.46643  1.0000
  C   C2636     1.0  0.74278  0.03388  0.48160  1.0000
  C   C2637     1.0  0.75962  0.07299  0.41697  1.0000
  C   C2638     1.0  0.91192  0.99840  0.48939  1.0000
  H   H3153     1.0  0.65081  0.99968  0.54970  1.0000
  C   C2639     1.0  0.95527  0.10745  0.55854  1.0000
  C   C2640     1.0  0.90591  0.00142  0.46218  1.0000
  S   S729      1.0  0.96433  0.25543  0.57724  1.0000
  C   C2641     1.0  0.98831  0.08564  0.51124  1.0000
  C   C2642     1.0  0.92747  0.12520  0.57504  1.0000
  H   H3154     1.0  0.53142  0.00497  0.58275  1.0000
  S   S730      1.0  0.65330  0.00570  0.41021  1.0000
  C   C2643     1.0  0.97825  0.29903  0.53475  1.0000
  H   H3155     1.0  0.85509  0.01983  0.48811  1.0000
  H   H3156     1.0  0.93820  0.10336  0.58493  1.0000
  H   H3157     1.0  0.95942  0.31197  0.52489  1.0000
  H   H3158     1.0  0.95659  0.12479  0.56872  1.0000
  C   C2644     1.0  0.68446  0.02694  0.55188  1.0000
  H   H3159     1.0  0.69053  0.01819  0.55176  1.0000
  H   H3160     1.0  0.92488  0.13220  0.56753  1.0000
  H   H3161     1.0  0.92511  0.24751  0.54585  1.0000
  H   H3162     1.0  0.98118  0.21096  0.57079  1.0000
  C   C2645     1.0  0.96165  0.28395  0.52333  1.0000
  C   C2646     1.0  0.98487  0.28233  0.52547  1.0000
  H   H3163     1.0  0.68104  0.00335  0.55830  1.0000
  H   H3164     1.0  0.95026  0.30598  0.52001  1.0000
  H   H3165     1.0  0.99376  0.24457  0.50948  1.0000
  H   H3166     1.0  0.65809  0.03890  0.56756  1.0000
  C   C2647     1.0  0.98109  0.20985  0.56203  1.0000
  S   S731      1.0  0.82152  0.05099  0.42970  1.0000
  H   H3167     1.0  0.89969  0.08448  0.45148  1.0000
  C   C2648     1.0  0.88366  0.01561  0.45808  1.0000
  H   H3168     1.0  0.74720  0.00132  0.52215  1.0000
  S   S732      1.0  0.63300  0.99633  0.53689  1.0000
  Fe  Fe371     1.0  0.95404  0.18511  0.54689  1.0000
  C   C2649     1.0  0.67683  0.03428  0.41978  1.0000
  C   C2650     1.0  0.97545  0.29138  0.52953  1.0000
  H   H3169     1.0  0.95285  0.09730  0.53611  1.0000
  C   C2651     1.0  0.66644  0.00038  0.55417  1.0000
  H   H3170     1.0  0.93267  0.24498  0.58066  1.0000
  Fe  Fe372     1.0  0.65436  0.99937  0.42917  1.0000
  C   C2652     1.0  0.97738  0.22063  0.49429  1.0000
  H   H3171     1.0  0.94577  0.13490  0.56120  1.0000
  C   C2653     1.0  0.86540  0.00571  0.45853  1.0000
  H   H3172     1.0  0.85572  0.02352  0.45385  1.0000
  C   C2654     1.0  0.86135  0.00120  0.48986  1.0000
  H   H3173     1.0  0.80900  0.06562  0.49864  1.0000
  H   H3174     1.0  0.67048  0.04096  0.46956  1.0000
  N   N171      1.0  0.93085  0.22859  0.55092  1.0000
  S   S733      1.0  0.94030  0.27018  0.55785  1.0000
  C   C2655     1.0  0.97679  0.40571  0.44699  1.0000
  H   H3175     1.0  0.91409  0.99522  0.46443  1.0000
  Fe  Fe373     1.0  0.79359  0.01203  0.51644  1.0000
  C   C2656     1.0  0.92283  0.23932  0.54580  1.0000
  H   H3176     1.0  0.88308  0.10130  0.45132  1.0000
  H   H3177     1.0  0.82597  0.01083  0.42580  1.0000
  C   C2657     1.0  0.98076  0.22996  0.45211  1.0000
  C   C2658     1.0  0.95348  0.19992  0.58142  1.0000
  C   C2659     1.0  0.67168  0.03774  0.47875  1.0000
  C   C2660     1.0  0.80532  0.06538  0.47187  1.0000
  H   H3178     1.0  0.82260  0.04941  0.48189  1.0000
  C   C2661     1.0  0.79983  0.02515  0.40684  1.0000
  H   H3179     1.0  0.67363  0.04318  0.44501  1.0000
  H   H3180     1.0  0.98369  0.27605  0.52137  1.0000
  C   C2662     1.0  0.98968  0.29760  0.53602  1.0000
  C   C2663     1.0  0.95525  0.29224  0.54043  1.0000
  C   C2664     1.0  0.79524  0.06745  0.46724  1.0000
  N   N172      1.0  0.93077  0.16584  0.50423  1.0000
  C   C2665     1.0  0.92229  0.16748  0.51549  1.0000
  C   C2666     1.0  0.92581  0.17443  0.49455  1.0000
  C   C2667     1.0  0.93175  0.15377  0.50289  1.0000
  C   C2668     1.0  0.94246  0.16777  0.50359  1.0000
  C   C2669     1.0  0.95236  0.16393  0.49493  1.0000
  C   C2670     1.0  0.94413  0.17444  0.51068  1.0000
  C   C2671     1.0  0.96313  0.16685  0.49322  1.0000
  C   C2672     1.0  0.95494  0.17734  0.50890  1.0000
  C   C2673     1.0  0.96436  0.17369  0.50008  1.0000
  H   H3181     1.0  0.91396  0.16489  0.51635  1.0000
  H   H3182     1.0  0.92605  0.16207  0.52313  1.0000
  H   H3183     1.0  0.91962  0.17685  0.51624  1.0000
  H   H3184     1.0  0.92460  0.18365  0.49533  1.0000
  H   H3185     1.0  0.91711  0.17323  0.49443  1.0000
  H   H3186     1.0  0.93168  0.17358  0.48579  1.0000
  H   H3187     1.0  0.93728  0.14706  0.50858  1.0000
  H   H3188     1.0  0.92304  0.15141  0.50524  1.0000
  H   H3189     1.0  0.93555  0.15266  0.49370  1.0000
  H   H3190     1.0  0.95168  0.15914  0.48902  1.0000
  H   H3191     1.0  0.93710  0.17786  0.51740  1.0000
  H   H3192     1.0  0.97038  0.16427  0.48617  1.0000
  H   H3193     1.0  0.95585  0.18283  0.51411  1.0000
  H   H3194     1.0  0.97253  0.17645  0.49830  1.0000
  C   C2674     1.0  0.84679  0.04342  0.47066  1.0000
  C   C2675     1.0  0.80942  0.06867  0.48902  1.0000
  C   C2676     1.0  0.92780  0.21834  0.54905  1.0000
  H   H3195     1.0  0.85823  0.00191  0.45892  1.0000
  H   H3196     1.0  0.83759  0.99737  0.46439  1.0000
  S   S734      1.0  0.73230  0.03524  0.44117  1.0000
  C   C2677     1.0  0.89511  0.07988  0.46005  1.0000
  C   C2678     1.0  0.76234  0.05293  0.42817  1.0000
  H   H3197     1.0  0.78696  0.06809  0.49124  1.0000
  C   C2679     1.0  0.95384  0.06001  0.48809  1.0000
  H   H3198     1.0  0.79010  0.05307  0.48959  1.0000
  C   C2680     1.0  0.92989  0.22822  0.56343  1.0000
  C   C2681     1.0  0.93156  0.23785  0.56675  1.0000
  C   C2682     1.0  0.92781  0.21827  0.57257  1.0000
  H   H3199     1.0  0.69522  0.02933  0.43028  1.0000
  H   H3200     1.0  0.96912  0.29954  0.57850  1.0000
  Fe  Fe374     1.0  0.63361  0.00581  0.51815  1.0000
  S   S735      1.0  0.75319  0.00449  0.44078  1.0000
  C   C2683     1.0  0.97402  0.39531  0.44714  1.0000
  C   C2684     1.0  0.68770  0.02511  0.43506  1.0000
  H   H3201     1.0  0.76989  0.03314  0.41523  1.0000
  H   H3202     1.0  0.78803  0.07273  0.45180  1.0000
  S   S736      1.0  0.80392  0.03543  0.42787  1.0000
  H   H3203     1.0  0.92818  0.21912  0.53961  1.0000
  H   H3204     1.0  0.96480  0.12284  0.52837  1.0000
  H   H3205     1.0  0.93822  0.00246  0.47147  1.0000
  H   H3206     1.0  0.86928  0.00108  0.49231  1.0000
  C   C2685     1.0  0.87826  0.09618  0.45938  1.0000
  H   H3207     1.0  0.92324  0.23976  0.53641  1.0000
  C   C2686     1.0  0.67223  0.00732  0.55694  1.0000
  C   C2687     1.0  0.90009  0.10148  0.46245  1.0000
  H   H3208     1.0  0.72429  0.00705  0.56348  1.0000
  Fe  Fe375     1.0  0.94284  0.16432  0.55729  1.0000
  C   C2688     1.0  0.82752  0.99682  0.41768  1.0000
  H   H3209     1.0  0.92672  0.21040  0.57095  1.0000
  C   C2689     1.0  0.81332  0.04900  0.48605  1.0000
  H   H3210     1.0  0.99094  0.13815  0.48159  1.0000
  C   C2690     1.0  0.90438  0.10771  0.47773  1.0000
  H   H3211     1.0  0.66749  0.02843  0.50151  1.0000
  C   C2691     1.0  0.87305  0.02280  0.45552  1.0000
  H   H3212     1.0  0.97084  0.21510  0.49671  1.0000
  N   N173      1.0  0.88621  0.08811  0.46692  1.0000
  C   C2692     1.0  0.79347  0.05953  0.49195  1.0000
  H   H3213     1.0  0.81874  0.06902  0.48488  1.0000
  C   C2693     1.0  0.57550  0.99366  0.54416  1.0000
  H   H3214     1.0  0.64100  0.02027  0.55078  1.0000
  C   C2694     1.0  0.99102  0.18363  0.50650  1.0000
  S   S737      1.0  0.96029  0.23956  0.56101  1.0000
  H   H3215     1.0  0.70132  0.99558  0.42780  1.0000
  C   C2695     1.0  0.80623  0.07327  0.44740  1.0000
  H   H3216     1.0  0.80759  0.01832  0.40798  1.0000
  H   H3217     1.0  0.63048  0.00396  0.43312  1.0000
  H   H3218     1.0  0.81051  0.01063  0.48485  1.0000
  H   H3219     1.0  0.93348  0.24562  0.56031  1.0000
  H   H3220     1.0  0.80658  0.07603  0.43804  1.0000
  C   C2696     1.0  0.81628  0.07129  0.45164  1.0000
  H   H3221     1.0  0.98540  0.30243  0.50247  1.0000
  H   H3222     1.0  0.91244  0.11228  0.45944  1.0000
  C   C2697     1.0  0.98447  0.19058  0.47382  1.0000
  C   C2698     1.0  0.93867  0.10777  0.54658  1.0000
  S   S738      1.0  0.83114  0.03811  0.46199  1.0000
  H   H3223     1.0  0.89507  0.10175  0.49530  1.0000
  H   H3224     1.0  0.65805  0.03188  0.43869  1.0000
  H   H3225     1.0  0.76012  0.01241  0.45939  1.0000
  C   C2699     1.0  0.94673  0.26141  0.53797  1.0000
  H   H3226     1.0  0.95528  0.25777  0.54004  1.0000
  H   H3227     1.0  0.91875  0.21750  0.55396  1.0000
  H   H3228     1.0  0.82397  0.06571  0.46651  1.0000
  S   S739      1.0  0.74517  0.02934  0.41494  1.0000
  H   H3229     1.0  0.78318  0.02283  0.43631  1.0000
  N   N174      1.0  0.94912  0.31527  0.44584  1.0000
  C   C2700     1.0  0.95273  0.32130  0.43339  1.0000
  C   C2701     1.0  0.95753  0.30374  0.44775  1.0000
  C   C2702     1.0  0.93724  0.31321  0.44748  1.0000
  C   C2703     1.0  0.94893  0.32195  0.45441  1.0000
  C   C2704     1.0  0.94516  0.31754  0.46665  1.0000
  C   C2705     1.0  0.95280  0.33266  0.45103  1.0000
  C   C2706     1.0  0.94527  0.32345  0.47495  1.0000
  C   C2707     1.0  0.95287  0.33849  0.45943  1.0000
  C   C2708     1.0  0.94914  0.33389  0.47135  1.0000
  H   H3230     1.0  0.96191  0.32247  0.43131  1.0000
  H   H3231     1.0  0.95254  0.31613  0.42721  1.0000
  H   H3232     1.0  0.94672  0.33006  0.43132  1.0000
  H   H3233     1.0  0.95787  0.29834  0.44155  1.0000
  H   H3234     1.0  0.95500  0.29837  0.45669  1.0000
  H   H3235     1.0  0.96657  0.30484  0.44665  1.0000
  H   H3236     1.0  0.93054  0.32165  0.44661  1.0000
  H   H3237     1.0  0.93701  0.30842  0.44098  1.0000
  H   H3238     1.0  0.93433  0.30762  0.45621  1.0000
  H   H3239     1.0  0.94241  0.30930  0.46992  1.0000
  H   H3240     1.0  0.95613  0.33659  0.44200  1.0000
  H   H3241     1.0  0.94276  0.31967  0.48425  1.0000
  H   H3242     1.0  0.95631  0.34639  0.45670  1.0000
  H   H3243     1.0  0.94961  0.33824  0.47782  1.0000
  N   N175      1.0  0.75422  0.00261  0.47692  1.0000
  H   H3244     1.0  0.98624  0.12758  0.54826  1.0000
  H   H3245     1.0  0.97975  0.21878  0.55627  1.0000
  C   C2709     1.0  0.99216  0.21245  0.44551  1.0000
  C   C2710     1.0  0.75138  0.01288  0.48232  1.0000
  H   H3246     1.0  0.77090  0.01274  0.41749  1.0000
  C   C2711     1.0  0.75380  0.01211  0.49334  1.0000
  H   H3247     1.0  0.77783  0.99915  0.42560  1.0000
  C   C2712     1.0  0.75057  0.02196  0.49833  1.0000
  C   C2713     1.0  0.74498  0.03279  0.49252  1.0000
  H   H3248     1.0  0.73854  0.04234  0.47709  1.0000
  H   H3249     1.0  0.91236  0.04375  0.50945  1.0000
  C   C2714     1.0  0.85608  0.04832  0.47009  1.0000
  H   H3250     1.0  0.93226  0.10798  0.54181  1.0000
  C   C2715     1.0  0.93525  0.11360  0.55585  1.0000
  H   H3251     1.0  0.92614  0.11819  0.55772  1.0000
  C   C2716     1.0  0.77249  0.05414  0.43077  1.0000
  C   C2717     1.0  0.66687  0.02681  0.44029  1.0000
  N   N176      1.0  0.82902  0.00202  0.48109  1.0000
  C   C2718     1.0  0.94700  0.12853  0.56956  1.0000
  H   H3252     1.0  0.75828  0.00407  0.49823  1.0000
  S   S740      1.0  0.99591  0.26494  0.56465  1.0000
  H   H3253     1.0  0.75264  0.02135  0.50662  1.0000
  C   C2719     1.0  0.81919  0.01135  0.48558  1.0000
  H   H3254     1.0  0.81314  0.04484  0.49544  1.0000
  C   C2720     1.0  0.93776  0.14417  0.53970  1.0000
  H   H3255     1.0  0.86001  0.99951  0.51751  1.0000
  H   H3256     1.0  0.97672  0.23378  0.44432  1.0000
  H   H3257     1.0  0.93413  0.20998  0.55171  1.0000
  C   C2721     1.0  0.92482  0.03500  0.49640  1.0000
  H   H3258     1.0  0.92608  0.21031  0.59104  1.0000
  H   H3259     1.0  0.66460  0.04341  0.55213  1.0000
  C   C2722     1.0  0.94310  0.22882  0.54433  1.0000
  C   C2723     1.0  0.91671  0.14754  0.54736  1.0000
  H   H3260     1.0  0.94626  0.14537  0.53960  1.0000
  H   H3261     1.0  0.98595  0.17693  0.50951  1.0000
  H   H3262     1.0  0.77823  0.00935  0.44126  1.0000
  N   N177      1.0  0.98553  0.21683  0.50237  1.0000
  C   C2724     1.0  0.99093  0.17461  0.46351  1.0000
  C   C2725     1.0  0.90618  0.10764  0.46591  1.0000
  C   C2726     1.0  0.99568  0.11627  0.53587  1.0000
  H   H3263     1.0  0.90193  0.07445  0.46502  1.0000
  H   H3264     1.0  0.85933  0.04684  0.47790  1.0000
  C   C2727     1.0  0.81586  0.06745  0.46369  1.0000
  S   S741      1.0  0.71874  0.04623  0.41924  1.0000
  C   C2728     1.0  0.53916  0.00516  0.57518  1.0000
  H   H3265     1.0  0.77743  0.04690  0.43616  1.0000
  H   H3266     1.0  0.68110  0.03685  0.47851  1.0000
  N   N178      1.0  0.96795  0.42545  0.41881  1.0000
  C   C2729     1.0  0.97231  0.43563  0.41904  1.0000
  C   C2730     1.0  0.97398  0.42201  0.40744  1.0000
  C   C2731     1.0  0.95517  0.42953  0.41920  1.0000
  C   C2732     1.0  0.97003  0.41525  0.42865  1.0000
  C   C2733     1.0  0.96708  0.40457  0.42923  1.0000
  C   C2734     1.0  0.97487  0.41556  0.43790  1.0000
  H   H3267     1.0  0.97159  0.30611  0.53805  1.0000
  H   H3268     1.0  0.98082  0.15467  0.52770  1.0000
  N   N179      1.0  0.94969  0.05253  0.49965  1.0000
  H   H3269     1.0  0.97092  0.44303  0.41134  1.0000
  C   C2735     1.0  0.98643  0.30267  0.57014  1.0000
  H   H3270     1.0  0.96518  0.30559  0.51221  1.0000
  H   H3271     1.0  0.98357  0.41858  0.40693  1.0000
  H   H3272     1.0  0.97283  0.42959  0.39990  1.0000
  H   H3273     1.0  0.97065  0.41509  0.40590  1.0000
  C   C2736     1.0  0.95936  0.30463  0.52114  1.0000
  H   H3274     1.0  0.95330  0.43741  0.41205  1.0000
  H   H3275     1.0  0.95143  0.42268  0.41806  1.0000
  C   C2737     1.0  0.98998  0.08439  0.49975  1.0000
  H   H3276     1.0  0.97750  0.42320  0.43823  1.0000
  C   C2738     1.0  0.64962  0.01660  0.55280  1.0000
  N   N180      1.0  0.99296  0.22305  0.44879  1.0000
  H   H3277     1.0  0.65074  0.03270  0.55533  1.0000
  C   C2739     1.0  0.98564  0.12357  0.54164  1.0000
  C   C2740     1.0  0.97334  0.12111  0.53037  1.0000
  H   H3278     1.0  0.90933  0.11224  0.48044  1.0000
  H   H3279     1.0  0.95835  0.28397  0.54659  1.0000
  C   C2741     1.0  0.94347  0.11354  0.56220  1.0000
  H   H3280     1.0  0.97330  0.20645  0.56272  1.0000
  H   H3281     1.0  0.95951  0.06549  0.48866  1.0000
  H   H3282     1.0  0.98846  0.21486  0.43754  1.0000
  S   S742      1.0  0.70143  0.00311  0.49606  1.0000
  C   C2742     1.0  0.61331  0.00682  0.45232  1.0000
  C   C2743     1.0  0.68603  0.04153  0.39917  1.0000
  H   H3283     1.0  0.95461  0.29963  0.54443  1.0000
  S   S743      1.0  0.96699  0.17871  0.55841  1.0000
  Fe  Fe376     1.0  0.96880  0.16122  0.55457  1.0000
  C   C2744     1.0  0.83461  0.01210  0.39645  1.0000
  C   C2745     1.0  0.69696  0.01122  0.40527  1.0000
  C   C2746     1.0  0.70568  0.01626  0.40626  1.0000
  S   S744      1.0  0.72513  0.02634  0.39669  1.0000
  H   H3284     1.0  0.63752  0.00128  0.48636  1.0000
  H   H3285     1.0  0.95235  0.28529  0.52276  1.0000
  H   H3286     1.0  0.97426  0.22737  0.51472  1.0000
  H   H3287     1.0  0.76529  0.99685  0.46133  1.0000
  C   C2747     1.0  0.98046  0.28466  0.57155  1.0000
  C   C2748     1.0  0.59502  0.00047  0.56701  1.0000
  C   C2749     1.0  0.98652  0.14305  0.50372  1.0000
  C   C2750     1.0  0.71386  0.02017  0.39620  1.0000
  H   H3288     1.0  0.56269  0.00709  0.56694  1.0000
  C   C2751     1.0  0.83202  0.01568  0.40707  1.0000
  Fe  Fe377     1.0  0.98177  0.25619  0.56460  1.0000
  H   H3289     1.0  0.98029  0.23726  0.45617  1.0000
  C   C2752     1.0  0.96915  0.39474  0.43830  1.0000
  C   C2753     1.0  0.85328  0.01178  0.48756  1.0000
  H   H3290     1.0  0.98188  0.11011  0.51791  1.0000
  H   H3291     1.0  0.99219  0.27624  0.45470  1.0000
  C   C2754     1.0  0.99176  0.20441  0.50251  1.0000
  C   C2755     1.0  0.79712  0.00503  0.42543  1.0000
  H   H3292     1.0  0.94194  0.05504  0.51737  1.0000
  C   C2756     1.0  0.97866  0.21804  0.51434  1.0000
  H   H3293     1.0  0.92581  0.05395  0.51153  1.0000
  H   H3294     1.0  0.74039  0.00856  0.46717  1.0000
  C   C2757     1.0  0.97467  0.12596  0.53890  1.0000
  C   C2758     1.0  0.67450  0.04411  0.43544  1.0000
  Fe  Fe378     1.0  0.96852  0.23643  0.57618  1.0000
  C   C2759     1.0  0.67285  0.00304  0.46690  1.0000
  C   C2760     1.0  0.98197  0.18354  0.46791  1.0000
  H   H3295     1.0  0.95026  0.43196  0.42773  1.0000
  C   C2761     1.0  0.67057  0.03119  0.40354  1.0000
  C   C2762     1.0  0.94422  0.03910  0.49064  1.0000
  C   C2763     1.0  0.93621  0.03338  0.48956  1.0000
  C   C2764     1.0  0.99436  0.19007  0.56466  1.0000
  C   C2765     1.0  0.64155  0.00532  0.46732  1.0000
  C   C2766     1.0  0.77961  0.00719  0.41890  1.0000
  C   C2767     1.0  0.92047  0.00435  0.48180  1.0000
  H   H3296     1.0  0.67157  0.04378  0.56303  1.0000
  C   C2768     1.0  0.67590  0.02080  0.57240  1.0000
  S   S745      1.0  0.57793  0.00226  0.58712  1.0000
  N   N181      1.0  0.78618  0.01346  0.42272  1.0000
  C   C2769     1.0  0.98633  0.18636  0.57522  1.0000
  C   C2770     1.0  0.93158  0.99792  0.47731  1.0000
  C   C2771     1.0  0.73476  0.99392  0.45182  1.0000
  H   H3297     1.0  0.78461  0.00449  0.41051  1.0000
  C   C2772     1.0  0.76315  0.00431  0.46577  1.0000
  H   H3298     1.0  0.80259  0.00122  0.41776  1.0000
  H   H3299     1.0  0.93876  0.02768  0.48337  1.0000
  C   C2773     1.0  0.95027  0.10180  0.54331  1.0000
  C   C2774     1.0  0.57315  0.00143  0.55148  1.0000
  H   H3300     1.0  0.74403  0.02545  0.46803  1.0000
  S   S746      1.0  0.97425  0.08683  0.52063  1.0000
  H   H3301     1.0  0.68280  0.03070  0.54292  1.0000
  H   H3302     1.0  0.79327  0.00633  0.48059  1.0000
  C   C2775     1.0  0.85967  0.99476  0.41185  1.0000
  H   H3303     1.0  0.91866  0.03055  0.49552  1.0000
  H   H3304     1.0  0.97382  0.27950  0.57467  1.0000
  H   H3305     1.0  0.82252  0.00509  0.46554  1.0000
  C   C2776     1.0  0.95375  0.19014  0.59082  1.0000
  H   H3306     1.0  0.90339  0.00787  0.46792  1.0000
  C   C2777     1.0  0.88544  0.00314  0.46096  1.0000
  N   N182      1.0  0.67638  0.03259  0.43243  1.0000
  H   H3307     1.0  0.90335  0.00335  0.49298  1.0000
  N   N183      1.0  0.99207  0.20200  0.55710  1.0000
  H   H3308     1.0  0.61743  0.01389  0.42927  1.0000
  C   C2778     1.0  0.64136  0.99777  0.47850  1.0000
  H   H3309     1.0  0.98706  0.12612  0.45763  1.0000
  C   C2779     1.0  0.79218  0.04492  0.39678  1.0000
  S   S747      1.0  0.98312  0.31625  0.57441  1.0000
  H   H3310     1.0  0.68939  0.03253  0.55355  1.0000
  H   H3311     1.0  0.59761  0.00961  0.44040  1.0000
  H   H3312     1.0  0.81858  0.01083  0.49501  1.0000
  C   C2780     1.0  0.84286  0.01208  0.48468  1.0000
  C   C2781     1.0  0.74594  0.02412  0.47652  1.0000
  H   H3313     1.0  0.96719  0.38656  0.43838  1.0000
  H   H3314     1.0  0.87184  0.03229  0.45346  1.0000
  H   H3315     1.0  0.98173  0.13993  0.49940  1.0000
  H   H3316     1.0  0.92177  0.11879  0.57751  1.0000
  H   H3317     1.0  0.57904  0.00721  0.54991  1.0000
  H   H3318     1.0  0.79521  0.99744  0.43271  1.0000
  H   H3319     1.0  0.83361  0.01290  0.46401  1.0000
  H   H3320     1.0  0.76993  0.02186  0.43320  1.0000
  H   H3321     1.0  0.62209  0.00705  0.45324  1.0000
  H   H3322     1.0  0.99211  0.33427  0.52449  1.0000
  H   H3323     1.0  0.99507  0.11920  0.44539  1.0000
  S   S748      1.0  0.83372  0.02946  0.40721  1.0000
  C   C2782     1.0  0.83356  0.00089  0.39647  1.0000
  H   H3324     1.0  0.88033  0.99370  0.52023  1.0000
  H   H3325     1.0  0.98630  0.20738  0.45260  1.0000
  H   H3326     1.0  0.98226  0.22010  0.48514  1.0000
  C   C2783     1.0  0.98836  0.17479  0.58171  1.0000
  H   H3327     1.0  0.99153  0.30343  0.54025  1.0000
  C   C2784     1.0  0.58668  0.99509  0.57575  1.0000
  H   H3328     1.0  0.97499  0.22442  0.45876  1.0000
  H   H3329     1.0  0.68193  0.01196  0.57259  1.0000
  H   H3330     1.0  0.98847  0.23435  0.49836  1.0000
  H   H3331     1.0  0.98443  0.21478  0.52074  1.0000
  H   H3332     1.0  0.98450  0.19570  0.54670  1.0000
  H   H3333     1.0  0.85878  0.00108  0.43766  1.0000
  N   N184      1.0  0.89641  0.99522  0.46404  1.0000
  H   H3334     1.0  0.89107  0.99568  0.48239  1.0000
  C   C2785     1.0  0.62140  0.00448  0.43250  1.0000
  H   H3335     1.0  0.66771  0.01972  0.57919  1.0000
  H   H3336     1.0  0.68034  0.02614  0.57511  1.0000
  H   H3337     1.0  0.75395  0.99434  0.53991  1.0000
  Fe  Fe379     1.0  0.67234  0.99610  0.40678  1.0000
  C   C2786     1.0  0.99230  0.11768  0.45514  1.0000
  C   C2787     1.0  0.73375  0.99590  0.40065  1.0000
  H   H3338     1.0  0.99128  0.10578  0.47691  1.0000
  S   S749      1.0  0.94965  0.17748  0.59057  1.0000
  C   C2788     1.0  0.80167  0.03554  0.39875  1.0000
  C   C2789     1.0  0.60196  0.99503  0.55775  1.0000
  H   H3339     1.0  0.60259  0.99617  0.43551  1.0000
  H   H3340     1.0  0.81056  0.03640  0.39420  1.0000
  S   S750      1.0  0.99410  0.34252  0.49979  1.0000
  H   H3341     1.0  0.99450  0.31825  0.50236  1.0000
  H   H3342     1.0  0.60890  0.01613  0.44923  1.0000
  H   H3343     1.0  0.60804  0.00359  0.46117  1.0000
  N   N185      1.0  0.61443  0.99942  0.44401  1.0000
  H   H3344     1.0  0.59715  0.99588  0.45093  1.0000
  C   C2790     1.0  0.99406  0.11164  0.52704  1.0000
  S   S751      1.0  0.65105  0.99500  0.51097  1.0000
  H   H3345     1.0  0.69270  0.04573  0.39279  1.0000
  S   S752      1.0  0.99358  0.34629  0.56773  1.0000
  C   C2791     1.0  0.99532  0.26078  0.47974  1.0000
  C   C2792     1.0  0.99350  0.22510  0.49848  1.0000
  H   H3346     1.0  0.73309  0.99816  0.52791  1.0000
  S   S753      1.0  0.68648  0.00315  0.39229  1.0000
  H   H3347     1.0  0.99397  0.11972  0.47607  1.0000
  H   H3348     1.0  0.99533  0.18697  0.52735  1.0000
  H   H3349     1.0  0.71689  0.99348  0.51213  1.0000
  H   H3350     1.0  0.99517  0.15195  0.47813  1.0000
  C   C2793     1.0  0.74243  0.99416  0.52434  1.0000
  C   C2794     1.0  0.99573  0.18840  0.47579  1.0000
  H   H3351     1.0  0.58318  0.99342  0.53694  1.0000
  H   H3352     1.0  0.55745  0.99402  0.58532  1.0000
  H   H3353     1.0  0.73483  0.00072  0.39158  1.0000
  C   C2795     1.0  0.83032  0.99316  0.40713  1.0000
  H   H3354     1.0  0.99280  0.47549  0.77745  1.0000
  H   H3355     1.0  0.96403  0.44751  0.75309  1.0000
  S   S754      1.0  0.50207  0.00692  0.68542  1.0000
  S   S755      1.0  0.60073  0.02813  0.78107  1.0000
  H   H3356     1.0  0.50999  0.00913  0.60325  1.0000
  Fe  Fe380     1.0  0.56819  0.03470  0.77877  1.0000
  S   S756      1.0  0.57976  0.04710  0.76822  1.0000
  S   S757      1.0  0.55102  0.03229  0.77809  1.0000
  Fe  Fe381     1.0  0.59382  0.03098  0.76494  1.0000
  S   S758      1.0  0.60385  0.02460  0.74843  1.0000
  Fe  Fe382     1.0  0.58565  0.04328  0.78525  1.0000
  C   C2796     1.0  0.50830  0.00423  0.76704  1.0000
  S   S759      1.0  0.58167  0.01910  0.77402  1.0000
  N   N186      1.0  0.97685  0.44989  0.65344  1.0000
  Fe  Fe383     1.0  0.57099  0.03223  0.70186  1.0000
  S   S760      1.0  0.55777  0.02334  0.71544  1.0000
  S   S761      1.0  0.57612  0.04571  0.70760  1.0000
  Fe  Fe384     1.0  0.57183  0.01875  0.68398  1.0000
  S   S762      1.0  0.55905  0.00833  0.69635  1.0000
  Fe  Fe385     1.0  0.54909  0.02566  0.70083  1.0000
  S   S763      1.0  0.52954  0.03187  0.70452  1.0000
  Fe  Fe386     1.0  0.56891  0.00703  0.70977  1.0000
  S   S764      1.0  0.50461  0.04034  0.78488  1.0000
  S   S765      1.0  0.56116  0.03628  0.68756  1.0000
  S   S766      1.0  0.58293  0.01561  0.69704  1.0000
  H   H3357     1.0  0.94541  0.45757  0.76013  1.0000
  H   H3358     1.0  0.96247  0.48653  0.74789  1.0000
  C   C2797     1.0  0.52169  0.06083  0.76482  1.0000
  H   H3359     1.0  0.51869  0.04721  0.75868  1.0000
  H   H3360     1.0  0.56302  0.08156  0.76478  1.0000
  H   H3361     1.0  0.92909  0.22738  0.59616  1.0000
  H   H3362     1.0  0.53445  0.00937  0.72019  1.0000
  S   S767      1.0  0.51541  0.01215  0.77171  1.0000
  H   H3363     1.0  0.53735  0.04792  0.67947  1.0000
  Fe  Fe387     1.0  0.58730  0.01742  0.79034  1.0000
  H   H3364     1.0  0.54127  0.01116  0.66410  1.0000
  C   C2798     1.0  0.97340  0.48686  0.71233  1.0000
  C   C2799     1.0  0.95684  0.41051  0.76172  1.0000
  H   H3365     1.0  0.61595  0.99755  0.77173  1.0000
  Fe  Fe388     1.0  0.50248  0.02891  0.77453  1.0000
  H   H3366     1.0  0.99066  0.39687  0.76457  1.0000
  H   H3367     1.0  0.51870  0.03240  0.63523  1.0000
  C   C2800     1.0  0.98113  0.44410  0.75587  1.0000
  C   C2801     1.0  0.51008  0.02718  0.70193  1.0000
  H   H3368     1.0  0.95260  0.39362  0.76970  1.0000
  H   H3369     1.0  0.50698  0.02324  0.65365  1.0000
  C   C2802     1.0  0.96705  0.46306  0.75660  1.0000
  C   C2803     1.0  0.51286  0.99734  0.64604  1.0000
  C   C2804     1.0  0.51165  0.02603  0.65870  1.0000
  S   S768      1.0  0.98371  0.49138  0.72752  1.0000
  C   C2805     1.0  0.98944  0.44816  0.75856  1.0000
  S   S769      1.0  0.54523  0.00325  0.64282  1.0000
  C   C2806     1.0  0.98034  0.48225  0.72070  1.0000
  C   C2807     1.0  0.56628  0.00740  0.64291  1.0000
  H   H3370     1.0  0.96825  0.43540  0.66042  1.0000
  C   C2808     1.0  0.98323  0.45559  0.64187  1.0000
  H   H3371     1.0  0.94054  0.47988  0.76733  1.0000
  S   S770      1.0  0.99114  0.40845  0.65162  1.0000
  S   S771      1.0  0.95667  0.40977  0.74751  1.0000
  H   H3372     1.0  0.99039  0.44919  0.63743  1.0000
  H   H3373     1.0  0.51840  0.00314  0.64554  1.0000
  H   H3374     1.0  0.53093  0.02661  0.64196  1.0000
  Fe  Fe389     1.0  0.97022  0.41803  0.73348  1.0000
  H   H3375     1.0  0.98906  0.20373  0.59373  1.0000
  S   S772      1.0  0.97031  0.45743  0.70511  1.0000
  C   C2809     1.0  0.50402  0.02174  0.69762  1.0000
  S   S773      1.0  0.97109  0.42300  0.71400  1.0000
  S   S774      1.0  0.97402  0.43465  0.73427  1.0000
  C   C2810     1.0  0.98415  0.47009  0.72423  1.0000
  H   H3376     1.0  0.50827  0.05491  0.64523  1.0000
  H   H3377     1.0  0.50926  0.05162  0.70950  1.0000
  H   H3378     1.0  0.55912  0.99644  0.78600  1.0000
  H   H3379     1.0  0.51588  0.04979  0.68479  1.0000
  H   H3380     1.0  0.52731  0.04212  0.63535  1.0000
  C   C2811     1.0  0.50436  0.06699  0.73499  1.0000
  H   H3381     1.0  0.50521  0.03333  0.70750  1.0000
  H   H3382     1.0  0.52698  0.99478  0.66836  1.0000
  H   H3383     1.0  0.56824  0.06729  0.78241  1.0000
  H   H3384     1.0  0.53503  0.99709  0.74528  1.0000
  C   C2812     1.0  0.97403  0.46705  0.71114  1.0000
  C   C2813     1.0  0.99014  0.44254  0.68036  1.0000
  C   C2814     1.0  0.99126  0.41458  0.77382  1.0000
  S   S775      1.0  0.98892  0.40803  0.73178  1.0000
  H   H3385     1.0  0.95449  0.47989  0.76929  1.0000
  H   H3386     1.0  0.57269  0.99902  0.74310  1.0000
  C   C2815     1.0  0.55916  0.07190  0.78261  1.0000
  H   H3387     1.0  0.95341  0.39413  0.78971  1.0000
  C   C2816     1.0  0.56971  0.01315  0.65904  1.0000
  H   H3388     1.0  0.61620  0.00074  0.75654  1.0000
  H   H3389     1.0  0.49907  0.00450  0.65915  1.0000
  C   C2817     1.0  0.97574  0.46693  0.75932  1.0000
  C   C2818     1.0  0.97007  0.45135  0.75498  1.0000
  C   C2819     1.0  0.98377  0.47960  0.78064  1.0000
  C   C2820     1.0  0.95500  0.40148  0.78248  1.0000
  H   H3390     1.0  0.52868  0.99592  0.60735  1.0000
  H   H3391     1.0  0.51907  0.01863  0.66097  1.0000
  C   C2821     1.0  0.51546  0.04396  0.66973  1.0000
  H   H3392     1.0  0.99228  0.37647  0.60323  1.0000
  H   H3393     1.0  0.52588  0.04988  0.71819  1.0000
  C   C2822     1.0  0.52098  0.04699  0.67674  1.0000
  H   H3394     1.0  0.98112  0.39636  0.78423  1.0000
  H   H3395     1.0  0.97975  0.43375  0.64766  1.0000
  H   H3396     1.0  0.51365  0.00991  0.72480  1.0000
  C   C2823     1.0  0.95735  0.19041  0.60068  1.0000
  C   C2824     1.0  0.96100  0.20023  0.60102  1.0000
  S   S776      1.0  0.57956  0.01585  0.66560  1.0000
  C   C2825     1.0  0.55790  0.01368  0.66473  1.0000
  H   H3397     1.0  0.97403  0.47570  0.76078  1.0000
  H   H3398     1.0  0.95750  0.18291  0.60801  1.0000
  H   H3399     1.0  0.96403  0.20022  0.60858  1.0000
  C   C2826     1.0  0.61765  0.99334  0.76417  1.0000
  H   H3400     1.0  0.98128  0.48595  0.67014  1.0000
  C   C2827     1.0  0.53159  0.00157  0.72056  1.0000
  C   C2828     1.0  0.97011  0.47923  0.70766  1.0000
  C   C2829     1.0  0.95920  0.42032  0.76373  1.0000
  H   H3401     1.0  0.54006  0.03584  0.64893  1.0000
  H   H3402     1.0  0.97959  0.48891  0.68421  1.0000
  C   C2830     1.0  0.51960  0.00173  0.72322  1.0000
  C   C2831     1.0  0.55458  0.00752  0.64877  1.0000
  C   C2832     1.0  0.52239  0.01132  0.68744  1.0000
  Fe  Fe390     1.0  0.99029  0.41439  0.71241  1.0000
  H   H3403     1.0  0.52316  0.01951  0.78767  1.0000
  C   C2833     1.0  0.55624  0.07999  0.77266  1.0000
  H   H3404     1.0  0.52723  0.00535  0.68174  1.0000
  C   C2834     1.0  0.55034  0.01087  0.65960  1.0000
  C   C2835     1.0  0.94964  0.47451  0.76722  1.0000
  H   H3405     1.0  0.96077  0.47923  0.73778  1.0000
  H   H3406     1.0  0.97732  0.46003  0.63565  1.0000
  C   C2836     1.0  0.95942  0.42072  0.77509  1.0000
  H   H3407     1.0  0.98082  0.37115  0.65721  1.0000
  C   C2837     1.0  0.95754  0.41120  0.78446  1.0000
  C   C2838     1.0  0.98366  0.49139  0.67472  1.0000
  H   H3408     1.0  0.52699  0.08881  0.78250  1.0000
  H   H3409     1.0  0.55446  0.01331  0.76732  1.0000
  H   H3410     1.0  0.93858  0.47160  0.75257  1.0000
  C   C2839     1.0  0.52232  0.02476  0.69900  1.0000
  C   C2840     1.0  0.52850  0.01687  0.69168  1.0000
  C   C2841     1.0  0.96358  0.47808  0.78929  1.0000
  H   H3411     1.0  0.53793  0.01519  0.68914  1.0000
  C   C2842     1.0  0.59624  0.03055  0.73702  1.0000
  C   C2843     1.0  0.59721  0.02380  0.72900  1.0000
  C   C2844     1.0  0.59086  0.02832  0.72008  1.0000
  C   C2845     1.0  0.58388  0.03976  0.71889  1.0000
  C   C2846     1.0  0.58303  0.04654  0.72684  1.0000
  C   C2847     1.0  0.58905  0.04187  0.73601  1.0000
  H   H3412     1.0  0.60282  0.01508  0.72969  1.0000
  H   H3413     1.0  0.59162  0.02308  0.71392  1.0000
  H   H3414     1.0  0.57765  0.05539  0.72594  1.0000
  H   H3415     1.0  0.58834  0.04717  0.74210  1.0000
  C   C2848     1.0  0.53431  0.03904  0.65649  1.0000
  C   C2849     1.0  0.52193  0.04007  0.65926  1.0000
  H   H3416     1.0  0.55458  0.01628  0.67306  1.0000
  H   H3417     1.0  0.98731  0.46231  0.64281  1.0000
  H   H3418     1.0  0.98321  0.43522  0.75459  1.0000
  H   H3419     1.0  0.95089  0.46277  0.74454  1.0000
  S   S777      1.0  0.50744  0.06939  0.76456  1.0000
  H   H3420     1.0  0.96051  0.42773  0.75659  1.0000
  C   C2850     1.0  0.98254  0.44791  0.67269  1.0000
  C   C2851     1.0  0.98069  0.49150  0.78093  1.0000
  C   C2852     1.0  0.52438  0.04963  0.76251  1.0000
  C   C2853     1.0  0.53380  0.04112  0.76618  1.0000
  C   C2854     1.0  0.54106  0.04393  0.77153  1.0000
  C   C2855     1.0  0.53918  0.05547  0.77280  1.0000
  C   C2856     1.0  0.52934  0.06394  0.76954  1.0000
  N   N187      1.0  0.51588  0.03680  0.65204  1.0000
  H   H3421     1.0  0.53506  0.03216  0.76540  1.0000
  H   H3422     1.0  0.54478  0.05763  0.77701  1.0000
  C   C2857     1.0  0.97253  0.44032  0.65182  1.0000
  H   H3423     1.0  0.96059  0.46253  0.65127  1.0000
  C   C2858     1.0  0.50561  0.04638  0.64936  1.0000
  C   C2859     1.0  0.57382  0.01020  0.64803  1.0000
  H   H3424     1.0  0.97784  0.36419  0.64202  1.0000
  C   C2860     1.0  0.95674  0.48160  0.74647  1.0000
  Fe  Fe391     1.0  0.97662  0.43892  0.71468  1.0000
  N   N188      1.0  0.95536  0.47094  0.75585  1.0000
  H   H3425     1.0  0.49850  0.04764  0.65730  1.0000
  H   H3426     1.0  0.60259  0.00314  0.66484  1.0000
  C   C2861     1.0  0.95455  0.40117  0.77117  1.0000
  C   C2862     1.0  0.98747  0.40962  0.68545  1.0000
  C   C2863     1.0  0.53976  0.04191  0.66370  1.0000
  C   C2864     1.0  0.98109  0.46254  0.71936  1.0000
  H   H3427     1.0  0.52074  0.01601  0.74133  1.0000
  C   C2865     1.0  0.94724  0.46544  0.75316  1.0000
  H   H3428     1.0  0.57018  0.00831  0.76426  1.0000
  H   H3429     1.0  0.52595  0.03459  0.73989  1.0000
  H   H3430     1.0  0.49735  0.00336  0.73837  1.0000
  C   C2866     1.0  0.53582  0.08394  0.78303  1.0000
  H   H3431     1.0  0.54234  0.09222  0.76506  1.0000
  C   C2867     1.0  0.99381  0.40627  0.66559  1.0000
  H   H3432     1.0  0.50612  0.04445  0.67276  1.0000
  H   H3433     1.0  0.55806  0.03197  0.75348  1.0000
  H   H3434     1.0  0.98075  0.41325  0.69228  1.0000
  H   H3435     1.0  0.96105  0.42839  0.77657  1.0000
  H   H3436     1.0  0.96449  0.48275  0.70144  1.0000
  C   C2868     1.0  0.52357  0.03442  0.64066  1.0000
  H   H3437     1.0  0.99304  0.46242  0.76299  1.0000
  C   C2869     1.0  0.98490  0.44487  0.66162  1.0000
  C   C2870     1.0  0.53310  0.04591  0.67378  1.0000
  H   H3438     1.0  0.50135  0.04451  0.64329  1.0000
  H   H3439     1.0  0.96907  0.46637  0.65889  1.0000
  C   C2871     1.0  0.98502  0.41078  0.67451  1.0000
  H   H3440     1.0  0.56126  0.99955  0.76303  1.0000
  C   C2872     1.0  0.96032  0.49015  0.78877  1.0000
  H   H3441     1.0  0.56951  0.00531  0.63436  1.0000
  H   H3442     1.0  0.97481  0.45422  0.67582  1.0000
  H   H3443     1.0  0.61259  0.99824  0.67415  1.0000
  H   H3444     1.0  0.50535  0.02738  0.66709  1.0000
  S   S778      1.0  0.97113  0.43989  0.78666  1.0000
  C   C2873     1.0  0.50786  0.05595  0.71663  1.0000
  H   H3445     1.0  0.97672  0.38227  0.64467  1.0000
  H   H3446     1.0  0.54484  0.03473  0.74264  1.0000
  C   C2874     1.0  0.97524  0.47287  0.78486  1.0000
  H   H3447     1.0  0.52720  0.07259  0.77138  1.0000
  C   C2875     1.0  0.51010  0.01376  0.69042  1.0000
  N   N189      1.0  0.56265  0.01498  0.74900  1.0000
  C   C2876     1.0  0.57283  0.00842  0.74151  1.0000
  C   C2877     1.0  0.56494  0.02672  0.74758  1.0000
  C   C2878     1.0  0.56213  0.00875  0.76143  1.0000
  C   C2879     1.0  0.55151  0.01553  0.74595  1.0000
  C   C2880     1.0  0.54834  0.00502  0.74636  1.0000
  C   C2881     1.0  0.54319  0.02626  0.74332  1.0000
  C   C2882     1.0  0.53738  0.00522  0.74467  1.0000
  C   C2883     1.0  0.53227  0.02635  0.74162  1.0000
  C   C2884     1.0  0.52933  0.01587  0.74239  1.0000
  H   H3448     1.0  0.57306  0.01232  0.73203  1.0000
  H   H3449     1.0  0.58134  0.00858  0.74311  1.0000
  S   S779      1.0  0.54949  0.99729  0.61179  1.0000
  H   H3450     1.0  0.56547  0.03182  0.73834  1.0000
  H   H3451     1.0  0.57339  0.02605  0.74983  1.0000
  H   H3452     1.0  0.97640  0.41537  0.67292  1.0000
  C   C2885     1.0  0.54460  0.08600  0.77287  1.0000
  H   H3453     1.0  0.54924  0.04083  0.66157  1.0000
  C   C2886     1.0  0.98785  0.35232  0.63114  1.0000
  H   H3454     1.0  0.94913  0.46665  0.77460  1.0000
  H   H3455     1.0  0.97772  0.46364  0.78473  1.0000
  C   C2887     1.0  0.51097  0.99970  0.60523  1.0000
  Fe  Fe392     1.0  0.49719  0.05527  0.77149  1.0000
  H   H3456     1.0  0.50349  0.07113  0.74208  1.0000
  Fe  Fe393     1.0  0.99287  0.42508  0.73103  1.0000
  H   H3457     1.0  0.98430  0.45321  0.72193  1.0000
  H   H3458     1.0  0.53768  0.01548  0.78958  1.0000
  H   H3459     1.0  0.98300  0.41563  0.77107  1.0000
  H   H3460     1.0  0.98947  0.46647  0.73075  1.0000
  H   H3461     1.0  0.55424  0.99654  0.74820  1.0000
  C   C2888     1.0  0.98669  0.45949  0.76045  1.0000
  H   H3462     1.0  0.96606  0.44372  0.64610  1.0000
  C   C2889     1.0  0.51724  0.05494  0.72154  1.0000
  H   H3463     1.0  0.94816  0.48787  0.74579  1.0000
  H   H3464     1.0  0.58285  0.01010  0.64343  1.0000
  C   C2890     1.0  0.96642  0.45883  0.65764  1.0000
  H   H3465     1.0  0.98808  0.44482  0.68884  1.0000
  H   H3466     1.0  0.52279  0.05967  0.73456  1.0000
  H   H3467     1.0  0.96092  0.45497  0.66609  1.0000
  C   C2891     1.0  0.51549  0.06044  0.73072  1.0000
  C   C2892     1.0  0.50149  0.99504  0.60581  1.0000
  H   H3468     1.0  0.99429  0.47723  0.69553  1.0000
  H   H3469     1.0  0.98021  0.34943  0.63109  1.0000
  H   H3470     1.0  0.98312  0.38569  0.65440  1.0000
  C   C2893     1.0  0.98662  0.36087  0.63736  1.0000
  C   C2894     1.0  0.98347  0.37856  0.65008  1.0000
  H   H3471     1.0  0.98898  0.41853  0.78160  1.0000
  N   N190      1.0  0.99538  0.37480  0.64282  1.0000
  C   C2895     1.0  0.98956  0.39585  0.78647  1.0000
  C   C2896     1.0  0.50183  0.99801  0.65380  1.0000
  H   H3472     1.0  0.60100  0.99658  0.65030  1.0000
  S   S780      1.0  0.49672  0.04370  0.76020  1.0000
  C   C2897     1.0  0.49668  0.06248  0.72083  1.0000
  C   C2898     1.0  0.49722  0.00945  0.76446  1.0000
  H   H3473     1.0  0.50160  0.99783  0.70877  1.0000
  H   H3474     1.0  0.99371  0.38638  0.78906  1.0000
  H   H3475     1.0  0.99196  0.38795  0.62744  1.0000
  S   S781      1.0  0.96638  0.22174  0.59210  1.0000
  H   H3476     1.0  0.99394  0.48050  0.74652  1.0000
  H   H3477     1.0  0.59591  0.99906  0.76077  1.0000
  H   H3478     1.0  0.60961  0.99585  0.74353  1.0000
  H   H3479     1.0  0.59504  0.99553  0.77618  1.0000
  C   C2899     1.0  0.60965  0.99558  0.66758  1.0000
  C   C2900     1.0  0.99535  0.43635  0.65872  1.0000
  H   H3480     1.0  0.61716  0.99467  0.65989  1.0000
  S   S782      1.0  0.99592  0.43071  0.71145  1.0000
  H   H3481     1.0  0.58785  0.99382  0.67906  1.0000
  C   C2901     1.0  0.96083  0.21000  0.59163  1.0000
  Fe  Fe394     1.0  0.89829  0.45466  0.96502  1.0000
  H   H3482     1.0  0.85627  0.46018  0.95150  1.0000
  C   C2902     1.0  0.51577  0.00131  0.86817  1.0000
  H   H3483     1.0  0.99029  0.46681  0.81480  1.0000
  C   C2903     1.0  0.98417  0.47509  0.81157  1.0000
  S   S783      1.0  0.75772  0.48397  0.94411  1.0000
  Fe  Fe395     1.0  0.57152  0.27006  0.95046  1.0000
  S   S784      1.0  0.58662  0.25596  0.95593  1.0000
  S   S785      1.0  0.57066  0.27536  0.93140  1.0000
  Fe  Fe396     1.0  0.56089  0.27419  0.97488  1.0000
  S   S786      1.0  0.57491  0.26035  0.98262  1.0000
  C   C2904     1.0  0.58247  0.00220  0.83596  1.0000
  Fe  Fe397     1.0  0.58729  0.26803  0.96670  1.0000
  S   S787      1.0  0.60520  0.26917  0.96756  1.0000
  Fe  Fe398     1.0  0.57304  0.24955  0.97132  1.0000
  S   S788      1.0  0.57089  0.23089  0.97801  1.0000
  S   S789      1.0  0.57339  0.28278  0.95979  1.0000
  S   S790      1.0  0.55781  0.26274  0.96510  1.0000
  Fe  Fe399     1.0  0.75632  0.40652  0.94499  1.0000
  S   S791      1.0  0.54254  0.01834  0.85781  1.0000
  H   H3484     1.0  0.52327  0.06231  0.90961  1.0000
  H   H3485     1.0  0.51125  0.40644  0.96237  1.0000
  H   H3486     1.0  0.54552  0.28111  0.90429  1.0000
  C   C2905     1.0  0.74701  0.44106  0.97358  1.0000
  Fe  Fe400     1.0  0.74440  0.43092  0.93448  1.0000
  S   S792      1.0  0.74786  0.44766  0.92241  1.0000
  S   S793      1.0  0.74964  0.41400  0.92844  1.0000
  C   C2906     1.0  0.53721  0.08940  0.97319  1.0000
  H   H3487     1.0  0.68730  0.45138  0.98671  1.0000
  H   H3488     1.0  0.81690  0.45180  0.98962  1.0000
  H   H3489     1.0  0.68850  0.41281  0.96774  1.0000
  S   S794      1.0  0.52109  0.07089  0.85382  1.0000
  H   H3490     1.0  0.67613  0.45851  0.97856  1.0000
  H   H3491     1.0  0.84635  0.47426  0.95221  1.0000
  Fe  Fe401     1.0  0.98066  0.46487  0.88571  1.0000
  H   H3492     1.0  0.98939  0.48116  0.80500  1.0000
  S   S795      1.0  0.96376  0.45911  0.89566  1.0000
  C   C2907     1.0  0.54257  0.08016  0.96726  1.0000
  H   H3493     1.0  0.78866  0.40212  0.98309  1.0000
  H   H3494     1.0  0.94513  0.44311  0.95341  1.0000
  H   H3495     1.0  0.53677  0.09077  0.86664  1.0000
  H   H3496     1.0  0.50577  0.12736  0.92116  1.0000
  C   C2908     1.0  0.70034  0.49116  0.97236  1.0000
  S   S796      1.0  0.98320  0.47404  0.86664  1.0000
  S   S797      1.0  0.53804  0.07922  0.95511  1.0000
  H   H3497     1.0  0.50636  0.02799  0.88865  1.0000
  S   S798      1.0  0.93504  0.47153  0.94480  1.0000
  S   S799      1.0  0.88453  0.48070  0.92955  1.0000
  C   C2909     1.0  0.52598  0.01941  0.82382  1.0000
  H   H3498     1.0  0.53044  0.99497  0.84165  1.0000
  C   C2910     1.0  0.70450  0.48155  0.98068  1.0000
  H   H3499     1.0  0.54118  0.12048  0.98522  1.0000
  H   H3500     1.0  0.67919  0.40443  0.93997  1.0000
  H   H3501     1.0  0.98692  0.39990  0.79426  1.0000
  C   C2911     1.0  0.62156  0.49093  0.98541  1.0000
  C   C2912     1.0  0.87529  0.45543  0.91649  1.0000
  H   H3502     1.0  0.52826  0.02898  0.79313  1.0000
  C   C2913     1.0  0.79624  0.39372  0.93856  1.0000
  H   H3503     1.0  0.76191  0.44449  0.98490  1.0000
  S   S800      1.0  0.95616  0.43661  0.81427  1.0000
  H   H3504     1.0  0.52333  0.13529  0.98256  1.0000
  C   C2914     1.0  0.69104  0.41026  0.95938  1.0000
  H   H3505     1.0  0.56386  0.11722  0.87714  1.0000
  H   H3506     1.0  0.51431  0.07818  0.79644  1.0000
  Fe  Fe402     1.0  0.58262  0.18744  0.94152  1.0000
  S   S801      1.0  0.56411  0.19729  0.94115  1.0000
  S   S802      1.0  0.59486  0.19827  0.94144  1.0000
  Fe  Fe403     1.0  0.57680  0.16387  0.94414  1.0000
  S   S803      1.0  0.55789  0.17207  0.94393  1.0000
  S   S804      1.0  0.58126  0.14414  0.94785  1.0000
  Fe  Fe404     1.0  0.56514  0.18574  0.92921  1.0000
  S   S805      1.0  0.55771  0.19213  0.91308  1.0000
  Fe  Fe405     1.0  0.55904  0.18259  0.95580  1.0000
  S   S806      1.0  0.54560  0.18584  0.97226  1.0000
  S   S807      1.0  0.58409  0.17680  0.92844  1.0000
  S   S808      1.0  0.57760  0.17348  0.95707  1.0000
  Fe  Fe406     1.0  0.52942  0.10558  0.91707  1.0000
  S   S809      1.0  0.54642  0.09672  0.92282  1.0000
  S   S810      1.0  0.52425  0.10432  0.90094  1.0000
  S   S811      1.0  0.53718  0.11280  0.94306  1.0000
  Fe  Fe407     1.0  0.54701  0.11458  0.92429  1.0000
  S   S812      1.0  0.56308  0.12226  0.91668  1.0000
  Fe  Fe408     1.0  0.53521  0.09573  0.94119  1.0000
  H   H3507     1.0  0.54355  0.14220  0.92482  1.0000
  Fe  Fe409     1.0  0.52220  0.05685  0.87023  1.0000
  C   C2915     1.0  0.55814  0.31044  0.95063  1.0000
  C   C2916     1.0  0.54175  0.12953  0.98126  1.0000
  C   C2917     1.0  0.57928  0.10601  0.97263  1.0000
  H   H3508     1.0  0.50076  0.20224  0.96985  1.0000
  H   H3509     1.0  0.53023  0.09637  0.97010  1.0000
  H   H3510     1.0  0.52922  0.15041  0.93030  1.0000
  S   S813      1.0  0.50623  0.19654  0.94097  1.0000
  H   H3511     1.0  0.49778  0.15560  0.95183  1.0000
  S   S814      1.0  0.64443  0.40967  0.99038  1.0000
  S   S815      1.0  0.54094  0.04831  0.86335  1.0000
  C   C2918     1.0  0.76374  0.48023  0.90760  1.0000
  C   C2919     1.0  0.53877  0.15001  0.92863  1.0000
  H   H3512     1.0  0.54252  0.28787  0.96416  1.0000
  C   C2920     1.0  0.49779  0.32346  0.97972  1.0000
  C   C2921     1.0  0.52233  0.09149  0.89814  1.0000
  C   C2922     1.0  0.51956  0.09224  0.88746  1.0000
  C   C2923     1.0  0.51833  0.08222  0.88463  1.0000
  C   C2924     1.0  0.51972  0.07136  0.89257  1.0000
  H   H3513     1.0  0.51842  0.10061  0.88127  1.0000
  H   H3514     1.0  0.51624  0.08293  0.87635  1.0000
  H   H3515     1.0  0.99488  0.43105  0.90533  1.0000
  C   C2925     1.0  0.60428  0.17457  0.98304  1.0000
  H   H3516     1.0  0.60024  0.49030  0.98376  1.0000
  H   H3517     1.0  0.50219  0.02523  0.90456  1.0000
  H   H3518     1.0  0.84571  0.44651  0.93238  1.0000
  C   C2926     1.0  0.74057  0.46502  0.99052  1.0000
  C   C2927     1.0  0.64263  0.39498  0.96323  1.0000
  C   C2928     1.0  0.57199  0.99763  0.79442  1.0000
  H   H3519     1.0  0.50716  0.24575  0.91402  1.0000
  H   H3520     1.0  0.56141  0.16355  0.97604  1.0000
  C   C2929     1.0  0.54624  0.20415  0.91579  1.0000
  C   C2930     1.0  0.54773  0.21226  0.92112  1.0000
  C   C2931     1.0  0.53513  0.20472  0.91425  1.0000
  H   H3521     1.0  0.55639  0.21210  0.92189  1.0000
  H   H3522     1.0  0.53397  0.19861  0.90991  1.0000
  C   C2932     1.0  0.57572  0.13872  0.93907  1.0000
  C   C2933     1.0  0.58158  0.13860  0.92741  1.0000
  C   C2934     1.0  0.57768  0.13340  0.92068  1.0000
  C   C2935     1.0  0.56787  0.12838  0.92554  1.0000
  C   C2936     1.0  0.56194  0.12861  0.93719  1.0000
  C   C2937     1.0  0.56585  0.13378  0.94394  1.0000
  H   H3523     1.0  0.58926  0.14232  0.92362  1.0000
  H   H3524     1.0  0.58230  0.13328  0.91167  1.0000
  H   H3525     1.0  0.55438  0.12479  0.94103  1.0000
  H   H3526     1.0  0.56133  0.13383  0.95295  1.0000
  C   C2938     1.0  0.55057  0.07151  0.87834  1.0000
  H   H3527     1.0  0.81441  0.39469  0.93265  1.0000
  C   C2939     1.0  0.68576  0.40552  0.94374  1.0000
  C   C2940     1.0  0.53246  0.07541  0.81416  1.0000
  H   H3528     1.0  0.77508  0.46866  0.98170  1.0000
  H   H3529     1.0  0.54225  0.07519  0.88409  1.0000
  S   S816      1.0  0.51446  0.22727  0.93425  1.0000
  Fe  Fe410     1.0  0.52114  0.12055  0.93555  1.0000
  C   C2941     1.0  0.54207  0.22167  0.96038  1.0000
  H   H3530     1.0  0.66125  0.38904  0.97248  1.0000
  C   C2942     1.0  0.56378  0.29093  0.99112  1.0000
  C   C2943     1.0  0.57841  0.06134  0.80471  1.0000
  H   H3531     1.0  0.53461  0.20698  0.98191  1.0000
  H   H3532     1.0  0.62436  0.49040  0.95706  1.0000
  H   H3533     1.0  0.53565  0.99670  0.80298  1.0000
  H   H3534     1.0  0.53294  0.01621  0.90869  1.0000
  N   N191      1.0  0.52948  0.07300  0.80415  1.0000
  C   C2944     1.0  0.56448  0.07429  0.86002  1.0000
  H   H3535     1.0  0.95164  0.45461  0.83108  1.0000
  H   H3536     1.0  0.95259  0.44906  0.85200  1.0000
  C   C2945     1.0  0.50703  0.16336  0.91786  1.0000
  H   H3537     1.0  0.70002  0.40116  0.92931  1.0000
  C   C2946     1.0  0.55141  0.07107  0.97142  1.0000
  H   H3538     1.0  0.60002  0.24695  0.98432  1.0000
  Fe  Fe411     1.0  0.97357  0.43228  0.81924  1.0000
  C   C2947     1.0  0.98396  0.43558  0.84075  1.0000
  C   C2948     1.0  0.74747  0.40736  0.98162  1.0000
  H   H3539     1.0  0.54272  0.14985  0.88683  1.0000
  H   H3540     1.0  0.80454  0.48782  0.90974  1.0000
  H   H3541     1.0  0.97906  0.47286  0.80658  1.0000
  C   C2949     1.0  0.55329  0.14424  0.97294  1.0000
  C   C2950     1.0  0.70726  0.48334  0.99033  1.0000
  C   C2951     1.0  0.56493  0.10815  0.86382  1.0000
  C   C2952     1.0  0.56197  0.10980  0.87529  1.0000
  H   H3542     1.0  0.51866  0.38237  0.98131  1.0000
  C   C2953     1.0  0.53132  0.01477  0.81354  1.0000
  S   S817      1.0  0.51459  0.04493  0.86453  1.0000
  S   S818      1.0  0.90751  0.45900  0.94603  1.0000
  H   H3543     1.0  0.72086  0.39974  0.98179  1.0000
  C   C2954     1.0  0.95587  0.46279  0.90925  1.0000
  C   C2955     1.0  0.95939  0.46995  0.91422  1.0000
  C   C2956     1.0  0.95303  0.47243  0.92520  1.0000
  C   C2957     1.0  0.94298  0.46800  0.93117  1.0000
  C   C2958     1.0  0.93948  0.46082  0.92621  1.0000
  C   C2959     1.0  0.94590  0.45824  0.91529  1.0000
  H   H3544     1.0  0.96695  0.47365  0.90959  1.0000
  H   H3545     1.0  0.54596  0.21249  0.96450  1.0000
  H   H3546     1.0  0.93191  0.45715  0.93085  1.0000
  H   H3547     1.0  0.94318  0.45262  0.91155  1.0000
  H   H3548     1.0  0.70150  0.38496  0.97629  1.0000
  H   H3549     1.0  0.54036  0.00191  0.89742  1.0000
  H   H3550     1.0  0.97962  0.44945  0.93912  1.0000
  C   C2960     1.0  0.49905  0.16954  0.93635  1.0000
  H   H3551     1.0  0.54111  0.14819  0.93728  1.0000
  H   H3552     1.0  0.72578  0.45709  0.95186  1.0000
  H   H3553     1.0  0.86058  0.43428  0.92030  1.0000
  C   C2961     1.0  0.49771  0.32036  0.95773  1.0000
  C   C2962     1.0  0.51494  0.15604  0.96597  1.0000
  H   H3554     1.0  0.53821  0.16844  0.93614  1.0000
  H   H3555     1.0  0.90791  0.48190  0.98366  1.0000
  C   C2963     1.0  0.70977  0.45123  0.96111  1.0000
  N   N192      1.0  0.97651  0.48052  0.82144  1.0000
  C   C2964     1.0  0.77523  0.37090  0.97587  1.0000
  C   C2965     1.0  0.54500  0.30016  0.94170  1.0000
  S   S819      1.0  0.83488  0.40812  0.96507  1.0000
  C   C2966     1.0  0.74960  0.45676  0.93038  1.0000
  C   C2967     1.0  0.75931  0.45369  0.93552  1.0000
  C   C2968     1.0  0.98330  0.43621  0.85226  1.0000
  C   C2969     1.0  0.75399  0.47299  0.94009  1.0000
  C   C2970     1.0  0.74376  0.47558  0.93591  1.0000
  C   C2971     1.0  0.74171  0.46760  0.93080  1.0000
  C   C2972     1.0  0.52910  0.06042  0.80677  1.0000
  H   H3556     1.0  0.50571  0.25747  0.89446  1.0000
  H   H3557     1.0  0.54700  0.09090  0.85275  1.0000
  H   H3558     1.0  0.73414  0.46995  0.92692  1.0000
  C   C2973     1.0  0.57764  0.07209  0.80728  1.0000
  H   H3559     1.0  0.59985  0.16864  0.99064  1.0000
  H   H3560     1.0  0.50880  0.03727  0.89637  1.0000
  H   H3561     1.0  0.76101  0.47196  0.91100  1.0000
  C   C2974     1.0  0.52535  0.21256  0.91921  1.0000
  H   H3562     1.0  0.83047  0.46839  0.94977  1.0000
  C   C2975     1.0  0.55047  0.06971  0.79277  1.0000
  C   C2976     1.0  0.49801  0.19838  0.97904  1.0000
  C   C2977     1.0  0.54250  0.15470  0.90264  1.0000
  C   C2978     1.0  0.56508  0.31480  0.95510  1.0000
  C   C2979     1.0  0.57747  0.22208  0.96765  1.0000
  C   C2980     1.0  0.58792  0.22372  0.95951  1.0000
  C   C2981     1.0  0.59326  0.21636  0.95150  1.0000
  C   C2982     1.0  0.58805  0.20748  0.95146  1.0000
  C   C2983     1.0  0.57762  0.20582  0.95964  1.0000
  C   C2984     1.0  0.57240  0.21305  0.96778  1.0000
  H   H3563     1.0  0.59207  0.23045  0.95960  1.0000
  H   H3564     1.0  0.60149  0.21746  0.94540  1.0000
  H   H3565     1.0  0.57372  0.19876  0.95994  1.0000
  H   H3566     1.0  0.56445  0.21158  0.97423  1.0000
  C   C2985     1.0  0.55792  0.27452  0.92791  1.0000
  C   C2986     1.0  0.54921  0.26960  0.93647  1.0000
  C   C2987     1.0  0.54659  0.27779  0.91325  1.0000
  C   C2988     1.0  0.55663  0.27853  0.91626  1.0000
  H   H3567     1.0  0.55016  0.26629  0.94538  1.0000
  H   H3568     1.0  0.56337  0.28230  0.90958  1.0000
  C   C2989     1.0  0.87304  0.44524  0.91532  1.0000
  H   H3569     1.0  0.58316  0.07790  0.80148  1.0000
  C   C2990     1.0  0.50901  0.02794  0.89672  1.0000
  C   C2991     1.0  0.57588  0.10336  0.98511  1.0000
  H   H3570     1.0  0.89898  0.48991  0.90670  1.0000
  C   C2992     1.0  0.49659  0.26671  0.98747  1.0000
  C   C2993     1.0  0.56239  0.09865  0.86143  1.0000
  H   H3571     1.0  0.50093  0.04114  0.84299  1.0000
  H   H3572     1.0  0.54840  0.00794  0.80308  1.0000
  H   H3573     1.0  0.54585  0.22246  0.95079  1.0000
  H   H3574     1.0  0.54831  0.14638  0.90543  1.0000
  S   S820      1.0  0.53109  0.12366  0.91686  1.0000
  H   H3575     1.0  0.52576  0.07996  0.91440  1.0000
  H   H3576     1.0  0.96102  0.45182  0.95363  1.0000
  H   H3577     1.0  0.53245  0.26509  0.94017  1.0000
  C   C2994     1.0  0.53578  0.17058  0.92751  1.0000
  Fe  Fe412     1.0  0.99285  0.48458  0.87142  1.0000
  H   H3578     1.0  0.86764  0.49154  0.91531  1.0000
  C   C2995     1.0  0.59870  0.28990  0.97582  1.0000
  C   C2996     1.0  0.60763  0.28033  0.97271  1.0000
  C   C2997     1.0  0.61903  0.27937  0.97382  1.0000
  H   H3579     1.0  0.64906  0.36319  0.98278  1.0000
  H   H3580     1.0  0.80642  0.39437  0.96874  1.0000
  H   H3581     1.0  0.58990  0.29076  0.97488  1.0000
  H   H3582     1.0  0.62601  0.27210  0.97133  1.0000
  N   N193      1.0  0.58141  0.23991  0.92206  1.0000
  C   C2998     1.0  0.59230  0.23046  0.92206  1.0000
  C   C2999     1.0  0.58497  0.25118  0.91603  1.0000
  C   C3000     1.0  0.57562  0.24036  0.93450  1.0000
  C   C3001     1.0  0.57314  0.23816  0.91613  1.0000
  C   C3002     1.0  0.57578  0.22877  0.91029  1.0000
  C   C3003     1.0  0.56211  0.24620  0.91585  1.0000
  C   C3004     1.0  0.56788  0.22770  0.90442  1.0000
  C   C3005     1.0  0.55424  0.24500  0.91006  1.0000
  C   C3006     1.0  0.55715  0.23579  0.90431  1.0000
  H   H3583     1.0  0.59749  0.23000  0.91299  1.0000
  H   H3584     1.0  0.59824  0.23193  0.92674  1.0000
  H   H3585     1.0  0.59026  0.22171  0.92659  1.0000
  H   H3586     1.0  0.58945  0.25120  0.90668  1.0000
  H   H3587     1.0  0.59101  0.25299  0.92037  1.0000
  H   H3588     1.0  0.57734  0.25883  0.91607  1.0000
  H   H3589     1.0  0.57242  0.23221  0.93926  1.0000
  H   H3590     1.0  0.58175  0.24131  0.93929  1.0000
  H   H3591     1.0  0.56807  0.24802  0.93536  1.0000
  H   H3592     1.0  0.58383  0.22207  0.91016  1.0000
  H   H3593     1.0  0.55952  0.25355  0.92005  1.0000
  H   H3594     1.0  0.56996  0.22037  0.90016  1.0000
  H   H3595     1.0  0.54584  0.25127  0.91005  1.0000
  H   H3596     1.0  0.55097  0.23476  0.89995  1.0000
  H   H3597     1.0  0.52085  0.15521  0.95725  1.0000
  H   H3598     1.0  0.50626  0.00345  0.87048  1.0000
  H   H3599     1.0  0.63912  0.39754  0.95517  1.0000
  H   H3600     1.0  0.87387  0.42566  0.98639  1.0000
  C   C3007     1.0  0.56969  0.07541  0.81730  1.0000
  Fe  Fe413     1.0  0.51536  0.05822  0.84733  1.0000
  H   H3601     1.0  0.66658  0.37455  0.95380  1.0000
  H   H3602     1.0  0.72580  0.44526  0.98809  1.0000
  H   H3603     1.0  0.56429  0.02636  0.84615  1.0000
  H   H3604     1.0  0.52766  0.02418  0.87875  1.0000
  C   C3008     1.0  0.58915  0.02041  0.82538  1.0000
  C   C3009     1.0  0.58488  0.11561  0.96737  1.0000
  H   H3605     1.0  0.99064  0.47679  0.83035  1.0000
  C   C3010     1.0  0.56329  0.05718  0.82233  1.0000
  C   C3011     1.0  0.87353  0.43942  0.95362  1.0000
  H   H3606     1.0  0.83909  0.45380  0.94962  1.0000
  H   H3607     1.0  0.51529  0.23778  0.95594  1.0000
  H   H3608     1.0  0.61390  0.20269  0.98512  1.0000
  C   C3012     1.0  0.52932  0.02505  0.88695  1.0000
  C   C3013     1.0  0.85913  0.45878  0.98882  1.0000
  S   S821      1.0  0.55254  0.07243  0.83721  1.0000
  H   H3609     1.0  0.52229  0.18421  0.89099  1.0000
  Fe  Fe414     1.0  0.91616  0.46970  0.95192  1.0000
  H   H3610     1.0  0.52958  0.35619  0.96091  1.0000
  H   H3611     1.0  0.60404  0.49032  0.96838  1.0000
  C   C3014     1.0  0.78522  0.39814  0.94513  1.0000
  N   N194      1.0  0.61885  0.48722  0.97602  1.0000
  N   N195      1.0  0.65092  0.38330  0.96432  1.0000
  H   H3612     1.0  0.85856  0.42328  0.97776  1.0000
  H   H3613     1.0  0.92082  0.48008  0.92470  1.0000
  C   C3015     1.0  0.58805  0.19089  0.98706  1.0000
  H   H3614     1.0  0.63042  0.28700  0.97866  1.0000
  C   C3016     1.0  0.99580  0.43151  0.92682  1.0000
  H   H3615     1.0  0.77369  0.47600  0.96121  1.0000
  H   H3616     1.0  0.57831  0.08147  0.96465  1.0000
  H   H3617     1.0  0.51087  0.26853  0.89733  1.0000
  C   C3017     1.0  0.58387  0.11893  0.98643  1.0000
  S   S822      1.0  0.81438  0.48750  0.92769  1.0000
  H   H3618     1.0  0.50486  0.20968  0.98503  1.0000
  C   C3018     1.0  0.82461  0.45556  0.98843  1.0000
  H   H3619     1.0  0.52553  0.07409  0.82237  1.0000
  S   S823      1.0  0.50699  0.13407  0.94400  1.0000
  C   C3019     1.0  0.86227  0.44231  0.92104  1.0000
  H   H3620     1.0  0.53244  0.36489  0.97572  1.0000
  C   C3020     1.0  0.98634  0.43171  0.91190  1.0000
  H   H3621     1.0  0.88830  0.44602  0.95310  1.0000
  C   C3021     1.0  0.61689  0.38021  0.98960  1.0000
  H   H3622     1.0  0.61278  0.38681  0.98305  1.0000
  C   C3022     1.0  0.76157  0.46188  0.94029  1.0000
  H   H3623     1.0  0.86899  0.47040  0.92410  1.0000
  H   H3624     1.0  0.98929  0.49049  0.81982  1.0000
  N   N196      1.0  0.54171  0.16110  0.92090  1.0000
  C   C3023     1.0  0.55458  0.15997  0.91859  1.0000
  C   C3024     1.0  0.53827  0.16334  0.90959  1.0000
  C   C3025     1.0  0.53102  0.17413  0.90495  1.0000
  C   C3026     1.0  0.52805  0.17598  0.89417  1.0000
  C   C3027     1.0  0.53220  0.16725  0.88769  1.0000
  H   H3625     1.0  0.53842  0.17900  0.92268  1.0000
  H   H3626     1.0  0.55766  0.15818  0.92683  1.0000
  H   H3627     1.0  0.55966  0.15269  0.91408  1.0000
  H   H3628     1.0  0.55714  0.16818  0.91287  1.0000
  H   H3629     1.0  0.52733  0.18123  0.90955  1.0000
  H   H3630     1.0  0.49967  0.41296  0.97322  1.0000
  H   H3631     1.0  0.52980  0.16873  0.87937  1.0000
  C   C3028     1.0  0.63809  0.37444  0.95787  1.0000
  C   C3029     1.0  0.77265  0.48221  0.91148  1.0000
  C   C3030     1.0  0.51721  0.37917  0.97450  1.0000
  H   H3632     1.0  0.80867  0.49051  0.95153  1.0000
  S   S824      1.0  0.50081  0.26608  0.94741  1.0000
  H   H3633     1.0  0.77659  0.47524  0.91789  1.0000
  H   H3634     1.0  0.57920  0.11117  0.94852  1.0000
  H   H3635     1.0  0.73896  0.46220  0.96376  1.0000
  H   H3636     1.0  0.51094  0.07809  0.81173  1.0000
  H   H3637     1.0  0.74978  0.43128  0.97560  1.0000
  C   C3031     1.0  0.77384  0.48202  0.96626  1.0000
  C   C3032     1.0  0.53430  0.00751  0.86185  1.0000
  H   H3638     1.0  0.50332  0.11549  0.91673  1.0000
  H   H3639     1.0  0.71479  0.44267  0.96443  1.0000
  H   H3640     1.0  0.79723  0.38721  0.93361  1.0000
  C   C3033     1.0  0.74136  0.45894  0.98177  1.0000
  C   C3034     1.0  0.53155  0.13812  0.97968  1.0000
  C   C3035     1.0  0.86505  0.43312  0.96054  1.0000
  S   S825      1.0  0.97999  0.44742  0.80618  1.0000
  H   H3641     1.0  0.58927  0.08385  0.97056  1.0000
  H   H3642     1.0  0.50980  0.02785  0.80918  1.0000
  C   C3036     1.0  0.54065  0.08939  0.98335  1.0000
  H   H3643     1.0  0.62648  0.36667  0.95339  1.0000
  H   H3644     1.0  0.56048  0.12596  0.97912  1.0000
  H   H3645     1.0  0.55747  0.06787  0.88357  1.0000
  C   C3037     1.0  0.54378  0.01143  0.81078  1.0000
  H   H3646     1.0  0.81532  0.39096  0.97914  1.0000
  C   C3038     1.0  0.80639  0.46818  0.94128  1.0000
  C   C3039     1.0  0.75809  0.48900  0.89959  1.0000
  H   H3647     1.0  0.56223  0.30760  0.94247  1.0000
  H   H3648     1.0  0.87968  0.43956  0.91006  1.0000
  H   H3649     1.0  0.52300  0.03026  0.90835  1.0000
  C   C3040     1.0  0.55509  0.07125  0.98125  1.0000
  S   S826      1.0  0.50275  0.06574  0.83523  1.0000
  H   H3650     1.0  0.70834  0.40128  0.97623  1.0000
  H   H3651     1.0  0.51255  0.14470  0.91900  1.0000
  H   H3652     1.0  0.75434  0.44446  0.96688  1.0000
  C   C3041     1.0  0.70435  0.38050  0.98470  1.0000
  C   C3042     1.0  0.57988  0.02685  0.83240  1.0000
  H   H3653     1.0  0.56911  0.08378  0.81918  1.0000
  H   H3654     1.0  0.95581  0.47795  0.92901  1.0000
  C   C3043     1.0  0.85589  0.45974  0.92971  1.0000
  H   H3655     1.0  0.54535  0.22772  0.96342  1.0000
  H   H3656     1.0  0.88368  0.45772  0.91207  1.0000
  S   S827      1.0  0.49975  0.18715  0.91648  1.0000
  S   S828      1.0  0.82732  0.42796  0.98133  1.0000
  C   C3044     1.0  0.73571  0.41199  0.98651  1.0000
  H   H3657     1.0  0.52788  0.20626  0.96578  1.0000
  C   C3045     1.0  0.52224  0.07066  0.90338  1.0000
  C   C3046     1.0  0.84322  0.47904  0.93001  1.0000
  C   C3047     1.0  0.55390  0.09242  0.88210  1.0000
  C   C3048     1.0  0.55259  0.13260  0.97791  1.0000
  H   H3658     1.0  0.71550  0.47711  0.94339  1.0000
  H   H3659     1.0  0.52602  0.17208  0.92926  1.0000
  H   H3660     1.0  0.54426  0.16184  0.96786  1.0000
  C   C3049     1.0  0.52676  0.22001  0.92541  1.0000
  H   H3661     1.0  0.55550  0.06388  0.96694  1.0000
  S   S829      1.0  0.82361  0.43544  0.95427  1.0000
  H   H3662     1.0  0.67653  0.44381  0.98679  1.0000
  H   H3663     1.0  0.86015  0.47339  0.94202  1.0000
  C   C3050     1.0  0.52427  0.22437  0.97575  1.0000
  H   H3664     1.0  0.97938  0.43643  0.90683  1.0000
  H   H3665     1.0  0.51779  0.01710  0.91613  1.0000
  H   H3666     1.0  0.63361  0.44980  0.96689  1.0000
  H   H3667     1.0  0.63499  0.39509  0.97086  1.0000
  H   H3668     1.0  0.52896  0.23562  0.94583  1.0000
  N   N197      1.0  0.52448  0.01343  0.80585  1.0000
  H   H3669     1.0  0.62661  0.35024  0.97077  1.0000
  C   C3051     1.0  0.51285  0.15925  0.98523  1.0000
  H   H3670     1.0  0.50770  0.01371  0.81826  1.0000
  H   H3671     1.0  0.70557  0.47271  0.97962  1.0000
  H   H3672     1.0  0.75681  0.43106  0.99127  1.0000
  C   C3052     1.0  0.52267  0.17117  0.96819  1.0000
  C   C3053     1.0  0.52623  0.00082  0.80599  1.0000
  C   C3054     1.0  0.62705  0.46725  0.97039  1.0000
  H   H3673     1.0  0.85066  0.44625  0.98762  1.0000
  H   H3674     1.0  0.96268  0.48902  0.81195  1.0000
  C   C3055     1.0  0.62656  0.49184  0.96476  1.0000
  C   C3056     1.0  0.79275  0.39544  0.99002  1.0000
  C   C3057     1.0  0.51398  0.36935  0.95778  1.0000
  C   C3058     1.0  0.73779  0.47732  0.98832  1.0000
  N   N198      1.0  0.78242  0.42856  0.91164  1.0000
  C   C3059     1.0  0.78201  0.44113  0.91060  1.0000
  C   C3060     1.0  0.77477  0.42809  0.90423  1.0000
  C   C3061     1.0  0.77726  0.42344  0.92396  1.0000
  C   C3062     1.0  0.79477  0.42211  0.90839  1.0000
  C   C3063     1.0  0.79882  0.41572  0.89928  1.0000
  C   C3064     1.0  0.80317  0.42200  0.91452  1.0000
  C   C3065     1.0  0.81055  0.40966  0.89653  1.0000
  C   C3066     1.0  0.81487  0.41595  0.91167  1.0000
  C   C3067     1.0  0.81856  0.40977  0.90272  1.0000
  H   H3675     1.0  0.77279  0.44639  0.91230  1.0000
  H   H3676     1.0  0.78624  0.44239  0.91701  1.0000
  H   H3677     1.0  0.78650  0.44509  0.90163  1.0000
  H   H3678     1.0  0.77796  0.43203  0.89482  1.0000
  H   H3679     1.0  0.76556  0.43310  0.90691  1.0000
  H   H3680     1.0  0.77413  0.41891  0.90511  1.0000
  H   H3681     1.0  0.78188  0.42421  0.93030  1.0000
  H   H3682     1.0  0.76790  0.42791  0.92664  1.0000
  H   H3683     1.0  0.77761  0.41393  0.92514  1.0000
  H   H3684     1.0  0.79308  0.41517  0.89421  1.0000
  H   H3685     1.0  0.80074  0.42639  0.92175  1.0000
  H   H3686     1.0  0.81345  0.40476  0.88962  1.0000
  H   H3687     1.0  0.82105  0.41585  0.91664  1.0000
  H   H3688     1.0  0.82761  0.40498  0.90066  1.0000
  H   H3689     1.0  0.51160  0.40181  0.97769  1.0000
  C   C3068     1.0  0.60123  0.29846  0.98003  1.0000
  H   H3690     1.0  0.56608  0.00530  0.84910  1.0000
  H   H3691     1.0  0.50684  0.16287  0.96443  1.0000
  C   C3069     1.0  0.96985  0.47209  0.83003  1.0000
  C   C3070     1.0  0.96276  0.46695  0.82633  1.0000
  C   C3071     1.0  0.96996  0.46891  0.84219  1.0000
  C   C3072     1.0  0.95662  0.45876  0.83420  1.0000
  C   C3073     1.0  0.96359  0.46087  0.85002  1.0000
  C   C3074     1.0  0.95708  0.45568  0.84600  1.0000
  C   C3075     1.0  0.71050  0.47073  0.94908  1.0000
  N   N199      1.0  0.74401  0.44592  0.98429  1.0000
  S   S830      1.0  0.51491  0.28619  0.94622  1.0000
  S   S831      1.0  0.49701  0.31841  0.94421  1.0000
  H   H3692     1.0  0.51150  0.25659  0.91804  1.0000
  H   H3693     1.0  0.97718  0.43209  0.85947  1.0000
  C   C3076     1.0  0.66025  0.38324  0.95339  1.0000
  H   H3694     1.0  0.50428  0.16549  0.98457  1.0000
  H   H3695     1.0  0.52855  0.02439  0.83846  1.0000
  H   H3696     1.0  0.96199  0.46909  0.81729  1.0000
  H   H3697     1.0  0.56005  0.01059  0.81517  1.0000
  H   H3698     1.0  0.58521  0.20035  0.98747  1.0000
  H   H3699     1.0  0.53921  0.22626  0.93029  1.0000
  N   N200      1.0  0.57632  0.09947  0.96563  1.0000
  H   H3700     1.0  0.70563  0.37089  0.98557  1.0000
  C   C3077     1.0  0.56345  0.10282  0.96653  1.0000
  H   H3701     1.0  0.53862  0.02054  0.88711  1.0000
  H   H3702     1.0  0.60262  0.20375  0.97282  1.0000
  H   H3703     1.0  0.58421  0.18965  0.98031  1.0000
  H   H3704     1.0  0.57117  0.09651  0.98978  1.0000
  C   C3078     1.0  0.61491  0.46831  0.98984  1.0000
  C   C3079     1.0  0.62041  0.47427  0.97871  1.0000
  H   H3705     1.0  0.62724  0.39132  0.99123  1.0000
  H   H3706     1.0  0.76901  0.36779  0.97332  1.0000
  C   C3080     1.0  0.78119  0.37653  0.99050  1.0000
  C   C3081     1.0  0.72440  0.38013  0.97479  1.0000
  H   H3707     1.0  0.86754  0.45479  0.98383  1.0000
  H   H3708     1.0  0.56066  0.09776  0.96182  1.0000
  H   H3709     1.0  0.56051  0.11233  0.96273  1.0000
  H   H3710     1.0  0.66337  0.37351  0.97517  1.0000
  H   H3711     1.0  0.58018  0.09652  0.94803  1.0000
  H   H3712     1.0  0.65662  0.38512  0.94548  1.0000
  H   H3713     1.0  0.79290  0.41725  0.95599  1.0000
  H   H3714     1.0  0.58753  0.11854  0.95797  1.0000
  C   C3082     1.0  0.83668  0.46263  0.94393  1.0000
  C   C3083     1.0  0.52828  0.21462  0.98440  1.0000
  H   H3715     1.0  0.67746  0.43706  0.96893  1.0000
  H   H3716     1.0  0.56909  0.11436  0.85674  1.0000
  C   C3084     1.0  0.52512  0.36905  0.97144  1.0000
  H   H3717     1.0  0.54984  0.99353  0.86031  1.0000
  C   C3085     1.0  0.50277  0.26550  0.89814  1.0000
  H   H3718     1.0  0.97504  0.47234  0.84587  1.0000
  H   H3719     1.0  0.69152  0.42746  0.98085  1.0000
  H   H3720     1.0  0.53921  0.29632  0.93888  1.0000
  C   C3086     1.0  0.60575  0.19419  0.97295  1.0000
  C   C3087     1.0  0.50059  0.31059  0.96658  1.0000
  N   N201      1.0  0.55417  0.08048  0.86775  1.0000
  C   C3088     1.0  0.80596  0.39795  0.93802  1.0000
  H   H3721     1.0  0.87368  0.44302  0.94439  1.0000
  H   H3722     1.0  0.67671  0.45178  0.96064  1.0000
  C   C3089     1.0  0.69827  0.47376  0.95140  1.0000
  C   C3090     1.0  0.73872  0.46593  0.97093  1.0000
  C   C3091     1.0  0.75534  0.40129  0.98892  1.0000
  H   H3723     1.0  0.68223  0.46843  0.96008  1.0000
  C   C3092     1.0  0.65115  0.46726  0.98567  1.0000
  C   C3093     1.0  0.78515  0.37370  0.96762  1.0000
  H   H3724     1.0  0.50315  0.00923  0.89747  1.0000
  H   H3725     1.0  0.52908  0.21430  0.95096  1.0000
  S   S832      1.0  0.54638  0.28367  0.98719  1.0000
  C   C3094     1.0  0.63187  0.35660  0.96927  1.0000
  H   H3726     1.0  0.63159  0.47092  0.96173  1.0000
  H   H3727     1.0  0.55023  0.01880  0.83286  1.0000
  H   H3728     1.0  0.78231  0.48386  0.92889  1.0000
  C   C3095     1.0  0.52378  0.02095  0.90809  1.0000
  H   H3729     1.0  0.63768  0.38152  0.95021  1.0000
  C   C3096     1.0  0.97474  0.43928  0.92972  1.0000
  C   C3097     1.0  0.80940  0.38745  0.97616  1.0000
  H   H3730     1.0  0.61547  0.25315  0.98580  1.0000
  C   C3098     1.0  0.95491  0.43560  0.93846  1.0000
  C   C3099     1.0  0.96239  0.44672  0.94713  1.0000
  C   C3100     1.0  0.95342  0.44179  0.94704  1.0000
  C   C3101     1.0  0.51166  0.01829  0.80934  1.0000
  H   H3731     1.0  0.80275  0.47703  0.97057  1.0000
  C   C3102     1.0  0.62153  0.28783  0.97799  1.0000
  H   H3732     1.0  0.92276  0.47339  0.91260  1.0000
  H   H3733     1.0  0.51162  0.24144  0.97400  1.0000
  N   N202      1.0  0.79930  0.38453  0.98581  1.0000
  C   C3103     1.0  0.80366  0.47463  0.96241  1.0000
  S   S833      1.0  0.52466  0.27327  0.91855  1.0000
  H   H3734     1.0  0.57404  0.31516  0.95041  1.0000
  S   S834      1.0  0.72629  0.42875  0.94434  1.0000
  C   C3104     1.0  0.50604  0.37954  0.96071  1.0000
  H   H3735     1.0  0.54879  0.06402  0.87604  1.0000
  H   H3736     1.0  0.73931  0.44305  0.96955  1.0000
  C   C3105     1.0  0.52858  0.01961  0.79360  1.0000
  H   H3737     1.0  0.57461  0.08361  0.97912  1.0000
  H   H3738     1.0  0.78658  0.37272  0.95869  1.0000
  H   H3739     1.0  0.59436  0.30589  0.98235  1.0000
  C   C3106     1.0  0.69754  0.40371  0.93768  1.0000
  H   H3740     1.0  0.73281  0.38245  0.97406  1.0000
  H   H3741     1.0  0.86554  0.47279  0.99068  1.0000
  H   H3742     1.0  0.59128  0.12930  0.96995  1.0000
  Fe  Fe415     1.0  0.53336  0.03742  0.85653  1.0000
  C   C3107     1.0  0.80212  0.46362  0.96257  1.0000
  C   C3108     1.0  0.99038  0.44233  0.85443  1.0000
  C   C3109     1.0  0.98417  0.48440  0.82653  1.0000
  H   H3743     1.0  0.98980  0.44285  0.86333  1.0000
  H   H3744     1.0  0.70250  0.43428  0.98127  1.0000
  Fe  Fe416     1.0  0.96551  0.42522  0.80115  1.0000
  S   S835      1.0  0.53359  0.04977  0.83895  1.0000
  H   H3745     1.0  0.54119  0.07817  0.86013  1.0000
  N   N203      1.0  0.98601  0.43805  0.92087  1.0000
  H   H3746     1.0  0.51669  0.21246  0.91864  1.0000
  C   C3110     1.0  0.55051  0.01287  0.81768  1.0000
  S   S836      1.0  0.81706  0.41210  0.94241  1.0000
  Fe  Fe417     1.0  0.89301  0.47526  0.94499  1.0000
  N   N204      1.0  0.71523  0.38357  0.98501  1.0000
  C   C3111     1.0  0.73577  0.47819  0.96893  1.0000
  Fe  Fe418     1.0  0.96330  0.45081  0.80022  1.0000
  C   C3112     1.0  0.53251  0.99941  0.89747  1.0000
  H   H3747     1.0  0.53168  0.24219  0.98817  1.0000
  H   H3748     1.0  0.76460  0.39861  0.98512  1.0000
  H   H3749     1.0  0.49876  0.38296  0.95639  1.0000
  S   S837      1.0  0.59438  0.33918  0.98183  1.0000
  Fe  Fe419     1.0  0.50149  0.21624  0.93785  1.0000
  H   H3750     1.0  0.53750  0.05444  0.80858  1.0000
  H   H3751     1.0  0.56183  0.14648  0.97008  1.0000
  H   H3752     1.0  0.56525  0.29529  0.98194  1.0000
  H   H3753     1.0  0.51657  0.02221  0.82669  1.0000
  Fe  Fe420     1.0  0.81235  0.43621  0.97222  1.0000
  H   H3754     1.0  0.51546  0.21706  0.96149  1.0000
  C   C3113     1.0  0.50550  0.14873  0.93616  1.0000
  S   S838      1.0  0.89260  0.43832  0.97627  1.0000
  C   C3114     1.0  0.54971  0.08034  0.98729  1.0000
  H   H3755     1.0  0.50229  0.12963  0.90721  1.0000
  C   C3115     1.0  0.88204  0.43609  0.97033  1.0000
  S   S839      1.0  0.50943  0.26475  0.97655  1.0000
  H   H3756     1.0  0.63050  0.48620  0.98677  1.0000
  H   H3757     1.0  0.98886  0.45506  0.92036  1.0000
  Fe  Fe421     1.0  0.51041  0.27873  0.93359  1.0000
  S   S840      1.0  0.51855  0.05851  0.88918  1.0000
  H   H3758     1.0  0.75073  0.40900  0.97224  1.0000
  H   H3759     1.0  0.65092  0.43978  0.98401  1.0000
  N   N205      1.0  0.53895  0.30472  0.95253  1.0000
  H   H3760     1.0  0.59532  0.02487  0.81852  1.0000
  C   C3116     1.0  0.53490  0.29485  0.96169  1.0000
  C   C3117     1.0  0.52853  0.31405  0.94994  1.0000
  C   C3118     1.0  0.54648  0.30954  0.95680  1.0000
  C   C3119     1.0  0.54217  0.31360  0.96746  1.0000
  C   C3120     1.0  0.54920  0.31790  0.97183  1.0000
  C   C3121     1.0  0.56063  0.31848  0.96569  1.0000
  H   H3761     1.0  0.57241  0.07155  0.86381  1.0000
  S   S841      1.0  0.51812  0.10322  0.93537  1.0000
  H   H3762     1.0  0.52957  0.29071  0.95865  1.0000
  H   H3763     1.0  0.52928  0.29761  0.96984  1.0000
  H   H3764     1.0  0.53117  0.32173  0.94324  1.0000
  H   H3765     1.0  0.52271  0.31083  0.94651  1.0000
  H   H3766     1.0  0.52299  0.31733  0.95787  1.0000
  H   H3767     1.0  0.53335  0.31333  0.97256  1.0000
  H   H3768     1.0  0.54589  0.32067  0.98011  1.0000
  H   H3769     1.0  0.56608  0.32170  0.96923  1.0000
  H   H3770     1.0  0.49876  0.25124  0.92678  1.0000
  C   C3122     1.0  0.53943  0.15663  0.89190  1.0000
  S   S842      1.0  0.80032  0.45321  0.97584  1.0000
  C   C3123     1.0  0.52366  0.08065  0.90612  1.0000
  C   C3124     1.0  0.53802  0.22033  0.92579  1.0000
  C   C3125     1.0  0.53916  0.26890  0.93349  1.0000
  Fe  Fe422     1.0  0.53928  0.06143  0.84657  1.0000
  S   S843      1.0  0.73945  0.40184  0.95581  1.0000
  C   C3126     1.0  0.56247  0.06799  0.82479  1.0000
  C   C3127     1.0  0.53776  0.27315  0.92192  1.0000
  H   H3771     1.0  0.55291  0.29302  0.94308  1.0000
  N   N206      1.0  0.49919  0.39550  0.97262  1.0000
  C   C3128     1.0  0.65301  0.45751  0.98083  1.0000
  C   C3129     1.0  0.59048  0.00827  0.82709  1.0000
  H   H3772     1.0  0.64691  0.40211  0.96284  1.0000
  C   C3130     1.0  0.80479  0.40644  0.94425  1.0000
  C   C3131     1.0  0.71274  0.39651  0.98360  1.0000
  H   H3773     1.0  0.49732  0.27238  0.89244  1.0000
  H   H3774     1.0  0.54772  0.30722  0.93415  1.0000
  H   H3775     1.0  0.86305  0.49036  0.97371  1.0000
  H   H3776     1.0  0.69388  0.48249  0.94746  1.0000
  C   C3132     1.0  0.79684  0.48620  0.90774  1.0000
  H   H3777     1.0  0.80760  0.46558  0.93313  1.0000
  Fe  Fe423     1.0  0.82264  0.41113  0.98213  1.0000
  S   S844      1.0  0.95324  0.46944  0.79605  1.0000
  S   S845      1.0  0.90840  0.46365  0.97117  1.0000
  S   S846      1.0  0.98884  0.47661  0.89072  1.0000
  C   C3133     1.0  0.78399  0.40654  0.95156  1.0000
  H   H3778     1.0  0.60280  0.19277  0.96567  1.0000
  S   S847      1.0  0.66759  0.41093  0.96175  1.0000
  S   S848      1.0  0.97491  0.42808  0.83811  1.0000
  S   S849      1.0  0.61665  0.30776  0.98616  1.0000
  C   C3134     1.0  0.54436  0.08528  0.86156  1.0000
  C   C3135     1.0  0.52199  0.01032  0.86457  1.0000
  C   C3136     1.0  0.49809  0.05660  0.82928  1.0000
  S   S850      1.0  0.80663  0.41957  0.97458  1.0000
  H   H3779     1.0  0.70318  0.42950  0.96821  1.0000
  H   H3780     1.0  0.61554  0.19192  0.97068  1.0000
  H   H3781     1.0  0.94776  0.43205  0.93826  1.0000
  C   C3137     1.0  0.86683  0.46261  0.92349  1.0000
  H   H3782     1.0  0.77549  0.40981  0.95683  1.0000
  C   C3138     1.0  0.50366  0.25385  0.91761  1.0000
  C   C3139     1.0  0.51178  0.00359  0.89757  1.0000
  C   C3140     1.0  0.88184  0.44109  0.95855  1.0000
  H   H3783     1.0  0.51422  0.17763  0.96728  1.0000
  C   C3141     1.0  0.71624  0.45949  0.95393  1.0000
  N   N207      1.0  0.52084  0.02020  0.89733  1.0000
  H   H3784     1.0  0.55852  0.10114  0.97582  1.0000
  C   C3142     1.0  0.65663  0.38189  0.97407  1.0000
  C   C3143     1.0  0.86500  0.42831  0.97244  1.0000
  H   H3785     1.0  0.56450  0.09797  0.85235  1.0000
  C   C3144     1.0  0.54501  0.01755  0.82761  1.0000
  Fe  Fe424     1.0  0.73225  0.41101  0.93985  1.0000
  H   H3786     1.0  0.51460  0.07883  0.99045  1.0000
  N   N208      1.0  0.69011  0.44540  0.97087  1.0000
  C   C3145     1.0  0.57166  0.02126  0.84088  1.0000
  S   S851      1.0  0.88305  0.46996  0.96334  1.0000
  C   C3146     1.0  0.51745  0.08008  0.80334  1.0000
  C   C3147     1.0  0.68219  0.44997  0.98116  1.0000
  S   S852      1.0  0.58837  0.05756  0.79196  1.0000
  Fe  Fe425     1.0  0.89359  0.47929  0.96845  1.0000
  C   C3148     1.0  0.53187  0.15012  0.97483  1.0000
  H   H3787     1.0  0.51725  0.01938  0.86402  1.0000
  H   H3788     1.0  0.80030  0.38050  0.96367  1.0000
  S   S853      1.0  0.72071  0.40319  0.93431  1.0000
  S   S854      1.0  0.85492  0.43144  0.95373  1.0000
  C   C3149     1.0  0.70607  0.40546  0.94226  1.0000
  N   N209      1.0  0.52086  0.15905  0.97352  1.0000
  C   C3150     1.0  0.58221  0.10189  0.95297  1.0000
  H   H3789     1.0  0.56885  0.00699  0.79382  1.0000
  H   H3790     1.0  0.49910  0.38866  0.99111  1.0000
  C   C3151     1.0  0.79383  0.41064  0.95119  1.0000
  C   C3152     1.0  0.68250  0.40868  0.95462  1.0000
  C   C3153     1.0  0.52496  0.23572  0.95525  1.0000
  H   H3791     1.0  0.56667  0.07972  0.85102  1.0000
  S   S855      1.0  0.88329  0.48836  0.98326  1.0000
  C   C3154     1.0  0.53278  0.02075  0.83071  1.0000
  H   H3792     1.0  0.80162  0.45217  0.95212  1.0000
  C   C3155     1.0  0.54310  0.15296  0.97152  1.0000
  C   C3156     1.0  0.77449  0.47795  0.97806  1.0000
  C   C3157     1.0  0.53852  0.07564  0.79330  1.0000
  C   C3158     1.0  0.77466  0.48562  0.98491  1.0000
  H   H3793     1.0  0.51264  0.36538  0.95144  1.0000
  C   C3159     1.0  0.64464  0.36423  0.97587  1.0000
  C   C3160     1.0  0.55340  0.17887  0.98335  1.0000
  C   C3161     1.0  0.98819  0.44982  0.91453  1.0000
  H   H3794     1.0  0.57902  0.03621  0.83117  1.0000
  H   H3795     1.0  0.79628  0.47703  0.91234  1.0000
  H   H3796     1.0  0.57212  0.04538  0.81069  1.0000
  Fe  Fe426     1.0  0.81928  0.41803  0.95735  1.0000
  H   H3797     1.0  0.83162  0.46198  0.93789  1.0000
  H   H3798     1.0  0.73453  0.38600  0.99086  1.0000
  H   H3799     1.0  0.50310  0.30454  0.98426  1.0000
  C   C3162     1.0  0.50056  0.15774  0.94236  1.0000
  C   C3163     1.0  0.50885  0.15155  0.92389  1.0000
  H   H3800     1.0  0.70943  0.41040  0.95645  1.0000
  H   H3801     1.0  0.72638  0.37047  0.97547  1.0000
  C   C3164     1.0  0.85374  0.44948  0.92803  1.0000
  C   C3165     1.0  0.69171  0.46560  0.95859  1.0000
  Fe  Fe427     1.0  0.50386  0.27484  0.95986  1.0000
  H   H3802     1.0  0.55795  0.05128  0.82822  1.0000
  C   C3166     1.0  0.50573  0.40455  0.97141  1.0000
  H   H3803     1.0  0.55379  0.10349  0.89325  1.0000
  C   C3167     1.0  0.80691  0.48228  0.95166  1.0000
  C   C3168     1.0  0.55702  0.09032  0.87053  1.0000
  H   H3804     1.0  0.54933  0.08693  0.88957  1.0000
  C   C3169     1.0  0.62301  0.44948  0.98433  1.0000
  C   C3170     1.0  0.52518  0.21510  0.96024  1.0000
  C   C3171     1.0  0.64459  0.37396  0.96610  1.0000
  S   S856      1.0  0.75262  0.42379  0.95003  1.0000
  C   C3172     1.0  0.68291  0.44357  0.96379  1.0000
  H   H3805     1.0  0.50204  0.27665  0.91437  1.0000
  H   H3806     1.0  0.73755  0.48388  0.93631  1.0000
  H   H3807     1.0  0.50925  0.16549  0.90837  1.0000
  H   H3808     1.0  0.65700  0.45796  0.97161  1.0000
  C   C3173     1.0  0.85275  0.46887  0.94612  1.0000
  H   H3809     1.0  0.76538  0.44527  0.93532  1.0000
  C   C3174     1.0  0.69726  0.45401  0.96359  1.0000
  C   C3175     1.0  0.80855  0.47894  0.94110  1.0000
  H   H3810     1.0  0.98526  0.42256  0.91594  1.0000
  N   N210      1.0  0.84725  0.46736  0.93734  1.0000
  H   H3811     1.0  0.50259  0.30182  0.96505  1.0000
  H   H3812     1.0  0.76941  0.45980  0.94369  1.0000
  C   C3176     1.0  0.57283  0.00915  0.84258  1.0000
  H   H3813     1.0  0.99437  0.42271  0.93198  1.0000
  Fe  Fe428     1.0  0.73505  0.41982  0.95935  1.0000
  H   H3814     1.0  0.82216  0.46512  0.98444  1.0000
  S   S857      1.0  0.72654  0.42183  0.97761  1.0000
  H   H3815     1.0  0.50677  0.01748  0.80323  1.0000
  C   C3177     1.0  0.55639  0.10201  0.88437  1.0000
  H   H3816     1.0  0.97892  0.48935  0.83347  1.0000
  H   H3817     1.0  0.96404  0.45834  0.85920  1.0000
  C   C3178     1.0  0.80313  0.46055  0.95201  1.0000
  C   C3179     1.0  0.70283  0.40886  0.95305  1.0000
  C   C3180     1.0  0.57981  0.08659  0.97019  1.0000
  H   H3818     1.0  0.56279  0.06630  0.85861  1.0000
  H   H3819     1.0  0.52729  0.05818  0.79925  1.0000
  N   N211      1.0  0.52899  0.22432  0.96311  1.0000
  H   H3820     1.0  0.52209  0.05821  0.81466  1.0000
  H   H3821     1.0  0.66534  0.39005  0.95192  1.0000
  Fe  Fe429     1.0  0.83818  0.42574  0.96351  1.0000
  C   C3181     1.0  0.57130  0.05384  0.81232  1.0000
  S   S858      1.0  0.77321  0.39304  0.94491  1.0000
  C   C3182     1.0  0.63175  0.36593  0.95953  1.0000
  C   C3183     1.0  0.84939  0.45389  0.99114  1.0000
  H   H3822     1.0  0.51070  0.15058  0.98984  1.0000
  S   S859      1.0  0.98227  0.41953  0.80750  1.0000
  H   H3823     1.0  0.52728  0.24311  0.95718  1.0000
  H   H3824     1.0  0.72162  0.38460  0.96634  1.0000
  S   S860      1.0  0.90210  0.48635  0.94975  1.0000
  N   N212      1.0  0.60104  0.18693  0.98445  1.0000
  H   H3825     1.0  0.59266  0.23074  0.98313  1.0000
  C   C3184     1.0  0.61270  0.29742  0.98108  1.0000
  C   C3185     1.0  0.58710  0.12193  0.97421  1.0000
  C   C3186     1.0  0.49795  0.04487  0.83487  1.0000
  H   H3826     1.0  0.73394  0.48333  0.96053  1.0000
  H   H3827     1.0  0.83639  0.48497  0.93531  1.0000
  H   H3828     1.0  0.52868  0.03453  0.88629  1.0000
  C   C3187     1.0  0.91688  0.48019  0.91746  1.0000
  C   C3188     1.0  0.97294  0.44543  0.93868  1.0000
  H   H3829     1.0  0.59194  0.09995  0.95174  1.0000
  H   H3830     1.0  0.90851  0.47731  0.92174  1.0000
  S   S861      1.0  0.65580  0.47992  0.97667  1.0000
  C   C3189     1.0  0.52350  0.36414  0.96312  1.0000
  C   C3190     1.0  0.52161  0.00777  0.89749  1.0000
  C   C3191     1.0  0.51541  0.23374  0.97987  1.0000
  H   H3831     1.0  0.85049  0.48360  0.92552  1.0000
  C   C3192     1.0  0.50215  0.17238  0.92407  1.0000
  H   H3832     1.0  0.83936  0.47822  0.92307  1.0000
  H   H3833     1.0  0.61394  0.17097  0.98192  1.0000
  H   H3834     1.0  0.53347  0.08462  0.81227  1.0000
  H   H3835     1.0  0.68860  0.44022  0.95590  1.0000
  C   C3193     1.0  0.96535  0.43440  0.92985  1.0000
  H   H3836     1.0  0.79886  0.48674  0.89811  1.0000
  C   C3194     1.0  0.63841  0.35568  0.97733  1.0000
  H   H3837     1.0  0.83185  0.45141  0.98189  1.0000
  C   C3195     1.0  0.69718  0.43369  0.97545  1.0000
  C   C3196     1.0  0.56123  0.16806  0.98258  1.0000
  C   C3197     1.0  0.64958  0.44722  0.98784  1.0000
  C   C3198     1.0  0.79302  0.37818  0.97065  1.0000
  H   H3838     1.0  0.65005  0.38221  0.98254  1.0000
  C   C3199     1.0  0.87365  0.42964  0.97730  1.0000
  C   C3200     1.0  0.56927  0.16332  0.98984  1.0000
  S   S862      1.0  0.60390  0.36607  0.98715  1.0000
  S   S863      1.0  0.95874  0.41090  0.79864  1.0000
  H   H3839     1.0  0.60161  0.17376  0.97530  1.0000
  H   H3840     1.0  0.53645  0.09643  0.98800  1.0000
  C   C3201     1.0  0.50043  0.20251  0.98759  1.0000
  H   H3841     1.0  0.52844  0.17179  0.95922  1.0000
  Fe  Fe430     1.0  0.66352  0.40767  0.98140  1.0000
  H   H3842     1.0  0.81495  0.37958  0.97275  1.0000
  H   H3843     1.0  0.91195  0.48466  0.89658  1.0000
  C   C3202     1.0  0.77327  0.37227  0.98732  1.0000
  H   H3844     1.0  0.52654  0.17429  0.97372  1.0000
  C   C3203     1.0  0.79124  0.37976  0.98224  1.0000
  H   H3845     1.0  0.54080  0.06955  0.81624  1.0000
  H   H3846     1.0  0.51702  0.08966  0.80156  1.0000
  C   C3204     1.0  0.75413  0.44082  0.99012  1.0000
  H   H3847     1.0  0.54095  0.26141  0.98975  1.0000
  H   H3848     1.0  0.75094  0.48757  0.89688  1.0000
  H   H3849     1.0  0.54707  0.24138  0.98585  1.0000
  C   C3205     1.0  0.50027  0.12508  0.91659  1.0000
  C   C3206     1.0  0.96811  0.49110  0.81673  1.0000
  H   H3850     1.0  0.63601  0.48768  0.96472  1.0000
  C   C3207     1.0  0.62826  0.45505  0.97322  1.0000
  H   H3851     1.0  0.98109  0.45497  0.90987  1.0000
  C   C3208     1.0  0.78288  0.49305  0.92437  1.0000
  S   S864      1.0  0.59043  0.99943  0.80186  1.0000
  H   H3852     1.0  0.62438  0.43997  0.98668  1.0000
  H   H3853     1.0  0.96573  0.42982  0.92327  1.0000
  Fe  Fe431     1.0  0.49803  0.29945  0.94510  1.0000
  H   H3854     1.0  0.69815  0.48987  0.96483  1.0000
  C   C3209     1.0  0.50084  0.31215  0.97748  1.0000
  C   C3210     1.0  0.99192  0.44086  0.83147  1.0000
  H   H3855     1.0  0.51202  0.14764  0.96999  1.0000
  H   H3856     1.0  0.52143  0.99960  0.80000  1.0000
  S   S865      1.0  0.57283  0.03210  0.79592  1.0000
  C   C3211     1.0  0.73539  0.48388  0.97754  1.0000
  H   H3857     1.0  0.99292  0.43994  0.82268  1.0000
  H   H3858     1.0  0.59780  0.00388  0.82124  1.0000
  C   C3212     1.0  0.54033  0.99576  0.86244  1.0000
  N   N213      1.0  0.91504  0.49191  0.90946  1.0000
  H   H3859     1.0  0.55320  0.06327  0.80020  1.0000
  H   H3860     1.0  0.52304  0.99586  0.81498  1.0000
  H   H3861     1.0  0.63821  0.34858  0.98506  1.0000
  H   H3862     1.0  0.53043  0.06144  0.98698  1.0000
  H   H3863     1.0  0.80772  0.49130  0.97617  1.0000
  H   H3864     1.0  0.56210  0.06426  0.98424  1.0000
  C   C3213     1.0  0.77625  0.49306  0.90732  1.0000
  H   H3865     1.0  0.57562  0.15516  0.98888  1.0000
  Fe  Fe432     1.0  0.98723  0.43507  0.79392  1.0000
  C   C3214     1.0  0.50748  0.38482  0.96914  1.0000
  C   C3215     1.0  0.60647  0.49287  0.97534  1.0000
  C   C3216     1.0  0.90771  0.49173  0.90161  1.0000
  N   N214      1.0  0.49610  0.26330  0.91050  1.0000
  C   C3217     1.0  0.59461  0.23075  0.99130  1.0000
  H   H3866     1.0  0.51677  0.16192  0.99102  1.0000
  H   H3867     1.0  0.76579  0.49703  0.00334  1.0000
  H   H3868     1.0  0.52797  0.71719  0.02720  1.0000
  H   H3869     1.0  0.52783  0.72460  0.01238  1.0000
  H   H3870     1.0  0.50468  0.74279  0.01740  1.0000
  H   H3871     1.0  0.56392  0.64924  0.99465  1.0000
  C   C3218     1.0  0.50038  0.58877  0.99759  1.0000
  C   C3219     1.0  0.50385  0.72442  0.03588  1.0000
  C   C3220     1.0  0.85903  0.50027  0.03087  1.0000
  S   S866      1.0  0.59809  0.77203  0.03155  1.0000
  H   H3872     1.0  0.53482  0.64546  0.00984  1.0000
  C   C3221     1.0  0.89274  0.50541  0.02961  1.0000
  C   C3222     1.0  0.85629  0.49726  0.05198  1.0000
  C   C3223     1.0  0.58597  0.55216  0.99760  1.0000
  H   H3873     1.0  0.67218  0.98590  0.16225  1.0000
  S   S867      1.0  0.72200  0.53058  0.01709  1.0000
  H   H3874     1.0  0.88449  0.50899  0.03558  1.0000
  Fe  Fe433     1.0  0.72576  0.52497  0.03500  1.0000
  S   S868      1.0  0.73270  0.53655  0.04160  1.0000
  Fe  Fe434     1.0  0.70557  0.52389  0.02568  1.0000
  S   S869      1.0  0.68927  0.53379  0.01907  1.0000
  H   H3875     1.0  0.51081  0.96632  0.12821  1.0000
  H   H3876     1.0  0.90703  0.50539  0.10334  1.0000
  Fe  Fe435     1.0  0.57612  0.66603  0.02874  1.0000
  H   H3877     1.0  0.97673  0.52226  0.14052  1.0000
  C   C3224     1.0  0.54857  0.80481  0.03152  1.0000
  Fe  Fe436     1.0  0.56743  0.68238  0.04560  1.0000
  H   H3878     1.0  0.89734  0.53156  0.01205  1.0000
  S   S870      1.0  0.56501  0.68382  0.06414  1.0000
  H   H3879     1.0  0.74566  0.55200  0.04323  1.0000
  H   H3880     1.0  0.53980  0.78879  0.00526  1.0000
  H   H3881     1.0  0.52537  0.96090  0.17186  1.0000
  C   C3225     1.0  0.52912  0.97544  0.10244  1.0000
  S   S871      1.0  0.58507  0.67718  0.03375  1.0000
  C   C3226     1.0  0.52634  0.74272  0.05803  1.0000
  C   C3227     1.0  0.52682  0.94645  0.15292  1.0000
  C   C3228     1.0  0.56067  0.95470  0.10523  1.0000
  H   H3882     1.0  0.77510  0.51028  0.06614  1.0000
  S   S872      1.0  0.81286  0.51908  0.00694  1.0000
  H   H3883     1.0  0.52398  0.68763  0.08410  1.0000
  H   H3884     1.0  0.90380  0.52341  0.02440  1.0000
  Fe  Fe437     1.0  0.71832  0.50203  0.04018  1.0000
  S   S873      1.0  0.78462  0.54293  0.01779  1.0000
  H   H3885     1.0  0.57901  0.95213  0.14860  1.0000
  H   H3886     1.0  0.50577  0.69688  0.08031  1.0000
  S   S874      1.0  0.50271  0.75092  0.05979  1.0000
  H   H3887     1.0  0.54504  0.73814  0.05650  1.0000
  H   H3888     1.0  0.77124  0.52812  0.01458  1.0000
  S   S875      1.0  0.49924  0.85731  0.05958  1.0000
  H   H3889     1.0  0.52065  0.64919  0.01958  1.0000
  H   H3890     1.0  0.91110  0.50192  0.12299  1.0000
  N   N215      1.0  0.52798  0.69127  0.06512  1.0000
  H   H3891     1.0  0.55756  0.87022  0.10472  1.0000
  H   H3892     1.0  0.76088  0.52777  0.05961  1.0000
  Fe  Fe438     1.0  0.61274  0.98913  0.16719  1.0000
  S   S876      1.0  0.55099  0.62355  0.01369  1.0000
  H   H3893     1.0  0.49763  0.62033  0.03667  1.0000
  C   C3229     1.0  0.65386  0.98659  0.18054  1.0000
  S   S877      1.0  0.62635  0.97216  0.16817  1.0000
  S   S878      1.0  0.94377  0.51063  0.13593  1.0000
  Fe  Fe439     1.0  0.57864  0.74132  0.06110  1.0000
  C   C3230     1.0  0.52566  0.85521  0.99176  1.0000
  S   S879      1.0  0.58620  0.72311  0.07020  1.0000
  Fe  Fe440     1.0  0.56240  0.76535  0.06207  1.0000
  S   S880      1.0  0.56501  0.77089  0.04248  1.0000
  S   S881      1.0  0.54953  0.77761  0.07297  1.0000
  Fe  Fe441     1.0  0.56370  0.75259  0.04341  1.0000
  C   C3231     1.0  0.63257  0.53298  0.02583  1.0000
  C   C3232     1.0  0.60325  0.72661  0.02056  1.0000
  S   S882      1.0  0.55921  0.74780  0.06302  1.0000
  S   S883      1.0  0.58150  0.75839  0.06231  1.0000
  Fe  Fe442     1.0  0.51753  0.91374  0.13595  1.0000
  S   S884      1.0  0.53143  0.89704  0.13730  1.0000
  H   H3894     1.0  0.52853  0.79754  0.05309  1.0000
  Fe  Fe443     1.0  0.53144  0.92543  0.11317  1.0000
  S   S885      1.0  0.54633  0.90945  0.11245  1.0000
  S   S886      1.0  0.53332  0.94203  0.09945  1.0000
  Fe  Fe444     1.0  0.53216  0.89915  0.11807  1.0000
  S   S887      1.0  0.53243  0.88209  0.11341  1.0000
  Fe  Fe445     1.0  0.54411  0.90886  0.13159  1.0000
  S   S888      1.0  0.55998  0.90678  0.13882  1.0000
  S   S889      1.0  0.51743  0.91530  0.11713  1.0000
  S   S890      1.0  0.53008  0.92537  0.13194  1.0000
  C   C3233     1.0  0.53615  0.78773  0.01464  1.0000
  C   C3234     1.0  0.60165  0.72905  0.00890  1.0000
  Fe  Fe446     1.0  0.53180  0.84137  0.05283  1.0000
  S   S891      1.0  0.52116  0.84084  0.07131  1.0000
  S   S892      1.0  0.55039  0.83080  0.04933  1.0000
  C   C3235     1.0  0.59604  0.77814  0.01727  1.0000
  N   N216      1.0  0.51059  0.72423  0.02368  1.0000
  C   C3236     1.0  0.51975  0.66583  0.03536  1.0000
  S   S893      1.0  0.52601  0.86090  0.04661  1.0000
  H   H3895     1.0  0.61634  0.52357  0.01190  1.0000
  H   H3896     1.0  0.60408  0.54687  0.02450  1.0000
  N   N217      1.0  0.55779  0.80871  0.02135  1.0000
  H   H3897     1.0  0.50163  0.71233  0.02126  1.0000
  C   C3237     1.0  0.52850  0.95503  0.10486  1.0000
  C   C3238     1.0  0.53261  0.96506  0.09817  1.0000
  Fe  Fe447     1.0  0.82189  0.51111  0.02200  1.0000
  H   H3898     1.0  0.60532  0.70499  0.01623  1.0000
  C   C3239     1.0  0.51705  0.96592  0.11992  1.0000
  C   C3240     1.0  0.52072  0.95547  0.11577  1.0000
  H   H3899     1.0  0.53846  0.96484  0.08963  1.0000
  S   S894      1.0  0.58528  0.64928  0.02256  1.0000
  C   C3241     1.0  0.57954  0.70712  0.99439  1.0000
  H   H3900     1.0  0.51723  0.94789  0.12083  1.0000
  H   H3901     1.0  0.54490  0.94675  0.12347  1.0000
  S   S895      1.0  0.58655  0.70431  0.00596  1.0000
  C   C3242     1.0  0.53746  0.94970  0.14704  1.0000
  S   S896      1.0  0.78973  0.50967  0.02462  1.0000
  H   H3902     1.0  0.57145  0.79712  0.03011  1.0000
  C   C3243     1.0  0.51727  0.74760  0.05201  1.0000
  C   C3244     1.0  0.56869  0.79927  0.02161  1.0000
  H   H3903     1.0  0.56277  0.70472  0.00571  1.0000
  H   H3904     1.0  0.77168  0.49618  0.07056  1.0000
  H   H3905     1.0  0.56744  0.79095  0.02050  1.0000
  C   C3245     1.0  0.52700  0.88054  0.10193  1.0000
  C   C3246     1.0  0.52638  0.86928  0.10151  1.0000
  C   C3247     1.0  0.52225  0.86760  0.09250  1.0000
  C   C3248     1.0  0.51862  0.87721  0.08381  1.0000
  C   C3249     1.0  0.51923  0.88847  0.08424  1.0000
  C   C3250     1.0  0.52341  0.89014  0.09322  1.0000
  H   H3906     1.0  0.52904  0.86181  0.10826  1.0000
  H   H3907     1.0  0.52160  0.85892  0.09246  1.0000
  H   H3908     1.0  0.96130  0.51102  0.16794  1.0000
  H   H3909     1.0  0.52381  0.89886  0.09343  1.0000
  C   C3251     1.0  0.55022  0.79234  0.06689  1.0000
  C   C3252     1.0  0.53995  0.80109  0.06859  1.0000
  C   C3253     1.0  0.54002  0.81285  0.06313  1.0000
  C   C3254     1.0  0.55049  0.81603  0.05640  1.0000
  C   C3255     1.0  0.56092  0.80733  0.05508  1.0000
  C   C3256     1.0  0.56073  0.79544  0.06010  1.0000
  H   H3910     1.0  0.53183  0.79874  0.07393  1.0000
  H   H3911     1.0  0.53191  0.81940  0.06415  1.0000
  H   H3912     1.0  0.56909  0.80971  0.05002  1.0000
  H   H3913     1.0  0.56872  0.78869  0.05887  1.0000
  C   C3257     1.0  0.91831  0.49719  0.08965  1.0000
  S   S897      1.0  0.56065  0.69802  0.03245  1.0000
  C   C3258     1.0  0.52363  0.85504  0.01230  1.0000
  Fe  Fe448     1.0  0.55389  0.68519  0.02753  1.0000
  H   H3914     1.0  0.52736  0.97919  0.13921  1.0000
  H   H3915     1.0  0.51297  0.75383  0.03500  1.0000
  C   C3259     1.0  0.58681  0.77966  0.00148  1.0000
  H   H3916     1.0  0.54569  0.79750  0.03015  1.0000
  H   H3917     1.0  0.64072  0.98815  0.16483  1.0000
  C   C3260     1.0  0.50827  0.91060  0.18566  1.0000
  C   C3261     1.0  0.86481  0.52408  0.01141  1.0000
  H   H3918     1.0  0.50620  0.72585  0.06293  1.0000
  C   C3262     1.0  0.51462  0.69115  0.05272  1.0000
  H   H3919     1.0  0.86479  0.49950  0.02239  1.0000
  C   C3263     1.0  0.55703  0.86546  0.09861  1.0000
  H   H3920     1.0  0.56669  0.82298  0.01502  1.0000
  H   H3921     1.0  0.56179  0.66300  0.00391  1.0000
  H   H3922     1.0  0.52340  0.70300  0.07699  1.0000
  H   H3923     1.0  0.60602  0.51566  0.02226  1.0000
  Fe  Fe449     1.0  0.55820  0.61000  0.00246  1.0000
  C   C3264     1.0  0.51604  0.69281  0.06330  1.0000
  H   H3924     1.0  0.78152  0.49488  0.99998  1.0000
  C   C3265     1.0  0.55366  0.91962  0.17259  1.0000
  C   C3266     1.0  0.56510  0.91514  0.16682  1.0000
  C   C3267     1.0  0.56696  0.91100  0.15657  1.0000
  C   C3268     1.0  0.55741  0.91143  0.15202  1.0000
  C   C3269     1.0  0.54599  0.91582  0.15787  1.0000
  C   C3270     1.0  0.54413  0.91986  0.16815  1.0000
  H   H3925     1.0  0.57249  0.91480  0.17028  1.0000
  H   H3926     1.0  0.57582  0.90753  0.15211  1.0000
  H   H3927     1.0  0.53858  0.91600  0.15454  1.0000
  H   H3928     1.0  0.53525  0.92307  0.17276  1.0000
  H   H3929     1.0  0.51355  0.80211  0.05142  1.0000
  H   H3930     1.0  0.58432  0.76739  0.01819  1.0000
  H   H3931     1.0  0.51227  0.93478  0.17150  1.0000
  H   H3932     1.0  0.99320  0.49582  0.13826  1.0000
  H   H3933     1.0  0.83024  0.50958  0.04345  1.0000
  C   C3271     1.0  0.50610  0.82997  0.00133  1.0000
  C   C3272     1.0  0.49693  0.91600  0.18382  1.0000
  C   C3273     1.0  0.51027  0.58252  0.00226  1.0000
  H   H3934     1.0  0.58046  0.74106  0.99614  1.0000
  C   C3274     1.0  0.52892  0.77424  0.05937  1.0000
  C   C3275     1.0  0.90699  0.50850  0.01149  1.0000
  H   H3935     1.0  0.54945  0.77234  0.01913  1.0000
  H   H3936     1.0  0.55180  0.80150  0.03979  1.0000
  H   H3937     1.0  0.56822  0.85261  0.06096  1.0000
  C   C3276     1.0  0.57231  0.93506  0.10930  1.0000
  C   C3277     1.0  0.52160  0.62884  0.01254  1.0000
  H   H3938     1.0  0.53592  0.69722  0.04678  1.0000
  S   S898      1.0  0.57010  0.68021  0.01426  1.0000
  H   H3939     1.0  0.56778  0.73245  0.01518  1.0000
  H   H3940     1.0  0.49629  0.83330  0.04774  1.0000
  C   C3278     1.0  0.51606  0.95496  0.15446  1.0000
  H   H3941     1.0  0.56290  0.72376  0.00859  1.0000
  C   C3279     1.0  0.50358  0.91414  0.16346  1.0000
  H   H3942     1.0  0.61645  0.67046  0.00634  1.0000
  C   C3280     1.0  0.57094  0.69488  0.06544  1.0000
  C   C3281     1.0  0.56853  0.70634  0.05868  1.0000
  C   C3282     1.0  0.57299  0.71515  0.06026  1.0000
  C   C3283     1.0  0.58010  0.71243  0.06837  1.0000
  C   C3284     1.0  0.58257  0.70095  0.07499  1.0000
  C   C3285     1.0  0.57786  0.69226  0.07366  1.0000
  H   H3943     1.0  0.56301  0.70849  0.05246  1.0000
  H   H3944     1.0  0.57091  0.72404  0.05523  1.0000
  H   H3945     1.0  0.58801  0.69882  0.08130  1.0000
  H   H3946     1.0  0.57967  0.68345  0.07897  1.0000
  C   C3286     1.0  0.74688  0.53864  0.03418  1.0000
  C   C3287     1.0  0.75121  0.54678  0.03698  1.0000
  C   C3288     1.0  0.76270  0.54822  0.03171  1.0000
  C   C3289     1.0  0.77004  0.54136  0.02380  1.0000
  C   C3290     1.0  0.76571  0.53324  0.02092  1.0000
  C   C3291     1.0  0.75409  0.53194  0.02603  1.0000
  H   H3947     1.0  0.54348  0.67728  0.06656  1.0000
  H   H3948     1.0  0.76597  0.55455  0.03391  1.0000
  H   H3949     1.0  0.60239  0.53131  0.01890  1.0000
  H   H3950     1.0  0.88830  0.52861  0.02658  1.0000
  H   H3951     1.0  0.50032  0.99028  0.18541  1.0000
  C   C3292     1.0  0.52981  0.96722  0.17299  1.0000
  C   C3293     1.0  0.91602  0.50328  0.09855  1.0000
  H   H3952     1.0  0.54553  0.94297  0.14607  1.0000
  H   H3953     1.0  0.56694  0.96554  0.11676  1.0000
  C   C3294     1.0  0.95734  0.51607  0.16064  1.0000
  H   H3954     1.0  0.58089  0.77693  0.99821  1.0000
  H   H3955     1.0  0.74708  0.52699  0.05803  1.0000
  S   S899      1.0  0.84138  0.50952  0.01890  1.0000
  H   H3956     1.0  0.50667  0.89818  0.13646  1.0000
  C   C3295     1.0  0.66451  0.51113  0.02076  1.0000
  C   C3296     1.0  0.66410  0.52213  0.01309  1.0000
  C   C3297     1.0  0.67154  0.52914  0.01286  1.0000
  C   C3298     1.0  0.67972  0.52501  0.02000  1.0000
  C   C3299     1.0  0.68028  0.51392  0.02757  1.0000
  H   H3957     1.0  0.95603  0.50086  0.15548  1.0000
  H   H3958     1.0  0.65796  0.52534  0.00742  1.0000
  H   H3959     1.0  0.67110  0.53772  0.00700  1.0000
  H   H3960     1.0  0.61232  0.56407  0.01980  1.0000
  H   H3961     1.0  0.53204  0.97318  0.16435  1.0000
  H   H3962     1.0  0.89995  0.50306  0.03437  1.0000
  C   C3300     1.0  0.58031  0.63353  0.01336  1.0000
  C   C3301     1.0  0.57572  0.64232  0.01988  1.0000
  C   C3302     1.0  0.52113  0.79404  0.03100  1.0000
  H   H3963     1.0  0.51795  0.72557  0.04322  1.0000
  C   C3303     1.0  0.93925  0.49576  0.17852  1.0000
  C   C3304     1.0  0.66346  0.98815  0.15994  1.0000
  C   C3305     1.0  0.67252  0.50707  0.02810  1.0000
  H   H3964     1.0  0.53216  0.98318  0.09711  1.0000
  H   H3965     1.0  0.52169  0.80256  0.01278  1.0000
  H   H3966     1.0  0.57362  0.92640  0.11559  1.0000
  C   C3306     1.0  0.55362  0.81147  0.01035  1.0000
  C   C3307     1.0  0.51182  0.63618  0.99631  1.0000
  H   H3967     1.0  0.60731  0.79008  0.01381  1.0000
  C   C3308     1.0  0.49984  0.81232  0.00270  1.0000
  H   H3968     1.0  0.57408  0.96850  0.13209  1.0000
  C   C3309     1.0  0.53944  0.97738  0.18722  1.0000
  H   H3969     1.0  0.50923  0.93668  0.15194  1.0000
  C   C3310     1.0  0.51413  0.61572  0.00622  1.0000
  C   C3311     1.0  0.92980  0.49340  0.08371  1.0000
  H   H3970     1.0  0.75759  0.51262  0.04535  1.0000
  C   C3312     1.0  0.53161  0.74999  0.03356  1.0000
  C   C3313     1.0  0.91276  0.52328  0.10912  1.0000
  H   H3971     1.0  0.53352  0.75320  0.02416  1.0000
  H   H3972     1.0  0.53094  0.82933  0.99772  1.0000
  Fe  Fe450     1.0  0.51443  0.86021  0.06482  1.0000
  C   C3314     1.0  0.51993  0.75064  0.03973  1.0000
  H   H3973     1.0  0.52347  0.61031  0.02011  1.0000
  H   H3974     1.0  0.66164  0.97986  0.15943  1.0000
  N   N218      1.0  0.75830  0.51009  0.06353  1.0000
  S   S900      1.0  0.73581  0.50686  0.03293  1.0000
  N   N219      1.0  0.60051  0.71581  0.02907  1.0000
  C   C3315     1.0  0.53689  0.95311  0.18916  1.0000
  C   C3316     1.0  0.52725  0.97005  0.14337  1.0000
  C   C3317     1.0  0.59962  0.79258  0.99911  1.0000
  H   H3975     1.0  0.57196  0.83896  0.07109  1.0000
  H   H3976     1.0  0.53762  0.75033  0.00465  1.0000
  C   C3318     1.0  0.51190  0.86108  0.01302  1.0000
  C   C3319     1.0  0.61040  0.54413  0.99449  1.0000
  H   H3977     1.0  0.50781  0.83591  0.00553  1.0000
  H   H3978     1.0  0.56980  0.93346  0.10184  1.0000
  H   H3979     1.0  0.94254  0.53440  0.13482  1.0000
  H   H3980     1.0  0.52746  0.85277  0.01988  1.0000
  N   N220      1.0  0.99360  0.51531  0.14512  1.0000
  H   H3981     1.0  0.53562  0.66923  0.03711  1.0000
  H   H3982     1.0  0.56654  0.75377  0.00644  1.0000
  H   H3983     1.0  0.77136  0.51301  0.04740  1.0000
  C   C3320     1.0  0.73888  0.50707  0.06291  1.0000
  H   H3984     1.0  0.52701  0.93718  0.15605  1.0000
  S   S901      1.0  0.71370  0.50572  0.02273  1.0000
  H   H3985     1.0  0.58222  0.72386  0.03448  1.0000
  H   H3986     1.0  0.52980  0.67266  0.07206  1.0000
  C   C3321     1.0  0.60298  0.71433  0.04077  1.0000
  N   N221      1.0  0.55356  0.84729  0.07430  1.0000
  C   C3322     1.0  0.56513  0.84454  0.06618  1.0000
  C   C3323     1.0  0.54966  0.83608  0.07996  1.0000
  C   C3324     1.0  0.54489  0.85492  0.06731  1.0000
  C   C3325     1.0  0.55463  0.85340  0.08279  1.0000
  C   C3326     1.0  0.55699  0.86483  0.07891  1.0000
  C   C3327     1.0  0.55377  0.84817  0.09496  1.0000
  S   S902      1.0  0.65507  0.50241  0.02115  1.0000
  C   C3328     1.0  0.55497  0.85417  0.10269  1.0000
  C   C3329     1.0  0.60888  0.95971  0.17536  1.0000
  H   H3987     1.0  0.56476  0.83969  0.05978  1.0000
  H   H3988     1.0  0.52534  0.77397  0.06893  1.0000
  H   H3989     1.0  0.55625  0.82942  0.08453  1.0000
  H   H3990     1.0  0.54850  0.83192  0.07340  1.0000
  H   H3991     1.0  0.54103  0.83755  0.08630  1.0000
  H   H3992     1.0  0.54759  0.86304  0.06170  1.0000
  H   H3993     1.0  0.54365  0.85032  0.06117  1.0000
  H   H3994     1.0  0.53616  0.85764  0.07308  1.0000
  H   H3995     1.0  0.55798  0.86932  0.06979  1.0000
  H   H3996     1.0  0.55205  0.83952  0.09876  1.0000
  C   C3330     1.0  0.65161  0.97519  0.18310  1.0000
  H   H3997     1.0  0.55400  0.85019  0.11198  1.0000
  H   H3998     1.0  0.85596  0.52812  0.01551  1.0000
  N   N222      1.0  0.54045  0.96108  0.17774  1.0000
  C   C3331     1.0  0.54840  0.95366  0.16951  1.0000
  H   H3999     1.0  0.60293  0.66563  0.01318  1.0000
  H   H4000     1.0  0.56315  0.96566  0.16755  1.0000
  H   H4001     1.0  0.53797  0.77567  0.05735  1.0000
  H   H4002     1.0  0.55126  0.75534  0.00876  1.0000
  H   H4003     1.0  0.58534  0.71658  0.02271  1.0000
  H   H4004     1.0  0.55741  0.95255  0.09855  1.0000
  H   H4005     1.0  0.55106  0.95901  0.16057  1.0000
  H   H4006     1.0  0.54408  0.94713  0.16857  1.0000
  H   H4007     1.0  0.55641  0.94841  0.17280  1.0000
  S   S903      1.0  0.74288  0.50485  0.00045  1.0000
  C   C3332     1.0  0.50995  0.62502  0.99765  1.0000
  H   H4008     1.0  0.89566  0.50794  0.99705  1.0000
  H   H4009     1.0  0.93616  0.52257  0.10245  1.0000
  C   C3333     1.0  0.56067  0.63072  0.01584  1.0000
  H   H4010     1.0  0.55239  0.73425  0.01635  1.0000
  H   H4011     1.0  0.50881  0.94759  0.17760  1.0000
  C   C3334     1.0  0.55294  0.74144  0.99323  1.0000
  C   C3335     1.0  0.54077  0.74610  0.99730  1.0000
  H   H4012     1.0  0.94855  0.54437  0.14649  1.0000
  C   C3336     1.0  0.62046  0.53390  0.02656  1.0000
  H   H4013     1.0  0.50400  0.65979  0.99565  1.0000
  H   H4014     1.0  0.60209  0.51614  0.04380  1.0000
  C   C3337     1.0  0.52003  0.79481  0.05550  1.0000
  H   H4015     1.0  0.59859  0.53180  0.03975  1.0000
  S   S904      1.0  0.53750  0.69189  0.02076  1.0000
  H   H4016     1.0  0.54638  0.66480  0.00454  1.0000
  H   H4017     1.0  0.58094  0.93763  0.10590  1.0000
  S   S905      1.0  0.49813  0.66362  0.03419  1.0000
  H   H4018     1.0  0.50070  0.81807  0.01756  1.0000
  C   C3338     1.0  0.56784  0.70618  0.99678  1.0000
  H   H4019     1.0  0.52885  0.58079  0.00075  1.0000
  H   H4020     1.0  0.55994  0.65221  0.02924  1.0000
  C   C3339     1.0  0.95011  0.53487  0.14860  1.0000
  N   N223      1.0  0.61519  0.52352  0.02983  1.0000
  H   H4021     1.0  0.58970  0.63110  0.00995  1.0000
  H   H4022     1.0  0.60972  0.52446  0.04803  1.0000
  C   C3340     1.0  0.56233  0.97932  0.17555  1.0000
  C   C3341     1.0  0.50624  0.88879  0.13948  1.0000
  C   C3342     1.0  0.95528  0.52839  0.15802  1.0000
  H   H4023     1.0  0.90949  0.51432  0.00276  1.0000
  C   C3343     1.0  0.93688  0.50203  0.09533  1.0000
  H   H4024     1.0  0.59089  0.68197  0.99303  1.0000
  C   C3344     1.0  0.50701  0.86405  0.00314  1.0000
  C   C3345     1.0  0.52878  0.67200  0.03222  1.0000
  C   C3346     1.0  0.53052  0.85221  0.00165  1.0000
  C   C3347     1.0  0.59495  0.67258  0.99271  1.0000
  H   H4025     1.0  0.91461  0.52879  0.10009  1.0000
  H   H4026     1.0  0.63121  0.92961  0.17848  1.0000
  N   N224      1.0  0.89529  0.51372  0.01818  1.0000
  C   C3348     1.0  0.93304  0.50069  0.18822  1.0000
  H   H4027     1.0  0.50727  0.88610  0.14874  1.0000
  C   C3349     1.0  0.52114  0.58586  0.99742  1.0000
  S   S906      1.0  0.56916  0.99081  0.11701  1.0000
  C   C3350     1.0  0.91905  0.50507  0.12235  1.0000
  H   H4028     1.0  0.52311  0.97260  0.17887  1.0000
  H   H4029     1.0  0.98305  0.52719  0.15634  1.0000
  C   C3351     1.0  0.58785  0.71609  0.03094  1.0000
  Fe  Fe451     1.0  0.80613  0.50261  0.01245  1.0000
  C   C3352     1.0  0.52132  0.97591  0.11333  1.0000
  H   H4030     1.0  0.89176  0.49706  0.02831  1.0000
  H   H4031     1.0  0.56836  0.80007  0.00063  1.0000
  H   H4032     1.0  0.54140  0.76947  0.04004  1.0000
  C   C3353     1.0  0.60480  0.55478  0.99801  1.0000
  C   C3354     1.0  0.86671  0.52054  0.00095  1.0000
  N   N225      1.0  0.56323  0.94425  0.11476  1.0000
  C   C3355     1.0  0.56027  0.81941  0.02281  1.0000
  C   C3356     1.0  0.99234  0.52440  0.15169  1.0000
  C   C3357     1.0  0.60486  0.94921  0.17920  1.0000
  H   H4033     1.0  0.51301  0.80008  0.03388  1.0000
  C   C3358     1.0  0.52842  0.68217  0.02324  1.0000
  C   C3359     1.0  0.94872  0.51698  0.14447  1.0000
  H   H4034     1.0  0.53721  0.69269  0.07731  1.0000
  C   C3360     1.0  0.57562  0.95066  0.14191  1.0000
  C   C3361     1.0  0.51059  0.71319  0.02079  1.0000
  Fe  Fe452     1.0  0.80055  0.50284  0.03816  1.0000
  C   C3362     1.0  0.62496  0.93799  0.17770  1.0000
  H   H4035     1.0  0.83853  0.50310  0.06128  1.0000
  C   C3363     1.0  0.83956  0.50593  0.04271  1.0000
  Fe  Fe453     1.0  0.57206  0.58570  0.99848  1.0000
  C   C3364     1.0  0.55575  0.98657  0.18332  1.0000
  C   C3365     1.0  0.50562  0.69544  0.07199  1.0000
  H   H4036     1.0  0.62818  0.51125  0.03899  1.0000
  H   H4037     1.0  0.59558  0.94951  0.18105  1.0000
  C   C3366     1.0  0.53686  0.77696  0.03454  1.0000
  Fe  Fe454     1.0  0.73049  0.51189  0.01572  1.0000
  H   H4038     1.0  0.56407  0.81758  0.03062  1.0000
  H   H4039     1.0  0.63341  0.56189  0.01905  1.0000
  Fe  Fe455     1.0  0.79723  0.52547  0.02051  1.0000
  C   C3367     1.0  0.74803  0.49486  0.07883  1.0000
  C   C3368     1.0  0.54157  0.77848  0.02244  1.0000
  H   H4040     1.0  0.50961  0.57495  0.00944  1.0000
  C   C3369     1.0  0.76771  0.50569  0.07027  1.0000
  H   H4041     1.0  0.50375  0.68279  0.01542  1.0000
  H   H4042     1.0  0.93039  0.52257  0.11778  1.0000
  C   C3370     1.0  0.55607  0.63965  0.02221  1.0000
  C   C3371     1.0  0.55962  0.75333  0.00231  1.0000
  H   H4043     1.0  0.63829  0.94807  0.17192  1.0000
  S   S907      1.0  0.64114  0.52521  0.99539  1.0000
  C   C3372     1.0  0.58863  0.77437  0.01285  1.0000
  H   H4044     1.0  0.74951  0.52432  0.07243  1.0000
  C   C3373     1.0  0.56119  0.73265  0.01033  1.0000
  C   C3374     1.0  0.59257  0.55874  0.99975  1.0000
  H   H4045     1.0  0.50272  0.69038  0.04289  1.0000
  S   S908      1.0  0.57723  0.60268  0.99580  1.0000
  H   H4046     1.0  0.61714  0.70509  0.02228  1.0000
  C   C3375     1.0  0.50894  0.72496  0.04485  1.0000
  C   C3376     1.0  0.53898  0.82277  0.99863  1.0000
  H   H4047     1.0  0.55335  0.93195  0.12720  1.0000
  C   C3377     1.0  0.54065  0.74609  0.03966  1.0000
  S   S909      1.0  0.58579  0.57101  0.00614  1.0000
  C   C3378     1.0  0.54294  0.81981  0.00905  1.0000
  H   H4048     1.0  0.61242  0.71378  0.04012  1.0000
  H   H4049     1.0  0.55942  0.87966  0.08369  1.0000
  H   H4050     1.0  0.49692  0.80461  0.00837  1.0000
  H   H4051     1.0  0.51400  0.88376  0.13407  1.0000
  C   C3379     1.0  0.51043  0.66995  0.02955  1.0000
  H   H4052     1.0  0.56953  0.92866  0.13437  1.0000
  H   H4053     1.0  0.57230  0.88558  0.17863  1.0000
  C   C3380     1.0  0.53806  0.74187  0.05182  1.0000
  C   C3381     1.0  0.55389  0.66918  0.00108  1.0000
  Fe  Fe456     1.0  0.57740  0.69178  0.02026  1.0000
  C   C3382     1.0  0.56879  0.95798  0.12374  1.0000
  C   C3383     1.0  0.51999  0.61762  0.01361  1.0000
  H   H4054     1.0  0.91116  0.49499  0.08763  1.0000
  S   S910      1.0  0.50283  0.76682  0.00377  1.0000
  C   C3384     1.0  0.50227  0.94472  0.15329  1.0000
  S   S911      1.0  0.51849  0.83723  0.04611  1.0000
  H   H4055     1.0  0.58413  0.98327  0.13367  1.0000
  H   H4056     1.0  0.54671  0.64196  0.02580  1.0000
  C   C3385     1.0  0.75376  0.52281  0.06342  1.0000
  C   C3386     1.0  0.57024  0.93752  0.13365  1.0000
  H   H4057     1.0  0.71399  0.51365  0.99366  1.0000
  C   C3387     1.0  0.52658  0.78482  0.03922  1.0000
  C   C3388     1.0  0.51659  0.96692  0.14944  1.0000
  C   C3389     1.0  0.50500  0.73430  0.01541  1.0000
  S   S912      1.0  0.51244  0.87582  0.07277  1.0000
  H   H4058     1.0  0.60383  0.79966  0.99386  1.0000
  H   H4059     1.0  0.79220  0.51600  0.99862  1.0000
  H   H4060     1.0  0.49791  0.86870  0.00370  1.0000
  C   C3390     1.0  0.52594  0.79548  0.01890  1.0000
  H   H4061     1.0  0.90721  0.49975  0.01014  1.0000
  C   C3391     1.0  0.51725  0.90706  0.17638  1.0000
  C   C3392     1.0  0.99002  0.50447  0.15269  1.0000
  H   H4062     1.0  0.55190  0.67645  0.00570  1.0000
  H   H4063     1.0  0.51574  0.71255  0.01173  1.0000
  C   C3393     1.0  0.60757  0.70529  0.02437  1.0000
  H   H4064     1.0  0.55360  0.96186  0.10868  1.0000
  C   C3394     1.0  0.56357  0.64546  0.02418  1.0000
  C   C3395     1.0  0.94674  0.52922  0.14195  1.0000
  S   S913      1.0  0.80691  0.51919  0.03520  1.0000
  C   C3396     1.0  0.51495  0.90899  0.16526  1.0000
  C   C3397     1.0  0.62896  0.94843  0.17399  1.0000
  C   C3398     1.0  0.70449  0.51786  0.99428  1.0000
  S   S914      1.0  0.95941  0.53633  0.16568  1.0000
  H   H4065     1.0  0.50465  0.59967  0.03605  1.0000
  Fe  Fe457     1.0  0.50726  0.83800  0.06407  1.0000
  C   C3399     1.0  0.60160  0.78716  0.01037  1.0000
  C   C3400     1.0  0.99022  0.49521  0.14762  1.0000
  C   C3401     1.0  0.51771  0.63847  0.00370  1.0000
  H   H4066     1.0  0.61199  0.75192  0.01800  1.0000
  H   H4067     1.0  0.52196  0.90632  0.15814  1.0000
  C   C3402     1.0  0.61799  0.55538  0.02152  1.0000
  H   H4068     1.0  0.57645  0.62099  0.00632  1.0000
  C   C3403     1.0  0.88565  0.51610  0.01205  1.0000
  S   S915      1.0  0.55906  0.66994  0.04179  1.0000
  C   C3404     1.0  0.54588  0.96978  0.17945  1.0000
  Fe  Fe458     1.0  0.51136  0.85665  0.04191  1.0000
  H   H4069     1.0  0.59757  0.72163  0.04516  1.0000
  C   C3405     1.0  0.57280  0.62778  0.01129  1.0000
  H   H4070     1.0  0.52622  0.62964  0.01857  1.0000
  H   H4071     1.0  0.92611  0.49706  0.12388  1.0000
  H   H4072     1.0  0.91407  0.50688  0.01627  1.0000
  H   H4073     1.0  0.60882  0.73402  0.03213  1.0000
  H   H4074     1.0  0.63874  0.52462  0.02734  1.0000
  Fe  Fe459     1.0  0.58396  0.76281  0.04273  1.0000
  C   C3406     1.0  0.84697  0.50501  0.03171  1.0000
  C   C3407     1.0  0.62383  0.51212  0.03177  1.0000
  H   H4075     1.0  0.63074  0.51105  0.02365  1.0000
  Fe  Fe460     1.0  0.64944  0.50708  0.00405  1.0000
  N   N226      1.0  0.51996  0.65030  0.00175  1.0000
  H   H4076     1.0  0.51963  0.69312  0.00959  1.0000
  H   H4077     1.0  0.98573  0.50927  0.16983  1.0000
  C   C3408     1.0  0.53447  0.67893  0.06506  1.0000
  Fe  Fe461     1.0  0.96538  0.52938  0.18268  1.0000
  H   H4078     1.0  0.91725  0.50952  0.12974  1.0000
  H   H4079     1.0  0.53554  0.67656  0.05657  1.0000
  C   C3409     1.0  0.60600  0.52400  0.04082  1.0000
  C   C3410     1.0  0.60754  0.74755  0.00410  1.0000
  H   H4080     1.0  0.51669  0.79403  0.06517  1.0000
  H   H4081     1.0  0.54071  0.81201  0.03325  1.0000
  H   H4082     1.0  0.61981  0.54119  0.99327  1.0000
  S   S916      1.0  0.58293  0.74517  0.04151  1.0000
  H   H4083     1.0  0.57659  0.93232  0.14961  1.0000
  C   C3411     1.0  0.60973  0.52354  0.02036  1.0000
  S   S917      1.0  0.55486  0.74770  0.03216  1.0000
  C   C3412     1.0  0.61334  0.54543  0.02424  1.0000
  H   H4084     1.0  0.51074  0.77218  0.05257  1.0000
  C   C3413     1.0  0.57286  0.95986  0.13260  1.0000
  C   C3414     1.0  0.56008  0.80636  0.00057  1.0000
  C   C3415     1.0  0.60733  0.73504  0.02352  1.0000
  H   H4085     1.0  0.60606  0.69699  0.03077  1.0000
  C   C3416     1.0  0.87408  0.52183  0.01695  1.0000
  H   H4086     1.0  0.60076  0.70617  0.04697  1.0000
  H   H4087     1.0  0.58941  0.66700  0.99958  1.0000
  S   S918      1.0  0.55301  0.59266  0.00674  1.0000
  C   C3417     1.0  0.50872  0.65928  0.00242  1.0000
  H   H4088     1.0  0.52432  0.74009  0.06752  1.0000
  C   C3418     1.0  0.61292  0.93835  0.18034  1.0000
  H   H4089     1.0  0.52951  0.76533  0.05813  1.0000
  C   C3419     1.0  0.57428  0.93952  0.14245  1.0000
  H   H4090     1.0  0.75077  0.52572  0.02375  1.0000
  H   H4091     1.0  0.58545  0.70807  0.03722  1.0000
  H   H4092     1.0  0.61965  0.50448  0.03420  1.0000
  C   C3420     1.0  0.51972  0.68555  0.01683  1.0000
  S   S919      1.0  0.70851  0.51974  0.04398  1.0000
  H   H4093     1.0  0.53967  0.84773  0.00107  1.0000
  N   N227      1.0  0.52153  0.78360  0.05201  1.0000
  S   S920      1.0  0.63677  0.49854  0.00105  1.0000
  C   C3421     1.0  0.50597  0.94334  0.17218  1.0000
  C   C3422     1.0  0.89620  0.52481  0.02039  1.0000
  C   C3423     1.0  0.74848  0.50394  0.06847  1.0000
  H   H4094     1.0  0.69928  0.51388  0.00284  1.0000
  C   C3424     1.0  0.76380  0.50864  0.05131  1.0000
  C   C3425     1.0  0.54430  0.98563  0.18911  1.0000
  C   C3426     1.0  0.84426  0.50225  0.05280  1.0000
  S   S921      1.0  0.55081  0.92518  0.18526  1.0000
  H   H4095     1.0  0.68650  0.51077  0.03321  1.0000
  C   C3427     1.0  0.92521  0.50620  0.10145  1.0000
  H   H4096     1.0  0.52373  0.73316  0.02333  1.0000
  C   C3428     1.0  0.93907  0.49573  0.08661  1.0000
  H   H4097     1.0  0.51636  0.89599  0.07762  1.0000
  C   C3429     1.0  0.62095  0.95930  0.17276  1.0000
  H   H4098     1.0  0.60278  0.74093  0.99188  1.0000
  H   H4099     1.0  0.73100  0.52924  0.99484  1.0000
  C   C3430     1.0  0.95426  0.51034  0.15368  1.0000
  H   H4100     1.0  0.55501  0.99201  0.14261  1.0000
  N   N228      1.0  0.56183  0.74175  0.99930  1.0000
  H   H4101     1.0  0.98779  0.51499  0.12992  1.0000
  H   H4102     1.0  0.55114  0.89217  0.17855  1.0000
  H   H4103     1.0  0.73859  0.51387  0.05502  1.0000
  H   H4104     1.0  0.57628  0.80187  0.01468  1.0000
  C   C3431     1.0  0.51385  0.86102  0.99254  1.0000
  C   C3432     1.0  0.86366  0.49631  0.04098  1.0000
  H   H4105     1.0  0.76721  0.49918  0.05099  1.0000
  H   H4106     1.0  0.91129  0.52891  0.11547  1.0000
  H   H4107     1.0  0.52603  0.90290  0.17776  1.0000
  H   H4108     1.0  0.72220  0.50410  0.06299  1.0000
  H   H4109     1.0  0.59866  0.72303  0.00594  1.0000
  H   H4110     1.0  0.99064  0.49974  0.11719  1.0000
  H   H4111     1.0  0.56864  0.95822  0.10049  1.0000
  H   H4112     1.0  0.70343  0.52718  0.99465  1.0000
  S   S922      1.0  0.49904  0.77653  0.03266  1.0000
  C   C3433     1.0  0.56734  0.94669  0.12402  1.0000
  H   H4113     1.0  0.54944  0.93724  0.11337  1.0000
  C   C3434     1.0  0.98623  0.50275  0.16513  1.0000
  C   C3435     1.0  0.55229  0.93987  0.11999  1.0000
  H   H4114     1.0  0.87201  0.52429  0.02531  1.0000
  C   C3436     1.0  0.63712  0.54300  0.02312  1.0000
  H   H4115     1.0  0.50569  0.77981  0.06436  1.0000
  C   C3437     1.0  0.52306  0.72485  0.02164  1.0000
  C   C3438     1.0  0.50991  0.78067  0.05484  1.0000
  C   C3439     1.0  0.60729  0.67162  0.00550  1.0000
  H   H4116     1.0  0.55222  0.82653  0.02411  1.0000
  H   H4117     1.0  0.70833  0.49554  0.99928  1.0000
  H   H4118     1.0  0.54337  0.69848  0.05687  1.0000
  H   H4119     1.0  0.98816  0.52922  0.13084  1.0000
  N   N229      1.0  0.92256  0.51282  0.11080  1.0000
  C   C3440     1.0  0.60388  0.73932  0.00080  1.0000
  H   H4120     1.0  0.60994  0.55984  0.99965  1.0000
  H   H4121     1.0  0.64637  0.54207  0.02271  1.0000
  C   C3441     1.0  0.60925  0.74542  0.01542  1.0000
  H   H4122     1.0  0.57123  0.98013  0.17103  1.0000
  H   H4123     1.0  0.60233  0.68060  0.00657  1.0000
  N   N230      1.0  0.50490  0.95121  0.16055  1.0000
  H   H4124     1.0  0.67278  0.49861  0.03413  1.0000
  H   H4125     1.0  0.53769  0.82428  0.01600  1.0000
  S   S923      1.0  0.60829  0.92506  0.18506  1.0000
  H   H4126     1.0  0.60268  0.96808  0.17438  1.0000
  C   C3442     1.0  0.52588  0.65133  0.01044  1.0000
  H   H4127     1.0  0.50153  0.95025  0.14441  1.0000
  C   C3443     1.0  0.53766  0.96149  0.14220  1.0000
  H   H4128     1.0  0.57650  0.55512  0.99903  1.0000
  C   C3444     1.0  0.55803  0.87079  0.08676  1.0000
  H   H4129     1.0  0.51443  0.70544  0.02703  1.0000
  H   H4130     1.0  0.53419  0.99121  0.15164  1.0000
  H   H4131     1.0  0.52968  0.70856  0.05508  1.0000
  H   H4132     1.0  0.94003  0.50975  0.11369  1.0000
  S   S924      1.0  0.57388  0.94018  0.18959  1.0000
  H   H4133     1.0  0.68232  0.51798  0.99334  1.0000
  H   H4134     1.0  0.54583  0.96402  0.13733  1.0000
  C   C3445     1.0  0.93273  0.51711  0.11109  1.0000
  H   H4135     1.0  0.76439  0.50709  0.07941  1.0000
  C   C3446     1.0  0.62985  0.55417  0.02103  1.0000
  H   H4136     1.0  0.51969  0.65826  0.04261  1.0000
  C   C3447     1.0  0.88730  0.51264  0.00133  1.0000
  S   S925      1.0  0.98414  0.52806  0.18270  1.0000
  C   C3448     1.0  0.51067  0.67961  0.02011  1.0000
  H   H4137     1.0  0.52213  0.68903  0.04577  1.0000
  H   H4138     1.0  0.52703  0.66042  0.00901  1.0000
  H   H4139     1.0  0.60672  0.65122  0.00329  1.0000
  C   C3449     1.0  0.53447  0.69922  0.05552  1.0000
  H   H4140     1.0  0.94449  0.50331  0.09727  1.0000
  C   C3450     1.0  0.52804  0.69378  0.07639  1.0000
  C   C3451     1.0  0.50353  0.69192  0.05097  1.0000
  C   C3452     1.0  0.60377  0.53715  0.99306  1.0000
  H   H4141     1.0  0.53314  0.94619  0.18814  1.0000
  N   N231      1.0  0.60721  0.66923  0.99418  1.0000
  H   H4142     1.0  0.50371  0.78741  0.04991  1.0000
  C   C3453     1.0  0.61150  0.65632  0.99511  1.0000
  H   H4143     1.0  0.90422  0.52089  0.11060  1.0000
  H   H4144     1.0  0.60905  0.75561  0.99786  1.0000
  H   H4145     1.0  0.99488  0.53252  0.14574  1.0000
  C   C3454     1.0  0.55753  0.97102  0.17361  1.0000
  H   H4146     1.0  0.62104  0.65349  0.99510  1.0000
  H   H4147     1.0  0.52317  0.74977  0.99469  1.0000
  H   H4148     1.0  0.51015  0.66826  0.00103  1.0000
  S   S926      1.0  0.51658  0.98888  0.11880  1.0000
  H   H4149     1.0  0.50842  0.79091  0.99471  1.0000
  H   H4150     1.0  0.50885  0.97403  0.14972  1.0000
  H   H4151     1.0  0.55953  0.99289  0.18491  1.0000
  H   H4152     1.0  0.64983  0.97193  0.17650  1.0000
  C   C3455     1.0  0.98627  0.52064  0.13624  1.0000
  H   H4153     1.0  0.49626  0.96657  0.16786  1.0000
  H   H4154     1.0  0.75861  0.54023  0.99742  1.0000
  H   H4155     1.0  0.50291  0.86849  0.13900  1.0000
  C   C3456     1.0  0.59156  0.54132  0.99436  1.0000
  C   C3457     1.0  0.55407  0.89155  0.18639  1.0000
  C   C3458     1.0  0.72941  0.50157  0.06744  1.0000
  H   H4156     1.0  0.63890  0.56327  0.99568  1.0000
  H   H4157     1.0  0.93636  0.49905  0.17030  1.0000
  S   S927      1.0  0.81630  0.49413  0.02633  1.0000
  H   H4158     1.0  0.50987  0.73443  0.00613  1.0000
  C   C3459     1.0  0.65590  0.99015  0.18986  1.0000
  C   C3460     1.0  0.87792  0.51487  0.99591  1.0000
  C   C3461     1.0  0.58284  0.99269  0.13062  1.0000
  S   S928      1.0  0.50325  0.86509  0.02614  1.0000
  H   H4159     1.0  0.51288  0.60702  0.00710  1.0000
  H   H4160     1.0  0.92551  0.50786  0.18708  1.0000
  C   C3462     1.0  0.56599  0.88788  0.18641  1.0000
  C   C3463     1.0  0.50208  0.81998  0.00808  1.0000
  H   H4161     1.0  0.55943  0.76052  0.99441  1.0000
  S   S929      1.0  0.50067  0.91649  0.14954  1.0000
  H   H4162     1.0  0.50145  0.69433  0.99430  1.0000
  C   C3464     1.0  0.50226  0.72514  0.05627  1.0000
  C   C3465     1.0  0.59231  0.78879  0.99462  1.0000
  H   H4163     1.0  0.50269  0.65742  0.01117  1.0000
  H   H4164     1.0  0.58636  0.53598  0.99324  1.0000
  H   H4165     1.0  0.85938  0.52190  0.99695  1.0000
  S   S930      1.0  0.49721  0.82358  0.07209  1.0000
  C   C3466     1.0  0.57405  0.73948  0.99212  1.0000
  H   H4166     1.0  0.49746  0.94105  0.17730  1.0000
  C   C3467     1.0  0.70599  0.49476  0.99164  1.0000
  H   H4167     1.0  0.62269  0.57982  0.99182  1.0000
  C   C3468     1.0  0.53232  0.74563  0.99177  1.0000
  C   C3469     1.0  0.50407  0.71166  0.99186  1.0000
  H   H4168     1.0  0.49646  0.87340  0.12231  1.0000
  C   C3470     1.0  0.49732  0.60487  0.03210  1.0000
  H   H4169     1.0  0.50543  0.62351  0.99187  1.0000
  H   H4170     1.0  0.60841  0.98115  0.38440  1.0000
  C   C3471     1.0  0.52263  0.98105  0.30980  1.0000
  C   C3472     1.0  0.56012  0.97251  0.31101  1.0000
  H   H4171     1.0  0.51620  0.91750  0.30684  1.0000
  Fe  Fe462     1.0  0.95839  0.52308  0.20920  1.0000
  H   H4172     1.0  0.52675  0.89195  0.21424  1.0000
  H   H4173     1.0  0.98266  0.49343  0.31915  1.0000
  H   H4174     1.0  0.57292  0.93840  0.33360  1.0000
  H   H4175     1.0  0.91175  0.50356  0.22012  1.0000
  Fe  Fe463     1.0  0.98213  0.51190  0.19680  1.0000
  Fe  Fe464     1.0  0.59333  0.98734  0.33632  1.0000
  H   H4176     1.0  0.57874  0.93773  0.35147  1.0000
  S   S931      1.0  0.97643  0.52140  0.21157  1.0000
  C   C3473     1.0  0.99375  0.60342  0.36041  1.0000
  C   C3474     1.0  0.59108  0.92887  0.24624  1.0000
  S   S932      1.0  0.51682  0.93011  0.24059  1.0000
  H   H4177     1.0  0.51900  0.90182  0.30927  1.0000
  C   C3475     1.0  0.98898  0.54484  0.21915  1.0000
  H   H4178     1.0  0.95879  0.51585  0.33719  1.0000
  H   H4179     1.0  0.60955  0.92451  0.25537  1.0000
  S   S933      1.0  0.58481  0.92665  0.21341  1.0000
  H   H4180     1.0  0.55723  0.97516  0.24408  1.0000
  C   C3476     1.0  0.49868  0.96576  0.32390  1.0000
  Fe  Fe465     1.0  0.60593  0.98085  0.35668  1.0000
  H   H4181     1.0  0.58131  0.94728  0.36369  1.0000
  C   C3477     1.0  0.62054  0.97878  0.20415  1.0000
  S   S934      1.0  0.61655  0.98130  0.25800  1.0000
  C   C3478     1.0  0.61194  0.92125  0.22164  1.0000
  H   H4182     1.0  0.96375  0.56257  0.26061  1.0000
  H   H4183     1.0  0.55028  0.88800  0.23017  1.0000
  H   H4184     1.0  0.62496  0.93954  0.28347  1.0000
  H   H4185     1.0  0.71547  0.96551  0.38823  1.0000
  C   C3479     1.0  0.61436  0.93475  0.23166  1.0000
  H   H4186     1.0  0.52976  0.91203  0.20642  1.0000
  N   N232      1.0  0.58841  0.96678  0.21251  1.0000
  H   H4187     1.0  0.55019  0.97233  0.22798  1.0000
  H   H4188     1.0  0.57588  0.98286  0.21546  1.0000
  C   C3480     1.0  0.94427  0.50014  0.24394  1.0000
  S   S935      1.0  0.61009  0.97467  0.33978  1.0000
  H   H4189     1.0  0.50315  0.97169  0.27402  1.0000
  Fe  Fe466     1.0  0.58003  0.98023  0.36131  1.0000
  S   S936      1.0  0.59574  0.96698  0.36692  1.0000
  H   H4190     1.0  0.98191  0.53770  0.33665  1.0000
  H   H4191     1.0  0.95084  0.53405  0.32561  1.0000
  H   H4192     1.0  0.59333  0.91124  0.23633  1.0000
  Fe  Fe467     1.0  0.59859  0.96206  0.34962  1.0000
  S   S937      1.0  0.60332  0.94327  0.34779  1.0000
  C   C3481     1.0  0.97201  0.51605  0.35811  1.0000
  S   S938      1.0  0.58225  0.97416  0.34488  1.0000
  C   C3482     1.0  0.73182  0.98608  0.37646  1.0000
  H   H4193     1.0  0.86762  0.97698  0.38675  1.0000
  N   N233      1.0  0.54062  0.89819  0.21683  1.0000
  C   C3483     1.0  0.96527  0.51278  0.35252  1.0000
  C   C3484     1.0  0.59929  0.97112  0.20968  1.0000
  C   C3485     1.0  0.96257  0.53145  0.28806  1.0000
  C   C3486     1.0  0.50842  0.96862  0.20815  1.0000
  H   H4194     1.0  0.92546  0.51941  0.19922  1.0000
  Fe  Fe468     1.0  0.56989  0.92329  0.28501  1.0000
  S   S939      1.0  0.55828  0.94101  0.28000  1.0000
  S   S940      1.0  0.56829  0.90653  0.28182  1.0000
  Fe  Fe469     1.0  0.58464  0.93289  0.29531  1.0000
  S   S941      1.0  0.57436  0.95131  0.29102  1.0000
  S   S942      1.0  0.60086  0.92877  0.30247  1.0000
  Fe  Fe470     1.0  0.55863  0.94329  0.29760  1.0000
  S   S943      1.0  0.54290  0.95066  0.31046  1.0000
  Fe  Fe471     1.0  0.57516  0.94714  0.27398  1.0000
  S   S944      1.0  0.58009  0.95946  0.25686  1.0000
  S   S945      1.0  0.56886  0.92498  0.30327  1.0000
  S   S946      1.0  0.58674  0.92918  0.27765  1.0000
  H   H4195     1.0  0.52511  0.89319  0.22885  1.0000
  S   S947      1.0  0.64347  0.98535  0.24544  1.0000
  S   S948      1.0  0.63459  0.95539  0.24569  1.0000
  H   H4196     1.0  0.60859  0.91414  0.22108  1.0000
  H   H4197     1.0  0.53878  0.95709  0.21096  1.0000
  H   H4198     1.0  0.53019  0.91054  0.25698  1.0000
  C   C3487     1.0  0.63801  0.98791  0.38380  1.0000
  H   H4199     1.0  0.58536  0.92543  0.25469  1.0000
  H   H4200     1.0  0.97273  0.51160  0.36704  1.0000
  C   C3488     1.0  0.93392  0.49588  0.22028  1.0000
  H   H4201     1.0  0.52798  0.91387  0.22097  1.0000
  S   S949      1.0  0.96405  0.51228  0.19545  1.0000
  N   N234      1.0  0.92942  0.50158  0.20941  1.0000
  H   H4202     1.0  0.97076  0.51741  0.26926  1.0000
  H   H4203     1.0  0.50890  0.99216  0.32679  1.0000
  H   H4204     1.0  0.98851  0.61960  0.36656  1.0000
  C   C3489     1.0  0.73328  0.96311  0.38981  1.0000
  H   H4205     1.0  0.56440  0.92427  0.37834  1.0000
  C   C3490     1.0  0.57303  0.95014  0.36997  1.0000
  C   C3491     1.0  0.52267  0.95488  0.26005  1.0000
  C   C3492     1.0  0.61332  0.96181  0.23990  1.0000
  C   C3493     1.0  0.52794  0.93805  0.23531  1.0000
  H   H4206     1.0  0.65691  0.98581  0.20805  1.0000
  H   H4207     1.0  0.50849  0.95952  0.21191  1.0000
  H   H4208     1.0  0.53582  0.94947  0.27025  1.0000
  H   H4209     1.0  0.61306  0.98529  0.31669  1.0000
  C   C3494     1.0  0.50725  0.97176  0.32366  1.0000
  H   H4210     1.0  0.86918  0.99024  0.38930  1.0000
  H   H4211     1.0  0.71408  0.98594  0.37675  1.0000
  Fe  Fe472     1.0  0.49691  0.94916  0.20576  1.0000
  H   H4212     1.0  0.58484  0.97580  0.31627  1.0000
  Fe  Fe473     1.0  0.98369  0.54576  0.27768  1.0000
  S   S950      1.0  0.96526  0.55343  0.28617  1.0000
  H   H4213     1.0  0.95421  0.54664  0.32780  1.0000
  S   S951      1.0  0.49673  0.91965  0.22835  1.0000
  H   H4214     1.0  0.63334  0.96796  0.27569  1.0000
  H   H4215     1.0  0.60681  0.90236  0.24054  1.0000
  C   C3495     1.0  0.54585  0.94723  0.35015  1.0000
  H   H4216     1.0  0.63697  0.93624  0.29060  1.0000
  H   H4217     1.0  0.54752  0.98477  0.25350  1.0000
  H   H4218     1.0  0.65324  0.96593  0.21188  1.0000
  H   H4219     1.0  0.59117  0.96111  0.19641  1.0000
  C   C3496     1.0  0.56947  0.94048  0.35141  1.0000
  C   C3497     1.0  0.94375  0.52641  0.29213  1.0000
  C   C3498     1.0  0.97264  0.52453  0.31517  1.0000
  C   C3499     1.0  0.53316  0.90908  0.28872  1.0000
  Fe  Fe474     1.0  0.56860  0.93932  0.20895  1.0000
  S   S952      1.0  0.55836  0.92566  0.21281  1.0000
  C   C3500     1.0  0.97201  0.50941  0.26634  1.0000
  H   H4220     1.0  0.64625  0.98980  0.38356  1.0000
  H   H4221     1.0  0.95583  0.50513  0.27744  1.0000
  H   H4222     1.0  0.52672  0.97289  0.30640  1.0000
  H   H4223     1.0  0.53607  0.88134  0.22320  1.0000
  C   C3501     1.0  0.50486  0.99275  0.31946  1.0000
  C   C3502     1.0  0.96474  0.56164  0.23270  1.0000
  C   C3503     1.0  0.51264  0.96801  0.33344  1.0000
  H   H4224     1.0  0.98151  0.51887  0.31567  1.0000
  H   H4225     1.0  0.54812  0.89443  0.28486  1.0000
  C   C3504     1.0  0.55028  0.98342  0.24433  1.0000
  H   H4226     1.0  0.97204  0.52877  0.28632  1.0000
  H   H4227     1.0  0.60826  0.95676  0.29755  1.0000
  H   H4228     1.0  0.53667  0.94999  0.34963  1.0000
  N   N235      1.0  0.94864  0.53710  0.24898  1.0000
  H   H4229     1.0  0.74941  0.98415  0.37762  1.0000
  C   C3505     1.0  0.54591  0.89486  0.19626  1.0000
  C   C3506     1.0  0.61151  0.98949  0.30809  1.0000
  H   H4230     1.0  0.97640  0.54596  0.30731  1.0000
  H   H4231     1.0  0.61275  0.93837  0.23929  1.0000
  C   C3507     1.0  0.61882  0.92649  0.21125  1.0000
  C   C3508     1.0  0.52393  0.97227  0.24453  1.0000
  C   C3509     1.0  0.56206  0.97710  0.29887  1.0000
  C   C3510     1.0  0.58625  0.97935  0.27385  1.0000
  H   H4232     1.0  0.62212  0.93755  0.29894  1.0000
  Fe  Fe475     1.0  0.63181  0.97458  0.24443  1.0000
  H   H4233     1.0  0.55240  0.94059  0.24192  1.0000
  H   H4234     1.0  0.59387  0.97994  0.27678  1.0000
  S   S953      1.0  0.53237  0.99195  0.27430  1.0000
  C   C3511     1.0  0.52334  0.91820  0.27219  1.0000
  C   C3512     1.0  0.51917  0.99131  0.27174  1.0000
  H   H4235     1.0  0.64075  0.95945  0.32551  1.0000
  C   C3513     1.0  0.62017  0.96939  0.19992  1.0000
  H   H4236     1.0  0.97147  0.57189  0.24001  1.0000
  C   C3514     1.0  0.95729  0.52737  0.24401  1.0000
  S   S954      1.0  0.55974  0.95376  0.21844  1.0000
  C   C3515     1.0  0.97714  0.54194  0.31660  1.0000
  N   N236      1.0  0.60211  0.92005  0.24334  1.0000
  C   C3516     1.0  0.74222  0.97976  0.38011  1.0000
  H   H4237     1.0  0.95391  0.51919  0.24665  1.0000
  C   C3517     1.0  0.59539  0.95783  0.25363  1.0000
  C   C3518     1.0  0.60108  0.96331  0.24268  1.0000
  H   H4238     1.0  0.54453  0.94854  0.19330  1.0000
  C   C3519     1.0  0.61993  0.95475  0.24808  1.0000
  C   C3520     1.0  0.61427  0.94919  0.25904  1.0000
  C   C3521     1.0  0.60200  0.95091  0.26188  1.0000
  H   H4239     1.0  0.58241  0.95086  0.22163  1.0000
  C   C3522     1.0  0.54562  0.94229  0.23714  1.0000
  H   H4240     1.0  0.61930  0.94405  0.26551  1.0000
  H   H4241     1.0  0.59768  0.94726  0.27064  1.0000
  H   H4242     1.0  0.56921  0.95943  0.36626  1.0000
  H   H4243     1.0  0.51614  0.97055  0.22118  1.0000
  H   H4244     1.0  0.52038  0.97824  0.23731  1.0000
  Fe  Fe476     1.0  0.62763  0.99311  0.25803  1.0000
  H   H4245     1.0  0.96565  0.52529  0.24693  1.0000
  H   H4246     1.0  0.95132  0.52882  0.26650  1.0000
  H   H4247     1.0  0.61718  0.94859  0.31282  1.0000
  H   H4248     1.0  0.58592  0.93139  0.23932  1.0000
  C   C3523     1.0  0.54152  0.97477  0.35872  1.0000
  S   S955      1.0  0.56238  0.98385  0.37383  1.0000
  H   H4249     1.0  0.51356  0.95650  0.35038  1.0000
  S   S956      1.0  0.99491  0.53063  0.28770  1.0000
  C   C3524     1.0  0.64415  0.96194  0.30669  1.0000
  C   C3525     1.0  0.72296  0.96949  0.38603  1.0000
  C   C3526     1.0  0.95621  0.55093  0.25592  1.0000
  C   C3527     1.0  0.50963  0.95889  0.34282  1.0000
  H   H4250     1.0  0.54810  0.94077  0.38476  1.0000
  C   C3528     1.0  0.52448  0.91784  0.28342  1.0000
  C   C3529     1.0  0.60198  0.93978  0.33516  1.0000
  C   C3530     1.0  0.60861  0.92903  0.33247  1.0000
  C   C3531     1.0  0.60800  0.92579  0.32252  1.0000
  C   C3532     1.0  0.60043  0.93305  0.31533  1.0000
  C   C3533     1.0  0.59360  0.94381  0.31802  1.0000
  C   C3534     1.0  0.59448  0.94724  0.32789  1.0000
  H   H4251     1.0  0.61442  0.92323  0.33802  1.0000
  H   H4252     1.0  0.61339  0.91754  0.32044  1.0000
  H   H4253     1.0  0.58784  0.94953  0.31240  1.0000
  H   H4254     1.0  0.58928  0.95552  0.32996  1.0000
  H   H4255     1.0  0.57858  0.92720  0.37063  1.0000
  H   H4256     1.0  0.56533  0.89028  0.21360  1.0000
  C   C3535     1.0  0.60954  0.92521  0.23222  1.0000
  N   N237      1.0  0.53430  0.90895  0.30058  1.0000
  C   C3536     1.0  0.56832  0.97199  0.31725  1.0000
  H   H4257     1.0  0.98801  0.51192  0.25434  1.0000
  H   H4258     1.0  0.56483  0.97667  0.27511  1.0000
  H   H4259     1.0  0.97472  0.54942  0.32104  1.0000
  N   N238      1.0  0.62682  0.95407  0.28924  1.0000
  H   H4260     1.0  0.55205  0.90294  0.22456  1.0000
  C   C3537     1.0  0.51037  0.94273  0.30564  1.0000
  C   C3538     1.0  0.51387  0.93828  0.31635  1.0000
  C   C3539     1.0  0.52362  0.94110  0.31794  1.0000
  C   C3540     1.0  0.53023  0.94792  0.30865  1.0000
  C   C3541     1.0  0.52682  0.95229  0.29788  1.0000
  C   C3542     1.0  0.51673  0.94991  0.29645  1.0000
  H   H4261     1.0  0.55700  0.99122  0.27747  1.0000
  H   H4262     1.0  0.52619  0.93779  0.32629  1.0000
  H   H4263     1.0  0.53200  0.95752  0.29070  1.0000
  H   H4264     1.0  0.51413  0.95324  0.28812  1.0000
  C   C3543     1.0  0.96436  0.51854  0.34101  1.0000
  C   C3544     1.0  0.63273  0.99221  0.32618  1.0000
  C   C3545     1.0  0.97040  0.52763  0.33464  1.0000
  C   C3546     1.0  0.51603  0.98055  0.27431  1.0000
  H   H4265     1.0  0.58002  0.97297  0.22859  1.0000
  H   H4266     1.0  0.52165  0.97263  0.27811  1.0000
  C   C3547     1.0  0.55014  0.98109  0.37093  1.0000
  C   C3548     1.0  0.55108  0.97758  0.36064  1.0000
  C   C3549     1.0  0.53813  0.96508  0.25685  1.0000
  C   C3550     1.0  0.53087  0.97546  0.36705  1.0000
  C   C3551     1.0  0.52965  0.97950  0.37713  1.0000
  H   H4267     1.0  0.93577  0.50493  0.24790  1.0000
  H   H4268     1.0  0.93387  0.53366  0.24503  1.0000
  C   C3552     1.0  0.57827  0.97349  0.21994  1.0000
  C   C3553     1.0  0.53252  0.95588  0.26306  1.0000
  H   H4269     1.0  0.57617  0.96584  0.20306  1.0000
  H   H4270     1.0  0.53243  0.92773  0.29678  1.0000
  H   H4271     1.0  0.58619  0.96990  0.27547  1.0000
  C   C3554     1.0  0.57031  0.93031  0.37686  1.0000
  C   C3555     1.0  0.97709  0.53084  0.34066  1.0000
  C   C3556     1.0  0.58504  0.96758  0.20145  1.0000
  S   S957      1.0  0.99563  0.49493  0.19768  1.0000
  C   C3557     1.0  0.96658  0.56515  0.24188  1.0000
  C   C3558     1.0  0.99264  0.58877  0.34614  1.0000
  H   H4272     1.0  0.95607  0.54469  0.31319  1.0000
  C   C3559     1.0  0.96227  0.55985  0.25346  1.0000
  C   C3560     1.0  0.53625  0.93657  0.24188  1.0000
  H   H4273     1.0  0.64325  0.95359  0.27630  1.0000
  C   C3561     1.0  0.57196  0.90083  0.24518  1.0000
  C   C3562     1.0  0.57357  0.89139  0.25468  1.0000
  C   C3563     1.0  0.57228  0.89336  0.26582  1.0000
  C   C3564     1.0  0.56940  0.90481  0.26761  1.0000
  C   C3565     1.0  0.56739  0.91436  0.25821  1.0000
  C   C3566     1.0  0.56871  0.91237  0.24695  1.0000
  H   H4274     1.0  0.57603  0.88247  0.25339  1.0000
  H   H4275     1.0  0.57373  0.88595  0.27306  1.0000
  H   H4276     1.0  0.56477  0.92324  0.25962  1.0000
  H   H4277     1.0  0.56723  0.91972  0.23967  1.0000
  C   C3567     1.0  0.99394  0.50001  0.23384  1.0000
  C   C3568     1.0  0.92957  0.51423  0.20671  1.0000
  H   H4278     1.0  0.53573  0.93074  0.25041  1.0000
  C   C3569     1.0  0.50558  0.98004  0.27198  1.0000
  H   H4279     1.0  0.64994  0.95908  0.19594  1.0000
  C   C3570     1.0  0.95056  0.50526  0.23309  1.0000
  H   H4280     1.0  0.96058  0.50585  0.35717  1.0000
  H   H4281     1.0  0.53846  0.98512  0.38703  1.0000
  H   H4282     1.0  0.52469  0.98855  0.30243  1.0000
  C   C3571     1.0  0.59988  0.98087  0.21359  1.0000
  H   H4283     1.0  0.59240  0.98576  0.21886  1.0000
  H   H4284     1.0  0.52723  0.98093  0.31654  1.0000
  C   C3572     1.0  0.96371  0.50249  0.27101  1.0000
  H   H4285     1.0  0.93872  0.51544  0.20443  1.0000
  S   S958      1.0  0.95818  0.49889  0.31399  1.0000
  H   H4286     1.0  0.59273  0.93704  0.24726  1.0000
  H   H4287     1.0  0.55916  0.97695  0.35415  1.0000
  C   C3573     1.0  0.56172  0.89068  0.20630  1.0000
  Fe  Fe477     1.0  0.56510  0.92507  0.19377  1.0000
  H   H4288     1.0  0.64564  0.96374  0.28854  1.0000
  C   C3574     1.0  0.62352  0.93574  0.21106  1.0000
  C   C3575     1.0  0.54569  0.89720  0.22694  1.0000
  S   S959      1.0  0.51334  0.93534  0.20758  1.0000
  H   H4289     1.0  0.54720  0.91949  0.29377  1.0000
  H   H4290     1.0  0.64149  0.98960  0.36504  1.0000
  S   S960      1.0  0.58107  0.91094  0.19702  1.0000
  C   C3576     1.0  0.60972  0.96559  0.20264  1.0000
  H   H4291     1.0  0.63138  0.98804  0.33572  1.0000
  C   C3577     1.0  0.50455  0.98402  0.30413  1.0000
  C   C3578     1.0  0.98439  0.49533  0.25428  1.0000
  H   H4292     1.0  0.58492  0.97647  0.19564  1.0000
  H   H4293     1.0  0.55183  0.89806  0.30038  1.0000
  C   C3579     1.0  0.60836  0.91675  0.25307  1.0000
  C   C3580     1.0  0.96147  0.49894  0.22796  1.0000
  C   C3581     1.0  0.59888  0.90933  0.24282  1.0000
  C   C3582     1.0  0.51278  0.97488  0.21334  1.0000
  H   H4294     1.0  0.52261  0.94654  0.21913  1.0000
  C   C3583     1.0  0.52880  0.94559  0.22427  1.0000
  C   C3584     1.0  0.53851  0.91945  0.29997  1.0000
  C   C3585     1.0  0.57852  0.97603  0.31139  1.0000
  C   C3586     1.0  0.63071  0.95586  0.29898  1.0000
  C   C3587     1.0  0.54088  0.90102  0.28186  1.0000
  Fe  Fe478     1.0  0.58942  0.92607  0.19434  1.0000
  H   H4295     1.0  0.54020  0.89014  0.30578  1.0000
  H   H4296     1.0  0.54969  0.98772  0.22219  1.0000
  H   H4297     1.0  0.53947  0.91987  0.30867  1.0000
  C   C3588     1.0  0.93852  0.54088  0.24322  1.0000
  S   S961      1.0  0.94462  0.51925  0.22550  1.0000
  H   H4298     1.0  0.62350  0.95099  0.32914  1.0000
  H   H4299     1.0  0.62494  0.94711  0.22113  1.0000
  C   C3589     1.0  0.62826  0.95377  0.32020  1.0000
  C   C3590     1.0  0.93807  0.53820  0.29194  1.0000
  Fe  Fe479     1.0  0.57498  0.91292  0.21576  1.0000
  H   H4300     1.0  0.52342  0.90881  0.31809  1.0000
  C   C3591     1.0  0.62130  0.93988  0.22126  1.0000
  S   S962      1.0  0.52001  0.96967  0.36525  1.0000
  S   S963      1.0  0.57447  0.89771  0.23126  1.0000
  N   N239      1.0  0.57491  0.98604  0.27976  1.0000
  C   C3592     1.0  0.54895  0.94669  0.36057  1.0000
  H   H4301     1.0  0.54291  0.89832  0.31461  1.0000
  C   C3593     1.0  0.95598  0.52303  0.29036  1.0000
  C   C3594     1.0  0.53452  0.91063  0.21342  1.0000
  H   H4302     1.0  0.62859  0.98183  0.20194  1.0000
  C   C3595     1.0  0.53093  0.91004  0.26581  1.0000
  H   H4303     1.0  0.54595  0.89553  0.26538  1.0000
  H   H4304     1.0  0.53735  0.98181  0.22370  1.0000
  H   H4305     1.0  0.49700  0.91353  0.25481  1.0000
  C   C3596     1.0  0.53797  0.95150  0.21964  1.0000
  C   C3597     1.0  0.52274  0.90925  0.30902  1.0000
  H   H4306     1.0  0.94123  0.54340  0.23349  1.0000
  C   C3598     1.0  0.95884  0.55262  0.23505  1.0000
  H   H4307     1.0  0.98606  0.49961  0.23115  1.0000
  H   H4308     1.0  0.63065  0.95695  0.27028  1.0000
  C   C3599     1.0  0.95710  0.53998  0.32227  1.0000
  H   H4309     1.0  0.61721  0.91095  0.25078  1.0000
  N   N240      1.0  0.96941  0.53346  0.32240  1.0000
  H   H4310     1.0  0.95802  0.54995  0.22759  1.0000
  C   C3600     1.0  0.54653  0.94963  0.22594  1.0000
  C   C3601     1.0  0.53931  0.98229  0.37908  1.0000
  H   H4311     1.0  0.53881  0.90006  0.23448  1.0000
  H   H4312     1.0  0.49846  0.94654  0.35031  1.0000
  H   H4313     1.0  0.77265  0.95566  0.38351  1.0000
  H   H4314     1.0  0.64240  0.99077  0.32283  1.0000
  C   C3602     1.0  0.64060  0.96070  0.29719  1.0000
  C   C3603     1.0  0.63798  0.95851  0.31816  1.0000
  H   H4315     1.0  0.58807  0.98269  0.26413  1.0000
  H   H4316     1.0  0.54085  0.91643  0.20984  1.0000
  C   C3604     1.0  0.95691  0.54315  0.28834  1.0000
  N   N241      1.0  0.75427  0.96177  0.39102  1.0000
  H   H4317     1.0  0.97280  0.52872  0.30579  1.0000
  C   C3605     1.0  0.54947  0.89454  0.20654  1.0000
  H   H4318     1.0  0.93748  0.53928  0.26594  1.0000
  H   H4319     1.0  0.96628  0.51879  0.31779  1.0000
  C   C3606     1.0  0.54452  0.98122  0.22794  1.0000
  H   H4320     1.0  0.59602  0.96902  0.23649  1.0000
  C   C3607     1.0  0.54264  0.89838  0.30551  1.0000
  C   C3608     1.0  0.61437  0.96038  0.28952  1.0000
  H   H4321     1.0  0.60339  0.91197  0.26134  1.0000
  C   C3609     1.0  0.53974  0.90156  0.27058  1.0000
  H   H4322     1.0  0.92858  0.54081  0.29333  1.0000
  H   H4323     1.0  0.54243  0.97183  0.35081  1.0000
  H   H4324     1.0  0.59358  0.90545  0.25140  1.0000
  S   S964      1.0  0.98333  0.55307  0.19724  1.0000
  C   C3610     1.0  0.63385  0.95835  0.27741  1.0000
  N   N242      1.0  0.50976  0.98216  0.31436  1.0000
  H   H4325     1.0  0.93976  0.52505  0.26310  1.0000
  H   H4326     1.0  0.93205  0.54854  0.24633  1.0000
  C   C3611     1.0  0.58066  0.98041  0.29925  1.0000
  C   C3612     1.0  0.97779  0.52512  0.35224  1.0000
  H   H4327     1.0  0.98657  0.53756  0.31634  1.0000
  C   C3613     1.0  0.94413  0.53240  0.26166  1.0000
  C   C3614     1.0  0.59052  0.95433  0.21896  1.0000
  H   H4328     1.0  0.61322  0.96989  0.28917  1.0000
  H   H4329     1.0  0.76596  0.96946  0.37555  1.0000
  H   H4330     1.0  0.57034  0.96991  0.22191  1.0000
  H   H4331     1.0  0.95951  0.52956  0.23424  1.0000
  C   C3615     1.0  0.62467  0.95245  0.31078  1.0000
  H   H4332     1.0  0.59724  0.94842  0.21358  1.0000
  S   S965      1.0  0.93570  0.51589  0.29428  1.0000
  C   C3616     1.0  0.94465  0.54654  0.29032  1.0000
  H   H4333     1.0  0.96043  0.51394  0.29051  1.0000
  H   H4334     1.0  0.61135  0.95964  0.28196  1.0000
  H   H4335     1.0  0.52143  0.98002  0.38363  1.0000
  H   H4336     1.0  0.95321  0.54720  0.26509  1.0000
  H   H4337     1.0  0.51676  0.92503  0.26821  1.0000
  C   C3617     1.0  0.95437  0.54699  0.24674  1.0000
  H   H4338     1.0  0.59351  0.95339  0.22708  1.0000
  C   C3618     1.0  0.56092  0.94343  0.36147  1.0000
  C   C3619     1.0  0.56625  0.94088  0.34110  1.0000
  H   H4339     1.0  0.51868  0.92467  0.28781  1.0000
  C   C3620     1.0  0.56572  0.98581  0.27401  1.0000
  H   H4340     1.0  0.96816  0.56574  0.22369  1.0000
  C   C3621     1.0  0.56980  0.88740  0.19635  1.0000
  C   C3622     1.0  0.62777  0.94133  0.29061  1.0000
  C   C3623     1.0  0.53397  0.97362  0.24736  1.0000
  H   H4341     1.0  0.94025  0.55562  0.29043  1.0000
  C   C3624     1.0  0.50110  0.95330  0.34283  1.0000
  H   H4342     1.0  0.50754  0.97605  0.30029  1.0000
  H   H4343     1.0  0.61762  0.96633  0.23150  1.0000
  C   C3625     1.0  0.53178  0.89083  0.22097  1.0000
  C   C3626     1.0  0.57252  0.98106  0.29258  1.0000
  H   H4344     1.0  0.54988  0.95574  0.37911  1.0000
  H   H4345     1.0  0.65171  0.96566  0.30512  1.0000
  H   H4346     1.0  0.50723  0.99140  0.29695  1.0000
  H   H4347     1.0  0.62953  0.98391  0.29948  1.0000
  H   H4348     1.0  0.54175  0.94909  0.36769  1.0000
  S   S966      1.0  0.98705  0.53756  0.26230  1.0000
  H   H4349     1.0  0.92479  0.51835  0.21436  1.0000
  H   H4350     1.0  0.55201  0.94467  0.33242  1.0000
  N   N243      1.0  0.56453  0.94265  0.37239  1.0000
  H   H4351     1.0  0.54569  0.96531  0.25970  1.0000
  H   H4352     1.0  0.60982  0.95835  0.19906  1.0000
  H   H4353     1.0  0.62050  0.92333  0.20327  1.0000
  C   C3627     1.0  0.74325  0.96810  0.38699  1.0000
  C   C3628     1.0  0.50385  0.98596  0.19317  1.0000
  H   H4354     1.0  0.51838  0.94772  0.26482  1.0000
  S   S967      1.0  0.51136  0.90803  0.19950  1.0000
  C   C3629     1.0  0.72219  0.98097  0.37947  1.0000
  H   H4355     1.0  0.76272  0.95622  0.37475  1.0000
  H   H4356     1.0  0.56790  0.98940  0.26436  1.0000
  S   S968      1.0  0.62155  0.98555  0.35985  1.0000
  S   S969      1.0  0.62516  0.98742  0.22948  1.0000
  H   H4357     1.0  0.62886  0.93973  0.20296  1.0000
  H   H4358     1.0  0.53914  0.99129  0.19515  1.0000
  H   H4359     1.0  0.91252  0.50567  0.20481  1.0000
  Fe  Fe480     1.0  0.50093  0.97838  0.37077  1.0000
  Fe  Fe481     1.0  0.97659  0.53766  0.19743  1.0000
  C   C3630     1.0  0.61038  0.98457  0.21085  1.0000
  C   C3631     1.0  0.55447  0.94432  0.34044  1.0000
  H   H4360     1.0  0.57278  0.92924  0.38531  1.0000
  C   C3632     1.0  0.98202  0.50608  0.25786  1.0000
  Fe  Fe482     1.0  0.50616  0.93345  0.22702  1.0000
  C   C3633     1.0  0.51840  0.96305  0.25079  1.0000
  H   H4361     1.0  0.98297  0.52765  0.35669  1.0000
  H   H4362     1.0  0.55757  0.94611  0.38987  1.0000
  H   H4363     1.0  0.55532  0.97724  0.29462  1.0000
  H   H4364     1.0  0.53679  0.89792  0.19567  1.0000
  C   C3634     1.0  0.63527  0.98780  0.37329  1.0000
  H   H4365     1.0  0.55224  0.96924  0.31555  1.0000
  C   C3635     1.0  0.99401  0.61078  0.36735  1.0000
  H   H4366     1.0  0.57565  0.95005  0.37807  1.0000
  C   C3636     1.0  0.51245  0.98678  0.20861  1.0000
  C   C3637     1.0  0.91705  0.50048  0.21200  1.0000
  H   H4367     1.0  0.99284  0.56135  0.31582  1.0000
  S   S970      1.0  0.95789  0.54033  0.19636  1.0000
  C   C3638     1.0  0.65561  0.98275  0.20101  1.0000
  C   C3639     1.0  0.50392  0.97409  0.19815  1.0000
  H   H4368     1.0  0.56677  0.96843  0.32665  1.0000
  C   C3640     1.0  0.62459  0.98536  0.37340  1.0000
  H   H4369     1.0  0.51085  0.96214  0.24834  1.0000
  H   H4370     1.0  0.96617  0.50253  0.21941  1.0000
  H   H4371     1.0  0.92873  0.50013  0.22776  1.0000
  Fe  Fe483     1.0  0.94388  0.49929  0.30555  1.0000
  H   H4372     1.0  0.98563  0.53722  0.22012  1.0000
  C   C3641     1.0  0.50808  0.99234  0.19845  1.0000
  H   H4373     1.0  0.50896  0.93274  0.32347  1.0000
  H   H4374     1.0  0.52996  0.95779  0.19549  1.0000
  C   C3642     1.0  0.93639  0.49638  0.19920  1.0000
  H   H4375     1.0  0.51885  0.97244  0.33421  1.0000
  C   C3643     1.0  0.61665  0.98304  0.38416  1.0000
  C   C3644     1.0  0.98868  0.55378  0.20896  1.0000
  C   C3645     1.0  0.65349  0.97159  0.20319  1.0000
  H   H4376     1.0  0.57912  0.88468  0.19629  1.0000
  N   N244      1.0  0.54008  0.98308  0.24009  1.0000
  C   C3646     1.0  0.55456  0.94646  0.38192  1.0000
  H   H4377     1.0  0.98865  0.57520  0.36846  1.0000
  Fe  Fe484     1.0  0.50244  0.92285  0.20877  1.0000
  H   H4378     1.0  0.94314  0.49652  0.21897  1.0000
  H   H4379     1.0  0.58869  0.98344  0.29512  1.0000
  H   H4380     1.0  0.55450  0.99077  0.23887  1.0000
  H   H4381     1.0  0.61057  0.99207  0.21388  1.0000
  H   H4382     1.0  0.98335  0.59111  0.35101  1.0000
  H   H4383     1.0  0.97460  0.49496  0.33379  1.0000
  H   H4384     1.0  0.98790  0.60704  0.35444  1.0000
  C   C3647     1.0  0.76431  0.96077  0.38075  1.0000
  S   S971      1.0  0.49892  0.93810  0.30346  1.0000
  C   C3648     1.0  0.62081  0.98856  0.29830  1.0000
  H   H4385     1.0  0.99462  0.49540  0.34985  1.0000
  H   H4386     1.0  0.62940  0.98723  0.32192  1.0000
  S   S972      1.0  0.94580  0.49413  0.34748  1.0000
  S   S973      1.0  0.49833  0.96587  0.19219  1.0000
  C   C3649     1.0  0.99378  0.54578  0.22807  1.0000
  H   H4387     1.0  0.99424  0.53879  0.23581  1.0000
  H   H4388     1.0  0.99310  0.50932  0.23403  1.0000
  H   H4389     1.0  0.99291  0.58237  0.34096  1.0000
  C   C3650     1.0  0.49846  0.99027  0.26677  1.0000
  H   H4390     1.0  0.62790  0.96521  0.19424  1.0000
  C   C3651     1.0  0.65158  0.96778  0.19423  1.0000
  H   H4391     1.0  0.53058  0.97693  0.19194  1.0000
  C   C3652     1.0  0.99302  0.56362  0.20779  1.0000
  H   H4392     1.0  0.99279  0.57056  0.19995  1.0000
  H   H4393     1.0  0.49637  0.98570  0.23271  1.0000
  H   H4394     1.0  0.99504  0.59666  0.33962  1.0000
  C   C3653     1.0  0.92692  0.88201  0.51347  1.0000
  H   H4395     1.0  0.92276  0.90271  0.52087  1.0000
  S   S974      1.0  0.66495  0.98026  0.53803  1.0000
  C   C3654     1.0  0.98905  0.67852  0.47892  1.0000
  C   C3655     1.0  0.73635  0.97303  0.45464  1.0000
  C   C3656     1.0  0.98754  0.63973  0.56288  1.0000
  H   H4396     1.0  0.96602  0.73200  0.46463  1.0000
  C   C3657     1.0  0.94965  0.91111  0.44678  1.0000
  H   H4397     1.0  0.98766  0.73624  0.42616  1.0000
  S   S975      1.0  0.72969  0.96108  0.45904  1.0000
  S   S976      1.0  0.64059  0.97200  0.52702  1.0000
  H   H4398     1.0  0.99246  0.63761  0.51750  1.0000
  Fe  Fe485     1.0  0.74465  0.93890  0.53416  1.0000
  S   S977      1.0  0.75840  0.93686  0.51764  1.0000
  S   S978      1.0  0.74919  0.94091  0.55009  1.0000
  Fe  Fe486     1.0  0.72467  0.93871  0.52371  1.0000
  S   S979      1.0  0.73683  0.93687  0.50635  1.0000
  S   S980      1.0  0.70619  0.93780  0.52451  1.0000
  Fe  Fe487     1.0  0.74908  0.92373  0.51684  1.0000
  S   S981      1.0  0.75800  0.90611  0.51253  1.0000
  Fe  Fe488     1.0  0.74481  0.95010  0.50889  1.0000
  S   S982      1.0  0.74888  0.96492  0.49400  1.0000
  S   S983      1.0  0.73644  0.92453  0.53417  1.0000
  S   S984      1.0  0.73159  0.95328  0.52537  1.0000
  H   H4399     1.0  0.77649  0.91409  0.51522  1.0000
  H   H4400     1.0  0.94179  0.92094  0.48695  1.0000
  H   H4401     1.0  0.80565  0.91835  0.47359  1.0000
  C   C3658     1.0  0.97740  0.75347  0.46710  1.0000
  S   S985      1.0  0.92520  0.91569  0.47703  1.0000
  S   S986      1.0  0.97157  0.77411  0.52871  1.0000
  Fe  Fe489     1.0  0.75284  0.92230  0.44929  1.0000
  S   S987      1.0  0.75678  0.90473  0.46143  1.0000
  S   S988      1.0  0.73406  0.93192  0.44982  1.0000
  H   H4402     1.0  0.91727  0.86895  0.51453  1.0000
  Fe  Fe490     1.0  0.91622  0.93199  0.48434  1.0000
  S   S989      1.0  0.91503  0.95090  0.47471  1.0000
  Fe  Fe491     1.0  0.90025  0.93826  0.50684  1.0000
  S   S990      1.0  0.89793  0.95767  0.49958  1.0000
  S   S991      1.0  0.89076  0.93126  0.52512  1.0000
  Fe  Fe492     1.0  0.89587  0.95359  0.48356  1.0000
  S   S992      1.0  0.88008  0.96480  0.47671  1.0000
  Fe  Fe493     1.0  0.91714  0.95355  0.49153  1.0000
  S   S993      1.0  0.92968  0.96414  0.49115  1.0000
  S   S994      1.0  0.89671  0.93454  0.49134  1.0000
  S   S995      1.0  0.91982  0.93439  0.50049  1.0000
  C   C3659     1.0  0.80988  0.95067  0.57051  1.0000
  Fe  Fe494     1.0  0.82822  0.96675  0.45116  1.0000
  S   S996      1.0  0.82236  0.97446  0.46709  1.0000
  Fe  Fe495     1.0  0.81178  0.91673  0.54721  1.0000
  S   S997      1.0  0.80641  0.93539  0.53786  1.0000
  S   S998      1.0  0.79760  0.90992  0.56156  1.0000
  Fe  Fe496     1.0  0.83643  0.91361  0.53185  1.0000
  S   S999      1.0  0.83296  0.93197  0.52117  1.0000
  S   S1000     1.0  0.85435  0.90320  0.52518  1.0000
  Fe  Fe497     1.0  0.82417  0.93676  0.53860  1.0000
  S   S1001     1.0  0.82671  0.95235  0.54323  1.0000
  Fe  Fe498     1.0  0.81569  0.92853  0.52162  1.0000
  S   S1002     1.0  0.80773  0.93173  0.50620  1.0000
  S   S1003     1.0  0.82887  0.91861  0.54938  1.0000
  S   S1004     1.0  0.81986  0.90971  0.53087  1.0000
  C   C3660     1.0  0.93842  0.88325  0.51270  1.0000
  H   H4403     1.0  0.73441  0.93069  0.48336  1.0000
  H   H4404     1.0  0.98775  0.87033  0.45829  1.0000
  H   H4405     1.0  0.94582  0.92640  0.45402  1.0000
  S   S1005     1.0  0.83680  0.94765  0.45495  1.0000
  S   S1006     1.0  0.75907  0.93775  0.44987  1.0000
  C   C3661     1.0  0.82527  0.99070  0.48606  1.0000
  C   C3662     1.0  0.78542  0.91212  0.51696  1.0000
  C   C3663     1.0  0.81928  0.96464  0.53466  1.0000
  C   C3664     1.0  0.81585  0.96308  0.52530  1.0000
  C   C3665     1.0  0.81047  0.97273  0.51781  1.0000
  H   H4406     1.0  0.72112  0.94056  0.48878  1.0000
  C   C3666     1.0  0.72414  0.91407  0.48258  1.0000
  C   C3667     1.0  0.76176  0.96531  0.52707  1.0000
  H   H4407     1.0  0.81752  0.95441  0.52378  1.0000
  H   H4408     1.0  0.80787  0.97149  0.51053  1.0000
  C   C3668     1.0  0.78965  0.93254  0.43491  1.0000
  H   H4409     1.0  0.78854  0.93509  0.56573  1.0000
  C   C3669     1.0  0.81730  0.96322  0.47826  1.0000
  C   C3670     1.0  0.81829  0.96185  0.48977  1.0000
  C   C3671     1.0  0.81520  0.95221  0.49841  1.0000
  C   C3672     1.0  0.81102  0.94403  0.49559  1.0000
  C   C3673     1.0  0.80981  0.94546  0.48417  1.0000
  C   C3674     1.0  0.81296  0.95505  0.47550  1.0000
  H   H4410     1.0  0.82180  0.96796  0.49196  1.0000
  H   H4411     1.0  0.81623  0.95095  0.50720  1.0000
  H   H4412     1.0  0.80674  0.93902  0.48196  1.0000
  H   H4413     1.0  0.81204  0.95612  0.46666  1.0000
  C   C3675     1.0  0.92569  0.97960  0.48764  1.0000
  H   H4414     1.0  0.64343  0.98158  0.57533  1.0000
  H   H4415     1.0  0.88677  0.98444  0.47875  1.0000
  C   C3676     1.0  0.87238  0.95032  0.44966  1.0000
  H   H4416     1.0  0.90367  0.88206  0.52436  1.0000
  H   H4417     1.0  0.73292  0.97364  0.47853  1.0000
  H   H4418     1.0  0.84789  0.98288  0.48489  1.0000
  H   H4419     1.0  0.97380  0.81613  0.54233  1.0000
  H   H4420     1.0  0.61444  0.96150  0.57254  1.0000
  C   C3677     1.0  0.98043  0.77626  0.48870  1.0000
  C   C3678     1.0  0.88098  0.92293  0.52543  1.0000
  C   C3679     1.0  0.87094  0.92248  0.53453  1.0000
  C   C3680     1.0  0.86270  0.91648  0.53444  1.0000
  C   C3681     1.0  0.86476  0.91043  0.52555  1.0000
  C   C3682     1.0  0.87502  0.91047  0.51670  1.0000
  C   C3683     1.0  0.88302  0.91686  0.51656  1.0000
  H   H4421     1.0  0.86946  0.92687  0.54160  1.0000
  H   H4422     1.0  0.85487  0.91633  0.54139  1.0000
  H   H4423     1.0  0.87668  0.90572  0.50987  1.0000
  H   H4424     1.0  0.89090  0.91683  0.50978  1.0000
  C   C3684     1.0  0.87724  0.95909  0.46637  1.0000
  C   C3685     1.0  0.86606  0.96271  0.46387  1.0000
  C   C3686     1.0  0.86360  0.95822  0.45564  1.0000
  H   H4425     1.0  0.95146  0.68837  0.48472  1.0000
  C   C3687     1.0  0.88598  0.95096  0.46063  1.0000
  H   H4426     1.0  0.85925  0.96893  0.46836  1.0000
  H   H4427     1.0  0.85489  0.96094  0.45393  1.0000
  C   C3688     1.0  0.76800  0.98372  0.52132  1.0000
  H   H4428     1.0  0.71748  0.91086  0.50615  1.0000
  C   C3689     1.0  0.95953  0.77748  0.50584  1.0000
  C   C3690     1.0  0.96638  0.87479  0.45479  1.0000
  H   H4429     1.0  0.71925  0.92490  0.50676  1.0000
  C   C3691     1.0  0.94796  0.87355  0.51276  1.0000
  H   H4430     1.0  0.72423  0.91745  0.47309  1.0000
  H   H4431     1.0  0.70677  0.96938  0.45663  1.0000
  C   C3692     1.0  0.70194  0.93117  0.47957  1.0000
  C   C3693     1.0  0.70622  0.92763  0.49003  1.0000
  C   C3694     1.0  0.75814  0.90583  0.49818  1.0000
  C   C3695     1.0  0.75921  0.89512  0.49536  1.0000
  C   C3696     1.0  0.75902  0.89483  0.48398  1.0000
  C   C3697     1.0  0.75775  0.90524  0.47539  1.0000
  C   C3698     1.0  0.75681  0.91592  0.47821  1.0000
  C   C3699     1.0  0.75709  0.91621  0.48957  1.0000
  H   H4432     1.0  0.76005  0.88707  0.50202  1.0000
  H   H4433     1.0  0.75971  0.88654  0.48186  1.0000
  H   H4434     1.0  0.75572  0.92397  0.47174  1.0000
  H   H4435     1.0  0.75659  0.92446  0.49162  1.0000
  C   C3700     1.0  0.76235  0.93129  0.55313  1.0000
  C   C3701     1.0  0.76340  0.92684  0.56481  1.0000
  C   C3702     1.0  0.77408  0.91974  0.56738  1.0000
  C   C3703     1.0  0.78387  0.91742  0.55829  1.0000
  C   C3704     1.0  0.78283  0.92186  0.54661  1.0000
  C   C3705     1.0  0.77204  0.92865  0.54403  1.0000
  H   H4436     1.0  0.75594  0.92884  0.57188  1.0000
  H   H4437     1.0  0.77486  0.91636  0.57643  1.0000
  H   H4438     1.0  0.79037  0.92009  0.53955  1.0000
  H   H4439     1.0  0.77136  0.93211  0.53502  1.0000
  C   C3706     1.0  0.73559  0.97535  0.49462  1.0000
  H   H4440     1.0  0.77174  0.96344  0.57391  1.0000
  H   H4441     1.0  0.78279  0.92777  0.43709  1.0000
  Fe  Fe499     1.0  0.85027  0.95212  0.43871  1.0000
  H   H4442     1.0  0.98721  0.67301  0.42681  1.0000
  C   C3707     1.0  0.73100  0.98077  0.50418  1.0000
  C   C3708     1.0  0.98387  0.75383  0.42895  1.0000
  C   C3709     1.0  0.79359  0.90267  0.50047  1.0000
  H   H4443     1.0  0.96670  0.73431  0.50847  1.0000
  H   H4444     1.0  0.73563  0.97836  0.51115  1.0000
  H   H4445     1.0  0.99591  0.73554  0.46058  1.0000
  C   C3710     1.0  0.67981  0.96374  0.46923  1.0000
  C   C3711     1.0  0.78172  0.96605  0.51638  1.0000
  H   H4446     1.0  0.97741  0.62933  0.51530  1.0000
  S   S1007     1.0  0.81691  0.93161  0.44810  1.0000
  H   H4447     1.0  0.90976  0.98058  0.45837  1.0000
  H   H4448     1.0  0.99025  0.75733  0.57625  1.0000
  C   C3712     1.0  0.86449  0.96975  0.52013  1.0000
  H   H4449     1.0  0.91122  0.91064  0.51343  1.0000
  H   H4450     1.0  0.80389  0.91615  0.49459  1.0000
  H   H4451     1.0  0.65408  0.97185  0.46997  1.0000
  H   H4452     1.0  0.97460  0.61559  0.52451  1.0000
  S   S1008     1.0  0.97630  0.67001  0.53083  1.0000
  C   C3713     1.0  0.96260  0.72999  0.53447  1.0000
  C   C3714     1.0  0.67618  0.96796  0.53518  1.0000
  C   C3715     1.0  0.68767  0.96769  0.53552  1.0000
  C   C3716     1.0  0.69693  0.95828  0.53257  1.0000
  C   C3717     1.0  0.69469  0.94910  0.52934  1.0000
  C   C3718     1.0  0.68315  0.94922  0.52930  1.0000
  C   C3719     1.0  0.67389  0.95861  0.53227  1.0000
  H   H4453     1.0  0.68946  0.97489  0.53782  1.0000
  H   H4454     1.0  0.70579  0.95823  0.53266  1.0000
  H   H4455     1.0  0.68138  0.94207  0.52690  1.0000
  H   H4456     1.0  0.66500  0.95869  0.53217  1.0000
  C   C3720     1.0  0.69878  0.96856  0.46321  1.0000
  H   H4457     1.0  0.71925  0.90691  0.48593  1.0000
  C   C3721     1.0  0.69737  0.97090  0.47422  1.0000
  C   C3722     1.0  0.72945  0.97810  0.48574  1.0000
  C   C3723     1.0  0.67828  0.96603  0.48029  1.0000
  H   H4458     1.0  0.89961  0.89723  0.52472  1.0000
  C   C3724     1.0  0.80716  0.93510  0.43880  1.0000
  H   H4459     1.0  0.70132  0.98769  0.41088  1.0000
  H   H4460     1.0  0.76229  0.94520  0.40116  1.0000
  H   H4461     1.0  0.94035  0.89162  0.51185  1.0000
  H   H4462     1.0  0.98677  0.72882  0.45635  1.0000
  C   C3725     1.0  0.96901  0.74326  0.43071  1.0000
  H   H4463     1.0  0.74522  0.99091  0.42438  1.0000
  C   C3726     1.0  0.69565  0.96543  0.50009  1.0000
  H   H4464     1.0  0.79044  0.96164  0.51237  1.0000
  C   C3727     1.0  0.74835  0.97154  0.44942  1.0000
  H   H4465     1.0  0.86606  0.94799  0.53427  1.0000
  H   H4466     1.0  0.77812  0.89273  0.52043  1.0000
  C   C3728     1.0  0.78763  0.96645  0.54574  1.0000
  C   C3729     1.0  0.87599  0.98705  0.52022  1.0000
  C   C3730     1.0  0.96733  0.62814  0.55818  1.0000
  H   H4467     1.0  0.97900  0.63270  0.58053  1.0000
  H   H4468     1.0  0.93425  0.85224  0.51454  1.0000
  H   H4469     1.0  0.81992  0.97714  0.54391  1.0000
  C   C3731     1.0  0.92569  0.87056  0.51411  1.0000
  C   C3732     1.0  0.97570  0.62222  0.54999  1.0000
  C   C3733     1.0  0.90726  0.88959  0.52411  1.0000
  H   H4470     1.0  0.86609  0.95982  0.41712  1.0000
  H   H4471     1.0  0.71459  0.93333  0.44092  1.0000
  H   H4472     1.0  0.61851  0.98126  0.43294  1.0000
  H   H4473     1.0  0.70786  0.93091  0.47108  1.0000
  H   H4474     1.0  0.73150  0.91471  0.50065  1.0000
  S   S1009     1.0  0.64915  0.98266  0.43105  1.0000
  H   H4475     1.0  0.78269  0.89047  0.50189  1.0000
  C   C3734     1.0  0.72479  0.93338  0.48383  1.0000
  N   N245      1.0  0.71901  0.92337  0.48953  1.0000
  C   C3735     1.0  0.94682  0.72495  0.52475  1.0000
  C   C3736     1.0  0.80073  0.91223  0.47994  1.0000
  N   N246      1.0  0.79278  0.90123  0.51317  1.0000
  C   C3737     1.0  0.91193  0.89373  0.50287  1.0000
  C   C3738     1.0  0.98259  0.87945  0.45864  1.0000
  C   C3739     1.0  0.62699  0.96683  0.44442  1.0000
  C   C3740     1.0  0.64593  0.98567  0.47946  1.0000
  C   C3741     1.0  0.99357  0.60992  0.53399  1.0000
  C   C3742     1.0  0.97546  0.76644  0.49351  1.0000
  H   H4476     1.0  0.96554  0.74657  0.45577  1.0000
  H   H4477     1.0  0.91069  0.88757  0.53220  1.0000
  C   C3743     1.0  0.98084  0.74367  0.42846  1.0000
  H   H4478     1.0  0.70423  0.96743  0.49489  1.0000
  C   C3744     1.0  0.78801  0.89647  0.49614  1.0000
  H   H4479     1.0  0.79806  0.92141  0.44879  1.0000
  H   H4480     1.0  0.99302  0.78998  0.49869  1.0000
  H   H4481     1.0  0.90849  0.88613  0.50301  1.0000
  C   C3745     1.0  0.79532  0.90585  0.47602  1.0000
  H   H4482     1.0  0.73350  0.90997  0.48295  1.0000
  C   C3746     1.0  0.86601  0.95361  0.51125  1.0000
  N   N247      1.0  0.86904  0.97578  0.40442  1.0000
  H   H4483     1.0  0.78922  0.91989  0.51224  1.0000
  C   C3747     1.0  0.75398  0.94967  0.39807  1.0000
  H   H4484     1.0  0.97182  0.71190  0.53487  1.0000
  H   H4485     1.0  0.80870  0.90681  0.51154  1.0000
  H   H4486     1.0  0.95109  0.75298  0.43473  1.0000
  Fe  Fe500     1.0  0.74070  0.94755  0.44885  1.0000
  H   H4487     1.0  0.78432  0.91137  0.52652  1.0000
  H   H4488     1.0  0.79242  0.88283  0.51807  1.0000
  H   H4489     1.0  0.78035  0.94654  0.55018  1.0000
  H   H4490     1.0  0.59089  0.97060  0.56532  1.0000
  Fe  Fe501     1.0  0.98952  0.76278  0.52855  1.0000
  C   C3748     1.0  0.84886  0.99109  0.48586  1.0000
  C   C3749     1.0  0.79833  0.92889  0.44149  1.0000
  N   N248      1.0  0.94960  0.70363  0.49162  1.0000
  H   H4491     1.0  0.98488  0.80892  0.47058  1.0000
  C   C3750     1.0  0.80840  0.98399  0.51971  1.0000
  C   C3751     1.0  0.97958  0.67378  0.47965  1.0000
  C   C3752     1.0  0.94710  0.71280  0.48112  1.0000
  C   C3753     1.0  0.94127  0.72466  0.48167  1.0000
  C   C3754     1.0  0.95096  0.71012  0.46981  1.0000
  C   C3755     1.0  0.93919  0.73312  0.47152  1.0000
  C   C3756     1.0  0.94886  0.71864  0.45974  1.0000
  C   C3757     1.0  0.94300  0.73011  0.46058  1.0000
  C   C3758     1.0  0.96861  0.90279  0.45780  1.0000
  H   H4492     1.0  0.95158  0.77777  0.51276  1.0000
  H   H4493     1.0  0.94715  0.68606  0.50016  1.0000
  S   S1010     1.0  0.97975  0.70902  0.45406  1.0000
  C   C3759     1.0  0.97512  0.76339  0.43225  1.0000
  C   C3760     1.0  0.95176  0.91799  0.45306  1.0000
  H   H4494     1.0  0.93369  0.71022  0.50353  1.0000
  C   C3761     1.0  0.94641  0.86243  0.51348  1.0000
  S   S1011     1.0  0.67365  0.99144  0.42555  1.0000
  H   H4495     1.0  0.93822  0.72762  0.48983  1.0000
  H   H4496     1.0  0.81454  0.94933  0.42689  1.0000
  H   H4497     1.0  0.93463  0.74208  0.47211  1.0000
  H   H4498     1.0  0.95194  0.71635  0.45119  1.0000
  H   H4499     1.0  0.94155  0.73667  0.45267  1.0000
  Fe  Fe502     1.0  0.98260  0.74981  0.55373  1.0000
  H   H4500     1.0  0.70816  0.96284  0.43453  1.0000
  H   H4501     1.0  0.96473  0.69384  0.49888  1.0000
  Fe  Fe503     1.0  0.73967  0.93605  0.43019  1.0000
  H   H4502     1.0  0.96580  0.62394  0.56743  1.0000
  C   C3762     1.0  0.98670  0.77267  0.59005  1.0000
  S   S1012     1.0  0.99259  0.84614  0.45599  1.0000
  S   S1013     1.0  0.83039  0.97871  0.40738  1.0000
  C   C3763     1.0  0.81718  0.97592  0.53668  1.0000
  H   H4503     1.0  0.68911  0.95947  0.41420  1.0000
  H   H4504     1.0  0.57886  0.98006  0.58177  1.0000
  H   H4505     1.0  0.77995  0.97438  0.56560  1.0000
  S   S1014     1.0  0.74479  0.95262  0.42931  1.0000
  C   C3764     1.0  0.96721  0.82341  0.52648  1.0000
  H   H4506     1.0  0.87475  0.94889  0.51313  1.0000
  H   H4507     1.0  0.81632  0.99134  0.48491  1.0000
  C   C3765     1.0  0.79419  0.93988  0.56687  1.0000
  C   C3766     1.0  0.99342  0.64092  0.47089  1.0000
  C   C3767     1.0  0.69015  0.95146  0.43217  1.0000
  S   S1015     1.0  0.95116  0.75347  0.53245  1.0000
  S   S1016     1.0  0.96498  0.73045  0.43070  1.0000
  H   H4508     1.0  0.96040  0.87545  0.46350  1.0000
  Fe  Fe504     1.0  0.99474  0.66974  0.52059  1.0000
  H   H4509     1.0  0.98331  0.65306  0.43146  1.0000
  C   C3768     1.0  0.69776  0.92891  0.50068  1.0000
  C   C3769     1.0  0.68991  0.93517  0.47983  1.0000
  C   C3770     1.0  0.68576  0.93311  0.50081  1.0000
  C   C3771     1.0  0.68183  0.93613  0.49043  1.0000
  H   H4510     1.0  0.70015  0.92674  0.50907  1.0000
  H   H4511     1.0  0.68683  0.93760  0.47174  1.0000
  H   H4512     1.0  0.67948  0.93394  0.50905  1.0000
  H   H4513     1.0  0.67251  0.93929  0.49059  1.0000
  H   H4514     1.0  0.63373  0.96772  0.46935  1.0000
  S   S1017     1.0  0.84104  0.94859  0.42693  1.0000
  H   H4515     1.0  0.95975  0.79509  0.50461  1.0000
  H   H4516     1.0  0.93737  0.89182  0.47646  1.0000
  H   H4517     1.0  0.69373  0.94181  0.44903  1.0000
  C   C3772     1.0  0.96656  0.89542  0.45167  1.0000
  C   C3773     1.0  0.80760  0.94465  0.42919  1.0000
  C   C3774     1.0  0.98350  0.66000  0.49757  1.0000
  C   C3775     1.0  0.67465  0.97028  0.50314  1.0000
  Fe  Fe505     1.0  0.83203  0.96767  0.42528  1.0000
  S   S1018     1.0  0.98064  0.68650  0.54573  1.0000
  H   H4518     1.0  0.99404  0.74772  0.51206  1.0000
  H   H4519     1.0  0.77503  0.95038  0.52205  1.0000
  C   C3776     1.0  0.98157  0.62066  0.52018  1.0000
  C   C3777     1.0  0.97184  0.63942  0.53453  1.0000
  S   S1019     1.0  0.98359  0.74591  0.53648  1.0000
  C   C3778     1.0  0.63705  0.97708  0.57496  1.0000
  H   H4520     1.0  0.75358  0.96296  0.44826  1.0000
  N   N249      1.0  0.71204  0.97924  0.42374  1.0000
  C   C3779     1.0  0.75892  0.97752  0.52701  1.0000
  H   H4521     1.0  0.55339  0.97957  0.55725  1.0000
  H   H4522     1.0  0.93668  0.69478  0.49138  1.0000
  H   H4523     1.0  0.94289  0.98077  0.47685  1.0000
  C   C3780     1.0  0.62470  0.98262  0.45823  1.0000
  N   N250      1.0  0.78012  0.95364  0.46473  1.0000
  C   C3781     1.0  0.76778  0.95305  0.47071  1.0000
  C   C3782     1.0  0.78125  0.95505  0.45196  1.0000
  C   C3783     1.0  0.78798  0.94227  0.46878  1.0000
  C   C3784     1.0  0.78331  0.96323  0.46761  1.0000
  C   C3785     1.0  0.78235  0.96335  0.47950  1.0000
  C   C3786     1.0  0.78791  0.97234  0.45887  1.0000
  H   H4524     1.0  0.69636  0.95584  0.50137  1.0000
  H   H4525     1.0  0.81883  0.93319  0.57757  1.0000
  C   C3787     1.0  0.93532  0.86094  0.51411  1.0000
  H   H4526     1.0  0.76164  0.96175  0.46875  1.0000
  H   H4527     1.0  0.76479  0.94655  0.46802  1.0000
  H   H4528     1.0  0.76657  0.95024  0.48040  1.0000
  H   H4529     1.0  0.77553  0.96335  0.44828  1.0000
  H   H4530     1.0  0.77865  0.94783  0.45006  1.0000
  H   H4531     1.0  0.79050  0.95482  0.44699  1.0000
  H   H4532     1.0  0.78694  0.93998  0.47847  1.0000
  H   H4533     1.0  0.78621  0.93487  0.46632  1.0000
  H   H4534     1.0  0.79738  0.94252  0.46475  1.0000
  H   H4535     1.0  0.77898  0.95669  0.48662  1.0000
  H   H4536     1.0  0.76448  0.96363  0.40207  1.0000
  H   H4537     1.0  0.54309  0.97622  0.57599  1.0000
  Fe  Fe506     1.0  0.82663  0.94605  0.44302  1.0000
  C   C3788     1.0  0.62014  0.98692  0.44788  1.0000
  N   N251      1.0  0.85417  0.92817  0.48503  1.0000
  C   C3789     1.0  0.85252  0.91973  0.49653  1.0000
  C   C3790     1.0  0.86654  0.92944  0.48188  1.0000
  C   C3791     1.0  0.84641  0.93981  0.48638  1.0000
  C   C3792     1.0  0.85100  0.92408  0.47618  1.0000
  C   C3793     1.0  0.85869  0.92280  0.46513  1.0000
  C   C3794     1.0  0.83968  0.92178  0.47828  1.0000
  C   C3795     1.0  0.85522  0.91935  0.45680  1.0000
  C   C3796     1.0  0.83633  0.91832  0.46989  1.0000
  C   C3797     1.0  0.84407  0.91712  0.45918  1.0000
  H   H4538     1.0  0.85771  0.91070  0.49577  1.0000
  H   H4539     1.0  0.85535  0.92224  0.50326  1.0000
  H   H4540     1.0  0.84320  0.91917  0.50032  1.0000
  H   H4541     1.0  0.87285  0.92100  0.48060  1.0000
  H   H4542     1.0  0.86874  0.93221  0.48885  1.0000
  H   H4543     1.0  0.86821  0.93629  0.47375  1.0000
  H   H4544     1.0  0.84710  0.94630  0.47781  1.0000
  H   H4545     1.0  0.83702  0.93935  0.48961  1.0000
  H   H4546     1.0  0.84862  0.94341  0.49274  1.0000
  H   H4547     1.0  0.86731  0.92472  0.46251  1.0000
  H   H4548     1.0  0.83319  0.92297  0.48629  1.0000
  H   H4549     1.0  0.86109  0.91880  0.44830  1.0000
  H   H4550     1.0  0.82755  0.91692  0.47152  1.0000
  H   H4551     1.0  0.84127  0.91480  0.45256  1.0000
  H   H4552     1.0  0.97881  0.81509  0.48868  1.0000
  C   C3798     1.0  0.99585  0.67390  0.48742  1.0000
  H   H4553     1.0  0.94061  0.72306  0.52110  1.0000
  Fe  Fe507     1.0  0.62383  0.98477  0.53292  1.0000
  C   C3799     1.0  0.88175  0.97523  0.52198  1.0000
  C   C3800     1.0  0.63004  0.98565  0.39455  1.0000
  H   H4554     1.0  0.84273  0.95805  0.51777  1.0000
  H   H4555     1.0  0.95668  0.87470  0.51206  1.0000
  N   N252      1.0  0.97732  0.74115  0.46750  1.0000
  C   C3801     1.0  0.85744  0.95249  0.53192  1.0000
  C   C3802     1.0  0.93831  0.90721  0.48133  1.0000
  Fe  Fe508     1.0  0.98879  0.84845  0.47454  1.0000
  C   C3803     1.0  0.97178  0.73089  0.50077  1.0000
  C   C3804     1.0  0.95534  0.90505  0.48907  1.0000
  C   C3805     1.0  0.94476  0.91191  0.48600  1.0000
  C   C3806     1.0  0.69465  0.95377  0.42003  1.0000
  S   S1020     1.0  0.84251  0.97148  0.43574  1.0000
  H   H4556     1.0  0.96278  0.91922  0.46347  1.0000
  C   C3807     1.0  0.94335  0.70734  0.50286  1.0000
  C   C3808     1.0  0.97103  0.73772  0.48957  1.0000
  H   H4557     1.0  0.88083  0.95760  0.52373  1.0000
  S   S1021     1.0  0.97304  0.88522  0.49106  1.0000
  H   H4558     1.0  0.88534  0.96482  0.40881  1.0000
  N   N253      1.0  0.74725  0.98369  0.53281  1.0000
  S   S1022     1.0  0.67601  0.95874  0.43826  1.0000
  C   C3809     1.0  0.80465  0.89909  0.51547  1.0000
  H   H4559     1.0  0.69600  0.98284  0.43675  1.0000
  S   S1023     1.0  0.75793  0.92486  0.42959  1.0000
  H   H4560     1.0  0.91891  0.89493  0.49471  1.0000
  C   C3810     1.0  0.94235  0.89553  0.48002  1.0000
  H   H4561     1.0  0.92561  0.90617  0.50497  1.0000
  H   H4562     1.0  0.95843  0.74452  0.47106  1.0000
  C   C3811     1.0  0.78891  0.89806  0.48410  1.0000
  C   C3812     1.0  0.98554  0.71520  0.49227  1.0000
  H   H4563     1.0  0.89526  0.97988  0.45897  1.0000
  H   H4564     1.0  0.69754  0.97476  0.42035  1.0000
  H   H4565     1.0  0.98883  0.65538  0.45164  1.0000
  C   C3813     1.0  0.69727  0.94382  0.43966  1.0000
  N   N254      1.0  0.68565  0.97253  0.49463  1.0000
  H   H4566     1.0  0.79601  0.90696  0.46671  1.0000
  H   H4567     1.0  0.70448  0.97360  0.47570  1.0000
  C   C3814     1.0  0.78750  0.89126  0.52071  1.0000
  H   H4568     1.0  0.81073  0.89148  0.51194  1.0000
  H   H4569     1.0  0.90462  0.90164  0.50199  1.0000
  H   H4570     1.0  0.83104  0.98364  0.48155  1.0000
  C   C3815     1.0  0.91922  0.90333  0.51317  1.0000
  H   H4571     1.0  0.99299  0.75420  0.42681  1.0000
  H   H4572     1.0  0.78448  0.89331  0.48100  1.0000
  C   C3816     1.0  0.69001  0.96501  0.46071  1.0000
  C   C3817     1.0  0.79979  0.91080  0.49198  1.0000
  N   N255      1.0  0.98076  0.79720  0.48739  1.0000
  H   H4573     1.0  0.87447  0.96882  0.42620  1.0000
  C   C3818     1.0  0.68705  0.96973  0.48313  1.0000
  S   S1024     1.0  0.97746  0.69553  0.43521  1.0000
  Fe  Fe509     1.0  0.64944  0.98817  0.41172  1.0000
  C   C3819     1.0  0.72954  0.98422  0.45582  1.0000
  H   H4574     1.0  0.89463  0.94810  0.46259  1.0000
  C   C3820     1.0  0.88357  0.94666  0.45218  1.0000
  H   H4575     1.0  0.89037  0.94049  0.44762  1.0000
  H   H4576     1.0  0.72361  0.93725  0.47469  1.0000
  C   C3821     1.0  0.72187  0.91824  0.50128  1.0000
  H   H4577     1.0  0.95892  0.65428  0.54015  1.0000
  H   H4578     1.0  0.78744  0.89012  0.53015  1.0000
  H   H4579     1.0  0.72024  0.96632  0.43717  1.0000
  H   H4580     1.0  0.80436  0.89723  0.52505  1.0000
  S   S1025     1.0  0.81679  0.96492  0.44049  1.0000
  N   N256      1.0  0.91657  0.89205  0.51341  1.0000
  C   C3822     1.0  0.98495  0.72202  0.48102  1.0000
  H   H4581     1.0  0.94476  0.70004  0.51060  1.0000
  C   C3823     1.0  0.79249  0.95231  0.56317  1.0000
  H   H4582     1.0  0.73704  0.97294  0.53055  1.0000
  S   S1026     1.0  0.86935  0.94504  0.43906  1.0000
  H   H4583     1.0  0.62817  0.96078  0.43888  1.0000
  Fe  Fe510     1.0  0.64968  0.98448  0.52946  1.0000
  C   C3824     1.0  0.78978  0.94243  0.42564  1.0000
  C   C3825     1.0  0.53847  0.98565  0.57523  1.0000
  S   S1027     1.0  0.96870  0.79319  0.55116  1.0000
  H   H4584     1.0  0.69109  0.96313  0.45222  1.0000
  C   C3826     1.0  0.99184  0.61910  0.57263  1.0000
  H   H4585     1.0  0.64420  0.97664  0.55671  1.0000
  H   H4586     1.0  0.79372  0.96040  0.54013  1.0000
  H   H4587     1.0  0.84718  0.97116  0.50870  1.0000
  H   H4588     1.0  0.67442  0.96081  0.50541  1.0000
  C   C3827     1.0  0.95652  0.71616  0.52759  1.0000
  C   C3828     1.0  0.73845  0.97624  0.53756  1.0000
  H   H4589     1.0  0.75545  0.95985  0.53108  1.0000
  C   C3829     1.0  0.86614  0.98288  0.41342  1.0000
  H   H4590     1.0  0.94212  0.91429  0.44275  1.0000
  H   H4591     1.0  0.95581  0.70144  0.46858  1.0000
  C   C3830     1.0  0.56819  0.98595  0.54637  1.0000
  H   H4592     1.0  0.98659  0.63915  0.46756  1.0000
  H   H4593     1.0  0.69462  0.96724  0.50886  1.0000
  S   S1028     1.0  0.96397  0.76027  0.55600  1.0000
  H   H4594     1.0  0.95495  0.79531  0.53456  1.0000
  H   H4595     1.0  0.85352  0.96884  0.41159  1.0000
  C   C3831     1.0  0.85921  0.99087  0.48889  1.0000
  C   C3832     1.0  0.94604  0.69280  0.49196  1.0000
  H   H4596     1.0  0.97238  0.80285  0.47274  1.0000
  C   C3833     1.0  0.96329  0.76313  0.43408  1.0000
  C   C3834     1.0  0.81165  0.98566  0.52919  1.0000
  H   H4597     1.0  0.96857  0.73178  0.53845  1.0000
  H   H4598     1.0  0.96043  0.90882  0.49244  1.0000
  H   H4599     1.0  0.94667  0.71450  0.50399  1.0000
  C   C3835     1.0  0.95278  0.88859  0.48333  1.0000
  C   C3836     1.0  0.96352  0.64525  0.54282  1.0000
  H   H4600     1.0  0.98210  0.78886  0.57128  1.0000
  C   C3837     1.0  0.70910  0.93910  0.43509  1.0000
  Fe  Fe511     1.0  0.76256  0.94117  0.43027  1.0000
  H   H4601     1.0  0.76750  0.97367  0.56112  1.0000
  C   C3838     1.0  0.61936  0.98322  0.39465  1.0000
  H   H4602     1.0  0.67311  0.96079  0.46724  1.0000
  C   C3839     1.0  0.97514  0.78702  0.49244  1.0000
  H   H4603     1.0  0.95382  0.85494  0.51349  1.0000
  C   C3840     1.0  0.79076  0.98048  0.47364  1.0000
  C   C3841     1.0  0.96511  0.76700  0.50216  1.0000
  C   C3842     1.0  0.95943  0.89339  0.48767  1.0000
  H   H4604     1.0  0.61313  0.98146  0.40291  1.0000
  C   C3843     1.0  0.62062  0.96566  0.57377  1.0000
  S   S1029     1.0  0.60864  0.97739  0.54539  1.0000
  C   C3844     1.0  0.97902  0.71966  0.50212  1.0000
  H   H4605     1.0  0.72185  0.96147  0.42398  1.0000
  H   H4606     1.0  0.71062  0.97354  0.40901  1.0000
  H   H4607     1.0  0.78909  0.97297  0.44960  1.0000
  Fe  Fe512     1.0  0.66837  0.97504  0.42615  1.0000
  H   H4608     1.0  0.95568  0.87957  0.48251  1.0000
  C   C3845     1.0  0.96135  0.63967  0.55463  1.0000
  H   H4609     1.0  0.68469  0.98751  0.50138  1.0000
  C   C3846     1.0  0.62142  0.97862  0.44111  1.0000
  C   C3847     1.0  0.75654  0.96837  0.39842  1.0000
  C   C3848     1.0  0.62928  0.96870  0.56385  1.0000
  H   H4610     1.0  0.95527  0.64440  0.56110  1.0000
  H   H4611     1.0  0.72968  0.98122  0.54160  1.0000
  H   H4612     1.0  0.81618  0.95480  0.57163  1.0000
  C   C3849     1.0  0.96082  0.82187  0.51931  1.0000
  C   C3850     1.0  0.73027  0.98477  0.42431  1.0000
  C   C3851     1.0  0.96025  0.75314  0.43320  1.0000
  Fe  Fe513     1.0  0.98085  0.69063  0.45334  1.0000
  H   H4613     1.0  0.96915  0.75814  0.47217  1.0000
  C   C3852     1.0  0.71377  0.94183  0.42301  1.0000
  C   C3853     1.0  0.79891  0.94832  0.42261  1.0000
  H   H4614     1.0  0.93771  0.74307  0.52418  1.0000
  H   H4615     1.0  0.59801  0.96374  0.58737  1.0000
  H   H4616     1.0  0.86565  0.98267  0.49042  1.0000
  C   C3854     1.0  0.80358  0.93312  0.57203  1.0000
  C   C3855     1.0  0.87606  0.96668  0.52208  1.0000
  H   H4617     1.0  0.97826  0.75894  0.45799  1.0000
  H   H4618     1.0  0.86756  0.95938  0.50232  1.0000
  H   H4619     1.0  0.96085  0.87597  0.44851  1.0000
  H   H4620     1.0  0.80484  0.92362  0.57449  1.0000
  C   C3856     1.0  0.96131  0.91391  0.45841  1.0000
  C   C3857     1.0  0.96240  0.70072  0.49112  1.0000
  C   C3858     1.0  0.95700  0.90005  0.44595  1.0000
  H   H4621     1.0  0.95502  0.89507  0.44095  1.0000
  S   S1030     1.0  0.66852  0.97892  0.40693  1.0000
  H   H4622     1.0  0.97335  0.64423  0.52552  1.0000
  C   C3859     1.0  0.96442  0.78738  0.50110  1.0000
  H   H4623     1.0  0.67775  0.99081  0.48929  1.0000
  H   H4624     1.0  0.77084  0.94798  0.56435  1.0000
  S   S1031     1.0  0.72891  0.93750  0.41735  1.0000
  N   N257      1.0  0.78276  0.95975  0.55750  1.0000
  H   H4625     1.0  0.65535  0.98511  0.45046  1.0000
  S   S1032     1.0  0.77804  0.94803  0.41852  1.0000
  H   H4626     1.0  0.98807  0.61599  0.51349  1.0000
  H   H4627     1.0  0.95646  0.77060  0.43638  1.0000
  C   C3860     1.0  0.98557  0.63072  0.57280  1.0000
  C   C3861     1.0  0.88194  0.97117  0.40130  1.0000
  H   H4628     1.0  0.99239  0.81016  0.52854  1.0000
  H   H4629     1.0  0.78060  0.97189  0.54106  1.0000
  H   H4630     1.0  0.66672  0.97553  0.49974  1.0000
  C   C3862     1.0  0.77303  0.95971  0.52187  1.0000
  H   H4631     1.0  0.98628  0.88974  0.43563  1.0000
  H   H4632     1.0  0.98491  0.75366  0.47051  1.0000
  C   C3863     1.0  0.85882  0.98189  0.51848  1.0000
  C   C3864     1.0  0.75359  0.98121  0.44557  1.0000
  C   C3865     1.0  0.70645  0.94888  0.41545  1.0000
  H   H4633     1.0  0.57017  0.97982  0.54071  1.0000
  H   H4634     1.0  0.98001  0.77581  0.56936  1.0000
  H   H4635     1.0  0.96531  0.81094  0.49121  1.0000
  H   H4636     1.0  0.74275  0.99187  0.51601  1.0000
  H   H4637     1.0  0.69348  0.98759  0.48694  1.0000
  H   H4638     1.0  0.97815  0.87948  0.46800  1.0000
  C   C3866     1.0  0.77517  0.96817  0.56484  1.0000
  C   C3867     1.0  0.65079  0.98121  0.46928  1.0000
  H   H4639     1.0  0.85203  0.95734  0.53890  1.0000
  H   H4640     1.0  0.97945  0.71436  0.51083  1.0000
  Fe  Fe514     1.0  0.98385  0.66724  0.54643  1.0000
  C   C3868     1.0  0.60048  0.98426  0.55710  1.0000
  C   C3869     1.0  0.96496  0.80454  0.53937  1.0000
  H   H4641     1.0  0.96148  0.75927  0.50623  1.0000
  H   H4642     1.0  0.74899  0.96970  0.40600  1.0000
  H   H4643     1.0  0.90172  0.98263  0.47906  1.0000
  Fe  Fe515     1.0  0.97297  0.84219  0.49846  1.0000
  H   H4644     1.0  0.53435  0.98860  0.56750  1.0000
  H   H4645     1.0  0.95103  0.81076  0.51699  1.0000
  S   S1033     1.0  0.64582  0.97579  0.49313  1.0000
  C   C3870     1.0  0.94514  0.73628  0.52654  1.0000
  H   H4646     1.0  0.62953  0.96678  0.55557  1.0000
  S   S1034     1.0  0.98037  0.85190  0.50682  1.0000
  N   N258      1.0  0.97392  0.88347  0.45106  1.0000
  S   S1035     1.0  0.95871  0.83219  0.50636  1.0000
  S   S1036     1.0  0.95906  0.70244  0.52401  1.0000
  H   H4647     1.0  0.96765  0.69737  0.48313  1.0000
  H   H4648     1.0  0.72023  0.98540  0.45969  1.0000
  N   N259      1.0  0.85874  0.96051  0.52017  1.0000
  H   H4649     1.0  0.98026  0.61346  0.55348  1.0000
  H   H4650     1.0  0.96540  0.70858  0.49101  1.0000
  Fe  Fe516     1.0  0.64039  0.98365  0.50907  1.0000
  N   N260      1.0  0.98726  0.62187  0.52894  1.0000
  S   S1037     1.0  0.97050  0.85679  0.48281  1.0000
  C   C3871     1.0  0.96900  0.81488  0.53669  1.0000
  Fe  Fe517     1.0  0.97497  0.68920  0.52900  1.0000
  C   C3872     1.0  0.99315  0.66455  0.49666  1.0000
  Fe  Fe518     1.0  0.97921  0.86598  0.49036  1.0000
  C   C3873     1.0  0.63750  0.97434  0.56445  1.0000
  C   C3874     1.0  0.96435  0.71865  0.53258  1.0000
  H   H4651     1.0  0.79911  0.95590  0.41538  1.0000
  H   H4652     1.0  0.75264  0.98008  0.54906  1.0000
  H   H4653     1.0  0.70998  0.95080  0.40608  1.0000
  Fe  Fe519     1.0  0.97203  0.77574  0.54642  1.0000
  H   H4654     1.0  0.67365  0.97296  0.51145  1.0000
  H   H4655     1.0  0.97987  0.75823  0.49078  1.0000
  H   H4656     1.0  0.67017  0.96476  0.48647  1.0000
  C   C3875     1.0  0.95844  0.80310  0.53229  1.0000
  C   C3876     1.0  0.77519  0.95293  0.55582  1.0000
  C   C3877     1.0  0.72044  0.98930  0.50470  1.0000
  H   H4657     1.0  0.96928  0.66108  0.48974  1.0000
  S   S1038     1.0  0.97907  0.65408  0.56305  1.0000
  C   C3878     1.0  0.95619  0.81185  0.52239  1.0000
  C   C3879     1.0  0.97794  0.73367  0.47933  1.0000
  C   C3880     1.0  0.95310  0.73889  0.53125  1.0000
  S   S1039     1.0  0.99051  0.83298  0.48964  1.0000
  H   H4658     1.0  0.98749  0.60388  0.53834  1.0000
  C   C3881     1.0  0.97830  0.62775  0.53787  1.0000
  C   C3882     1.0  0.80059  0.95751  0.56524  1.0000
  C   C3883     1.0  0.96632  0.74107  0.46464  1.0000
  H   H4659     1.0  0.97062  0.83124  0.52424  1.0000
  H   H4660     1.0  0.86182  0.94668  0.51097  1.0000
  H   H4661     1.0  0.76803  0.95866  0.55144  1.0000
  Fe  Fe520     1.0  0.96546  0.75747  0.53807  1.0000
  S   S1040     1.0  0.97155  0.67891  0.46864  1.0000
  H   H4662     1.0  0.98130  0.65290  0.50479  1.0000
  C   C3884     1.0  0.62002  0.96815  0.58472  1.0000
  C   C3885     1.0  0.84687  0.96522  0.51753  1.0000
  C   C3886     1.0  0.78609  0.97182  0.48242  1.0000
  H   H4663     1.0  0.84080  0.97009  0.52422  1.0000
  C   C3887     1.0  0.62844  0.97407  0.58497  1.0000
  H   H4664     1.0  0.79997  0.96688  0.56257  1.0000
  Fe  Fe521     1.0  0.97833  0.71378  0.43532  1.0000
  H   H4665     1.0  0.85299  0.94545  0.53242  1.0000
  S   S1041     1.0  0.97864  0.77545  0.43480  1.0000
  H   H4666     1.0  0.76739  0.99145  0.48632  1.0000
  H   H4667     1.0  0.98770  0.74347  0.44971  1.0000
  C   C3888     1.0  0.97443  0.80757  0.49265  1.0000
  C   C3889     1.0  0.58532  0.98423  0.57519  1.0000
  H   H4668     1.0  0.74109  0.96856  0.54457  1.0000
  C   C3890     1.0  0.63139  0.96292  0.45458  1.0000
  H   H4669     1.0  0.99108  0.70639  0.49333  1.0000
  C   C3891     1.0  0.99293  0.79384  0.48926  1.0000
  C   C3892     1.0  0.74854  0.98761  0.54279  1.0000
  H   H4670     1.0  0.75258  0.98939  0.49297  1.0000
  C   C3893     1.0  0.71578  0.96699  0.43013  1.0000
  C   C3894     1.0  0.70516  0.97882  0.41559  1.0000
  H   H4671     1.0  0.98626  0.87442  0.43806  1.0000
  C   C3895     1.0  0.97667  0.66467  0.48910  1.0000
  H   H4672     1.0  0.63591  0.95381  0.45699  1.0000
  H   H4673     1.0  0.85542  0.98552  0.39504  1.0000
  H   H4674     1.0  0.76279  0.98017  0.44125  1.0000
  H   H4675     1.0  0.90803  0.98135  0.49823  1.0000
  H   H4676     1.0  0.84996  0.98515  0.51715  1.0000
  C   C3896     1.0  0.98055  0.88330  0.43881  1.0000
  H   H4677     1.0  0.78569  0.97149  0.49150  1.0000
  H   H4678     1.0  0.96500  0.74621  0.48907  1.0000
  C   C3897     1.0  0.86980  0.97790  0.42421  1.0000
  H   H4679     1.0  0.53115  0.98589  0.58320  1.0000
  H   H4680     1.0  0.97169  0.86558  0.45549  1.0000
  C   C3898     1.0  0.98696  0.78011  0.56942  1.0000
  H   H4681     1.0  0.97404  0.80549  0.50225  1.0000
  H   H4682     1.0  0.79265  0.97259  0.54619  1.0000
  C   C3899     1.0  0.77916  0.97806  0.51598  1.0000
  C   C3900     1.0  0.59214  0.97888  0.56585  1.0000
  H   H4683     1.0  0.98707  0.79402  0.46976  1.0000
  C   C3901     1.0  0.98735  0.73704  0.45820  1.0000
  C   C3902     1.0  0.79160  0.98077  0.46192  1.0000
  S   S1042     1.0  0.98788  0.73598  0.56907  1.0000
  C   C3903     1.0  0.63020  0.97078  0.46149  1.0000
  H   H4684     1.0  0.98870  0.64726  0.47666  1.0000
  H   H4685     1.0  0.89065  0.97265  0.52335  1.0000
  C   C3904     1.0  0.65130  0.98873  0.45818  1.0000
  H   H4686     1.0  0.99013  0.71800  0.47377  1.0000
  H   H4687     1.0  0.98863  0.77529  0.48223  1.0000
  S   S1043     1.0  0.99057  0.76549  0.54564  1.0000
  S   S1044     1.0  0.99289  0.68923  0.51719  1.0000
  C   C3905     1.0  0.90106  0.98614  0.45684  1.0000
  C   C3906     1.0  0.68539  0.98514  0.49293  1.0000
  H   H4688     1.0  0.97555  0.90007  0.46256  1.0000
  C   C3907     1.0  0.93421  0.98564  0.48031  1.0000
  C   C3908     1.0  0.99215  0.65434  0.42756  1.0000
  C   C3909     1.0  0.98127  0.80089  0.47458  1.0000
  H   H4689     1.0  0.78589  0.98301  0.51158  1.0000
  H   H4690     1.0  0.67081  0.99142  0.55335  1.0000
  H   H4691     1.0  0.97908  0.76872  0.59134  1.0000
  H   H4692     1.0  0.55758  0.97945  0.58453  1.0000
  C   C3910     1.0  0.86323  0.96572  0.40916  1.0000
  H   H4693     1.0  0.72915  0.98082  0.43356  1.0000
  H   H4694     1.0  0.98915  0.88503  0.45586  1.0000
  H   H4695     1.0  0.99372  0.79598  0.57714  1.0000
  C   C3911     1.0  0.81143  0.93849  0.57380  1.0000
  H   H4696     1.0  0.97461  0.88553  0.43265  1.0000
  C   C3912     1.0  0.89386  0.98925  0.47660  1.0000
  H   H4697     1.0  0.62436  0.98821  0.46389  1.0000
  C   C3913     1.0  0.55856  0.98589  0.55597  1.0000
  H   H4698     1.0  0.79557  0.98735  0.45515  1.0000
  C   C3914     1.0  0.99436  0.66563  0.42497  1.0000
  C   C3915     1.0  0.91453  0.98598  0.49228  1.0000
  N   N261      1.0  0.99418  0.77296  0.57806  1.0000
  H   H4699     1.0  0.75811  0.97717  0.39349  1.0000
  S   S1045     1.0  0.63283  0.98598  0.40805  1.0000
  C   C3916     1.0  0.71881  0.98654  0.48630  1.0000
  H   H4700     1.0  0.79407  0.98681  0.47585  1.0000
  H   H4701     1.0  0.73985  0.99165  0.54779  1.0000
  H   H4702     1.0  0.99114  0.68580  0.47186  1.0000
  H   H4703     1.0  0.87000  0.98036  0.44103  1.0000
  H   H4704     1.0  0.99279  0.66368  0.45942  1.0000
  H   H4705     1.0  0.99004  0.61214  0.58021  1.0000
  H   H4706     1.0  0.99255  0.83047  0.44183  1.0000
  H   H4707     1.0  0.86509  0.96018  0.40265  1.0000
  H   H4708     1.0  0.76087  0.98379  0.48025  1.0000
  H   H4709     1.0  0.87650  0.98906  0.46356  1.0000
  H   H4710     1.0  0.90218  0.99026  0.44730  1.0000
  H   H4711     1.0  0.70842  0.98621  0.43922  1.0000
  H   H4712     1.0  0.73320  0.95427  0.39490  1.0000
  C   C3917     1.0  0.86722  0.98442  0.43282  1.0000
  C   C3918     1.0  0.72451  0.99011  0.40570  1.0000
  H   H4713     1.0  0.82504  0.98781  0.49563  1.0000
  C   C3919     1.0  0.55189  0.98839  0.58481  1.0000
  C   C3920     1.0  0.70409  0.98626  0.43228  1.0000
  H   H4714     1.0  0.74683  0.94975  0.40611  1.0000
  H   H4715     1.0  0.88668  0.97844  0.39841  1.0000
  H   H4716     1.0  0.75269  0.94399  0.39298  1.0000
  C   C3921     1.0  0.72239  0.98446  0.41778  1.0000
  C   C3922     1.0  0.86453  0.99033  0.51861  1.0000
  H   H4717     1.0  0.99494  0.72054  0.53009  1.0000
  H   H4718     1.0  0.99246  0.78151  0.56033  1.0000
  H   H4719     1.0  0.88449  0.96633  0.39409  1.0000
  H   H4720     1.0  0.82477  0.99098  0.42592  1.0000
  C   C3923     1.0  0.73950  0.99054  0.41915  1.0000
  H   H4721     1.0  0.74497  0.99306  0.47139  1.0000
  C   C3924     1.0  0.86517  0.98248  0.39340  1.0000
  H   H4722     1.0  0.71415  0.98884  0.47934  1.0000
  C   C3925     1.0  0.74678  0.99238  0.44668  1.0000
  C   C3926     1.0  0.71438  0.99221  0.49572  1.0000
  H   H4723     1.0  0.71887  0.99062  0.40006  1.0000
  C   C3927     1.0  0.75897  0.99135  0.48450  1.0000
  H   H4724     1.0  0.99592  0.80487  0.51030  1.0000
  H   H4725     1.0  0.76657  0.99299  0.52106  1.0000
  H   H4726     1.0  0.60834  0.94999  0.59107  1.0000
  S   S1046     1.0  0.96575  0.55693  0.77224  1.0000
  C   C3928     1.0  0.55430  0.95897  0.73630  1.0000
  S   S1047     1.0  0.60159  0.94954  0.69855  1.0000
  H   H4727     1.0  0.51751  0.97526  0.68921  1.0000
  H   H4728     1.0  0.55180  0.96874  0.73469  1.0000
  H   H4729     1.0  0.57102  0.95795  0.65010  1.0000
  Fe  Fe522     1.0  0.54967  0.97812  0.61549  1.0000
  H   H4730     1.0  0.59526  0.95583  0.66088  1.0000
  H   H4731     1.0  0.54811  0.95371  0.76604  1.0000
  S   S1048     1.0  0.58765  0.95574  0.62779  1.0000
  H   H4732     1.0  0.93611  0.51308  0.78897  1.0000
  C   C3929     1.0  0.58812  0.95848  0.74205  1.0000
  S   S1049     1.0  0.57269  0.99090  0.72366  1.0000
  Fe  Fe523     1.0  0.57557  0.95398  0.78516  1.0000
  H   H4733     1.0  0.59146  0.98579  0.76970  1.0000
  C   C3930     1.0  0.58261  0.88572  0.76857  1.0000
  H   H4734     1.0  0.96747  0.53191  0.74598  1.0000
  H   H4735     1.0  0.62003  0.95242  0.74904  1.0000
  H   H4736     1.0  0.62442  0.89726  0.74958  1.0000
  S   S1050     1.0  0.57921  0.90811  0.73515  1.0000
  C   C3931     1.0  0.59377  0.96108  0.70551  1.0000
  H   H4737     1.0  0.55188  0.91879  0.76584  1.0000
  C   C3932     1.0  0.54278  0.93836  0.65862  1.0000
  C   C3933     1.0  0.53275  0.93531  0.69325  1.0000
  H   H4738     1.0  0.51148  0.91176  0.73065  1.0000
  H   H4739     1.0  0.60799  0.90932  0.76916  1.0000
  C   C3934     1.0  0.56812  0.98333  0.67192  1.0000
  S   S1051     1.0  0.56416  0.92178  0.70788  1.0000
  C   C3935     1.0  0.93542  0.55430  0.78469  1.0000
  H   H4740     1.0  0.53238  0.98500  0.65851  1.0000
  H   H4741     1.0  0.97186  0.53567  0.76320  1.0000
  Fe  Fe524     1.0  0.97737  0.52673  0.69544  1.0000
  H   H4742     1.0  0.51536  0.93892  0.73354  1.0000
  C   C3936     1.0  0.51608  0.91656  0.74470  1.0000
  H   H4743     1.0  0.60056  0.96294  0.67507  1.0000
  Fe  Fe525     1.0  0.57262  0.97060  0.62358  1.0000
  C   C3937     1.0  0.61483  0.90106  0.77039  1.0000
  C   C3938     1.0  0.50652  0.94764  0.64386  1.0000
  S   S1052     1.0  0.60520  0.93288  0.75610  1.0000
  S   S1053     1.0  0.96513  0.52077  0.71238  1.0000
  C   C3939     1.0  0.51681  0.98924  0.63885  1.0000
  H   H4744     1.0  0.52384  0.98646  0.69001  1.0000
  C   C3940     1.0  0.52438  0.94327  0.65181  1.0000
  C   C3941     1.0  0.50271  0.98285  0.60850  1.0000
  S   S1054     1.0  0.95453  0.54737  0.72852  1.0000
  C   C3942     1.0  0.53998  0.93979  0.69722  1.0000
  C   C3943     1.0  0.96888  0.49686  0.78463  1.0000
  Fe  Fe526     1.0  0.97518  0.54093  0.78313  1.0000
  H   H4745     1.0  0.50435  0.98213  0.71330  1.0000
  Fe  Fe527     1.0  0.57846  0.91916  0.71715  1.0000
  C   C3944     1.0  0.58475  0.94567  0.64117  1.0000
  S   S1055     1.0  0.97910  0.54227  0.70082  1.0000
  H   H4746     1.0  0.98672  0.54407  0.73428  1.0000
  C   C3945     1.0  0.53073  0.93883  0.66090  1.0000
  C   C3946     1.0  0.60085  0.92635  0.73824  1.0000
  H   H4747     1.0  0.56712  0.93755  0.74256  1.0000
  H   H4748     1.0  0.56245  0.98591  0.68957  1.0000
  C   C3947     1.0  0.60211  0.98028  0.66392  1.0000
  C   C3948     1.0  0.52054  0.93868  0.69682  1.0000
  C   C3949     1.0  0.59779  0.92622  0.75025  1.0000
  C   C3950     1.0  0.58902  0.92048  0.75762  1.0000
  C   C3951     1.0  0.58338  0.91483  0.75298  1.0000
  C   C3952     1.0  0.58647  0.91491  0.74099  1.0000
  H   H4749     1.0  0.58042  0.94796  0.73654  1.0000
  H   H4750     1.0  0.62254  0.97280  0.67048  1.0000
  H   H4751     1.0  0.58675  0.92012  0.76695  1.0000
  H   H4752     1.0  0.57655  0.91049  0.75866  1.0000
  H   H4753     1.0  0.56351  0.93671  0.75806  1.0000
  H   H4754     1.0  0.60543  0.97050  0.78061  1.0000
  S   S1056     1.0  0.57434  0.98908  0.62064  1.0000
  C   C3953     1.0  0.52330  0.93440  0.73724  1.0000
  H   H4755     1.0  0.62231  0.96176  0.60769  1.0000
  S   S1057     1.0  0.59522  0.95035  0.78091  1.0000
  H   H4756     1.0  0.61205  0.96754  0.68316  1.0000
  C   C3954     1.0  0.54549  0.97926  0.67511  1.0000
  C   C3955     1.0  0.57522  0.97145  0.75444  1.0000
  H   H4757     1.0  0.53546  0.91783  0.75156  1.0000
  C   C3956     1.0  0.56512  0.98066  0.66289  1.0000
  H   H4758     1.0  0.59448  0.91687  0.65337  1.0000
  C   C3957     1.0  0.96266  0.55389  0.76029  1.0000
  C   C3958     1.0  0.95597  0.56287  0.75325  1.0000
  C   C3959     1.0  0.95345  0.56071  0.74360  1.0000
  C   C3960     1.0  0.95777  0.54963  0.74080  1.0000
  C   C3961     1.0  0.96440  0.54058  0.74790  1.0000
  C   C3962     1.0  0.96680  0.54269  0.75770  1.0000
  H   H4759     1.0  0.95272  0.57152  0.75524  1.0000
  H   H4760     1.0  0.94824  0.56769  0.73818  1.0000
  H   H4761     1.0  0.98309  0.56078  0.74251  1.0000
  S   S1058     1.0  0.57883  0.91847  0.67554  1.0000
  C   C3963     1.0  0.52605  0.97749  0.68826  1.0000
  H   H4762     1.0  0.54468  0.91913  0.73725  1.0000
  H   H4763     1.0  0.55257  0.93722  0.75049  1.0000
  S   S1059     1.0  0.59277  0.92017  0.70075  1.0000
  H   H4764     1.0  0.57727  0.96096  0.70232  1.0000
  C   C3964     1.0  0.60009  0.89068  0.77059  1.0000
  C   C3965     1.0  0.57862  0.95428  0.74190  1.0000
  H   H4765     1.0  0.53665  0.92904  0.68763  1.0000
  C   C3966     1.0  0.59699  0.98332  0.64495  1.0000
  H   H4766     1.0  0.50039  0.93102  0.66149  1.0000
  S   S1060     1.0  0.55378  0.97386  0.63325  1.0000
  Fe  Fe528     1.0  0.51122  0.94180  0.77827  1.0000
  C   C3967     1.0  0.58218  0.89110  0.78635  1.0000
  C   C3968     1.0  0.58096  0.92911  0.66243  1.0000
  C   C3969     1.0  0.56713  0.95827  0.74842  1.0000
  H   H4767     1.0  0.60760  0.93081  0.73249  1.0000
  H   H4768     1.0  0.59805  0.93151  0.63474  1.0000
  H   H4769     1.0  0.54699  0.95574  0.73534  1.0000
  C   C3970     1.0  0.49639  0.90735  0.75881  1.0000
  H   H4770     1.0  0.94342  0.55004  0.77889  1.0000
  H   H4771     1.0  0.51863  0.98454  0.66885  1.0000
  S   S1061     1.0  0.97455  0.52589  0.67828  1.0000
  C   C3971     1.0  0.51219  0.91661  0.75687  1.0000
  C   C3972     1.0  0.54883  0.94239  0.64727  1.0000
  C   C3973     1.0  0.59422  0.88699  0.76412  1.0000
  C   C3974     1.0  0.59997  0.96880  0.66664  1.0000
  N   N262      1.0  0.52626  0.92163  0.73755  1.0000
  S   S1062     1.0  0.56848  0.97296  0.60618  1.0000
  H   H4772     1.0  0.61515  0.89837  0.77983  1.0000
  C   C3975     1.0  0.50948  0.91189  0.73986  1.0000
  C   C3976     1.0  0.62021  0.88042  0.77017  1.0000
  C   C3977     1.0  0.54925  0.92109  0.77434  1.0000
  S   S1063     1.0  0.99181  0.49929  0.77719  1.0000
  H   H4773     1.0  0.59736  0.98005  0.71951  1.0000
  S   S1064     1.0  0.49682  0.94736  0.76861  1.0000
  C   C3978     1.0  0.61797  0.96193  0.74791  1.0000
  C   C3979     1.0  0.50966  0.98196  0.63921  1.0000
  C   C3980     1.0  0.59515  0.92075  0.73361  1.0000
  C   C3981     1.0  0.56024  0.94082  0.74985  1.0000
  H   H4774     1.0  0.59757  0.92088  0.72430  1.0000
  H   H4775     1.0  0.49954  0.91240  0.77301  1.0000
  H   H4776     1.0  0.92752  0.55369  0.78219  1.0000
  H   H4777     1.0  0.54939  0.93739  0.69415  1.0000
  C   C3982     1.0  0.58937  0.92583  0.65270  1.0000
  S   S1065     1.0  0.99380  0.51496  0.70058  1.0000
  C   C3983     1.0  0.61200  0.98635  0.74506  1.0000
  Fe  Fe529     1.0  0.57798  0.92498  0.69133  1.0000
  C   C3984     1.0  0.59139  0.93412  0.64217  1.0000
  H   H4778     1.0  0.59683  0.95584  0.60223  1.0000
  H   H4779     1.0  0.52678  0.95123  0.63288  1.0000
  Fe  Fe530     1.0  0.56874  0.99179  0.60383  1.0000
  H   H4780     1.0  0.60890  0.96365  0.70951  1.0000
  H   H4781     1.0  0.52533  0.98875  0.63279  1.0000
  H   H4782     1.0  0.50698  0.95690  0.63954  1.0000
  H   H4783     1.0  0.51098  0.94204  0.63731  1.0000
  C   C3985     1.0  0.52289  0.98001  0.60999  1.0000
  S   S1066     1.0  0.50754  0.95876  0.78395  1.0000
  H   H4784     1.0  0.59832  0.88530  0.75546  1.0000
  C   C3986     1.0  0.53638  0.98167  0.71807  1.0000
  H   H4785     1.0  0.53065  0.93862  0.73178  1.0000
  C   C3987     1.0  0.61731  0.96906  0.73683  1.0000
  Fe  Fe531     1.0  0.98169  0.51009  0.71788  1.0000
  H   H4786     1.0  0.99339  0.53692  0.67623  1.0000
  Fe  Fe532     1.0  0.56193  0.94096  0.70670  1.0000
  C   C3988     1.0  0.52769  0.98565  0.66767  1.0000
  H   H4787     1.0  0.61641  0.88747  0.74897  1.0000
  S   S1067     1.0  0.57494  0.93811  0.71743  1.0000
  C   C3989     1.0  0.61497  0.97556  0.67757  1.0000
  H   H4788     1.0  0.61831  0.87784  0.77994  1.0000
  C   C3990     1.0  0.53079  0.94754  0.64037  1.0000
  H   H4789     1.0  0.53201  0.91069  0.72480  1.0000
  H   H4790     1.0  0.57128  0.98053  0.65451  1.0000
  H   H4791     1.0  0.99180  0.76737  0.59681  1.0000
  C   C3991     1.0  0.60022  0.98754  0.65290  1.0000
  H   H4792     1.0  0.99417  0.49605  0.68830  1.0000
  C   C3992     1.0  0.59545  0.97186  0.64773  1.0000
  H   H4793     1.0  0.62074  0.97125  0.77711  1.0000
  C   C3993     1.0  0.50092  0.98099  0.73616  1.0000
  H   H4794     1.0  0.61825  0.97887  0.68342  1.0000
  Fe  Fe533     1.0  0.96858  0.53504  0.71846  1.0000
  C   C3994     1.0  0.59499  0.98665  0.68226  1.0000
  S   S1068     1.0  0.98417  0.52372  0.72554  1.0000
  H   H4795     1.0  0.59372  0.97039  0.74831  1.0000
  C   C3995     1.0  0.98601  0.52960  0.66651  1.0000
  C   C3996     1.0  0.57659  0.88782  0.77964  1.0000
  H   H4796     1.0  0.61894  0.96511  0.72938  1.0000
  H   H4797     1.0  0.51889  0.95715  0.71405  1.0000
  Fe  Fe534     1.0  0.98651  0.51515  0.78505  1.0000
  N   N263      1.0  0.55714  0.95385  0.74800  1.0000
  C   C3997     1.0  0.51562  0.94686  0.70402  1.0000
  C   C3998     1.0  0.53500  0.94747  0.70493  1.0000
  N   N264      1.0  0.61118  0.96482  0.59552  1.0000
  H   H4798     1.0  0.52257  0.92487  0.72040  1.0000
  C   C3999     1.0  0.61271  0.97936  0.75646  1.0000
  H   H4799     1.0  0.62341  0.94927  0.60196  1.0000
  S   S1069     1.0  0.57460  0.94046  0.77645  1.0000
  S   S1070     1.0  0.53603  0.97037  0.61303  1.0000
  C   C4000     1.0  0.50666  0.98558  0.76495  1.0000
  C   C4001     1.0  0.61155  0.97655  0.77778  1.0000
  H   H4800     1.0  0.53918  0.95306  0.75691  1.0000
  H   H4801     1.0  0.97939  0.50079  0.67167  1.0000
  S   S1071     1.0  0.54393  0.95237  0.71068  1.0000
  H   H4802     1.0  0.52207  0.97386  0.72040  1.0000
  N   N265      1.0  0.53383  0.97691  0.67647  1.0000
  C   C4002     1.0  0.57430  0.94073  0.66150  1.0000
  C   C4003     1.0  0.61571  0.89488  0.75299  1.0000
  H   H4803     1.0  0.51651  0.92034  0.76110  1.0000
  H   H4804     1.0  0.59936  0.98175  0.59256  1.0000
  C   C4004     1.0  0.53471  0.93096  0.78883  1.0000
  H   H4805     1.0  0.98854  0.55149  0.75486  1.0000
  Fe  Fe535     1.0  0.58823  0.93941  0.70043  1.0000
  C   C4005     1.0  0.60329  0.95831  0.59391  1.0000
  H   H4806     1.0  0.53024  0.97124  0.69529  1.0000
  H   H4807     1.0  0.51048  0.97647  0.76471  1.0000
  S   S1072     1.0  0.57474  0.94442  0.68957  1.0000
  H   H4808     1.0  0.52645  0.93552  0.66982  1.0000
  C   C4006     1.0  0.51347  0.97534  0.61038  1.0000
  H   H4809     1.0  0.56761  0.94325  0.66892  1.0000
  H   H4810     1.0  0.62345  0.90333  0.76568  1.0000
  C   C4007     1.0  0.52281  0.95113  0.70818  1.0000
  S   S1073     1.0  0.52856  0.93340  0.76829  1.0000
  C   C4008     1.0  0.54634  0.95700  0.75704  1.0000
  H   H4811     1.0  0.54263  0.96664  0.75556  1.0000
  C   C4009     1.0  0.53670  0.91596  0.74279  1.0000
  H   H4812     1.0  0.59126  0.97875  0.68622  1.0000
  H   H4813     1.0  0.54155  0.95841  0.67970  1.0000
  C   C4010     1.0  0.55401  0.97861  0.66445  1.0000
  H   H4814     1.0  0.54294  0.97398  0.71587  1.0000
  C   C4011     1.0  0.61574  0.96694  0.75761  1.0000
  C   C4012     1.0  0.59755  0.99162  0.76832  1.0000
  S   S1074     1.0  0.51143  0.93235  0.69281  1.0000
  H   H4815     1.0  0.97030  0.49625  0.70968  1.0000
  H   H4816     1.0  0.56752  0.88706  0.78297  1.0000
  H   H4817     1.0  0.96628  0.50615  0.78422  1.0000
  C   C4013     1.0  0.58166  0.96493  0.70624  1.0000
  H   H4818     1.0  0.50469  0.97257  0.73320  1.0000
  C   C4014     1.0  0.57614  0.94901  0.65082  1.0000
  H   H4819     1.0  0.98074  0.52293  0.65461  1.0000
  H   H4820     1.0  0.55206  0.97677  0.65712  1.0000
  C   C4015     1.0  0.58640  0.96706  0.74828  1.0000
  H   H4821     1.0  0.59293  0.96862  0.64156  1.0000
  C   C4016     1.0  0.55709  0.91720  0.78182  1.0000
  H   H4822     1.0  0.61085  0.95396  0.61300  1.0000
  H   H4823     1.0  0.60873  0.98041  0.60207  1.0000
  H   H4824     1.0  0.61367  0.98680  0.72681  1.0000
  H   H4825     1.0  0.56198  0.95672  0.72912  1.0000
  C   C4017     1.0  0.56568  0.96712  0.75462  1.0000
  H   H4826     1.0  0.59685  0.95507  0.73721  1.0000
  C   C4018     1.0  0.59679  0.96466  0.65860  1.0000
  C   C4019     1.0  0.50977  0.93136  0.65999  1.0000
  H   H4827     1.0  0.52197  0.98844  0.76838  1.0000
  C   C4020     1.0  0.52970  0.92014  0.72521  1.0000
  H   H4828     1.0  0.99443  0.56425  0.74672  1.0000
  C   C4021     1.0  0.49977  0.90740  0.74687  1.0000
  Fe  Fe536     1.0  0.59426  0.93573  0.77369  1.0000
  C   C4022     1.0  0.57522  0.97418  0.71175  1.0000
  H   H4829     1.0  0.53933  0.96441  0.66514  1.0000
  H   H4830     1.0  0.93553  0.56381  0.78248  1.0000
  H   H4831     1.0  0.60962  0.98114  0.78511  1.0000
  H   H4832     1.0  0.54753  0.93465  0.66564  1.0000
  H   H4833     1.0  0.53754  0.92377  0.72015  1.0000
  H   H4834     1.0  0.51441  0.96592  0.61231  1.0000
  C   C4023     1.0  0.53545  0.96497  0.67448  1.0000
  H   H4835     1.0  0.55731  0.97081  0.75975  1.0000
  C   C4024     1.0  0.59952  0.96662  0.71012  1.0000
  N   N266      1.0  0.61248  0.89182  0.76606  1.0000
  C   C4025     1.0  0.60368  0.97555  0.59957  1.0000
  H   H4836     1.0  0.61891  0.87324  0.76697  1.0000
  H   H4837     1.0  0.53877  0.90624  0.74383  1.0000
  C   C4026     1.0  0.54882  0.98200  0.68417  1.0000
  N   N267      1.0  0.60996  0.98500  0.76655  1.0000
  H   H4838     1.0  0.52703  0.96206  0.67697  1.0000
  H   H4839     1.0  0.62967  0.88078  0.76703  1.0000
  H   H4840     1.0  0.50679  0.96018  0.65918  1.0000
  H   H4841     1.0  0.56589  0.97709  0.71226  1.0000
  C   C4027     1.0  0.53812  0.92805  0.77782  1.0000
  H   H4842     1.0  0.51200  0.92801  0.66878  1.0000
  H   H4843     1.0  0.60915  0.90252  0.74943  1.0000
  H   H4844     1.0  0.54294  0.98278  0.69256  1.0000
  H   H4845     1.0  0.50626  0.94978  0.70661  1.0000
  H   H4846     1.0  0.52141  0.93623  0.74614  1.0000
  C   C4028     1.0  0.56004  0.98388  0.68257  1.0000
  C   C4029     1.0  0.58086  0.97950  0.71665  1.0000
  N   N268      1.0  0.51167  0.94341  0.65444  1.0000
  C   C4030     1.0  0.52441  0.98170  0.72068  1.0000
  C   C4031     1.0  0.99436  0.53464  0.66796  1.0000
  H   H4847     1.0  0.57820  0.88335  0.76326  1.0000
  H   H4848     1.0  0.50470  0.98050  0.74364  1.0000
  N   N269      1.0  0.60541  0.98450  0.67260  1.0000
  H   H4849     1.0  0.59760  0.89488  0.78768  1.0000
  H   H4850     1.0  0.61636  0.96087  0.76592  1.0000
  H   H4851     1.0  0.51520  0.92503  0.65439  1.0000
  H   H4852     1.0  0.55821  0.94182  0.64547  1.0000
  C   C4032     1.0  0.50251  0.91206  0.76379  1.0000
  C   C4033     1.0  0.59302  0.97583  0.71576  1.0000
  H   H4853     1.0  0.57395  0.97819  0.75918  1.0000
  H   H4854     1.0  0.59661  0.97343  0.60741  1.0000
  C   C4034     1.0  0.98724  0.52675  0.65577  1.0000
  C   C4035     1.0  0.61722  0.95715  0.60492  1.0000
  H   H4855     1.0  0.54758  0.95019  0.62937  1.0000
  H   H4856     1.0  0.99564  0.49520  0.74362  1.0000
  S   S1075     1.0  0.56489  0.97251  0.78362  1.0000
  H   H4857     1.0  0.93496  0.53402  0.78322  1.0000
  C   C4036     1.0  0.56645  0.99167  0.79005  1.0000
  S   S1076     1.0  0.96797  0.52476  0.79081  1.0000
  H   H4858     1.0  0.56584  0.91217  0.77900  1.0000
  C   C4037     1.0  0.61430  0.98125  0.73541  1.0000
  C   C4038     1.0  0.54283  0.94703  0.63820  1.0000
  C   C4039     1.0  0.50509  0.95121  0.66273  1.0000
  H   H4859     1.0  0.59552  0.98903  0.63663  1.0000
  H   H4860     1.0  0.59713  0.98918  0.68941  1.0000
  H   H4861     1.0  0.57662  0.98523  0.67053  1.0000
  H   H4862     1.0  0.50761  0.94790  0.67137  1.0000
  C   C4040     1.0  0.53994  0.99153  0.71820  1.0000
  N   N270      1.0  0.50303  0.99139  0.72664  1.0000
  H   H4863     1.0  0.98305  0.78164  0.59189  1.0000
  C   C4041     1.0  0.59378  0.89241  0.78199  1.0000
  H   H4864     1.0  0.54919  0.99150  0.71635  1.0000
  C   C4042     1.0  0.51325  0.99241  0.76676  1.0000
  H   H4865     1.0  0.54512  0.98762  0.59315  1.0000
  Fe  Fe537     1.0  0.99450  0.52992  0.70753  1.0000
  C   C4043     1.0  0.49967  0.99048  0.71620  1.0000
  H   H4866     1.0  0.51268  0.97588  0.63340  1.0000
  C   C4044     1.0  0.51564  0.99167  0.72359  1.0000
  C   C4045     1.0  0.99512  0.54025  0.73732  1.0000
  H   H4867     1.0  0.62842  0.97643  0.59291  1.0000
  H   H4868     1.0  0.99472  0.56170  0.72300  1.0000
  S   S1077     1.0  0.99332  0.53141  0.77589  1.0000
  C   C4046     1.0  0.99127  0.55683  0.74592  1.0000
  H   H4869     1.0  0.62711  0.98881  0.76232  1.0000
  H   H4870     1.0  0.49701  0.94748  0.64604  1.0000
  C   C4047     1.0  0.49850  0.98274  0.64671  1.0000
  H   H4871     1.0  0.99320  0.53412  0.74598  1.0000
  Fe  Fe538     1.0  0.55500  0.99275  0.62891  1.0000
  C   C4048     1.0  0.57072  0.97964  0.79052  1.0000
  C   C4049     1.0  0.52159  0.99220  0.60751  1.0000
  S   S1078     1.0  0.59506  0.92222  0.79052  1.0000
  H   H4872     1.0  0.99476  0.51928  0.84038  1.0000
  S   S1079     1.0  0.58953  0.79615  0.98075  1.0000
  S   S1080     1.0  0.58357  0.61561  0.96136  1.0000
  Fe  Fe539     1.0  0.55241  0.95121  0.86338  1.0000
  S   S1081     1.0  0.84423  0.52670  0.92980  1.0000
  C   C4050     1.0  0.50126  0.81462  0.99033  1.0000
  C   C4051     1.0  0.77443  0.49756  0.97910  1.0000
  S   S1082     1.0  0.50355  0.66241  0.97194  1.0000
  H   H4873     1.0  0.52316  0.96397  0.82715  1.0000
  C   C4052     1.0  0.52209  0.59540  0.98784  1.0000
  H   H4874     1.0  0.50210  0.89777  0.96211  1.0000
  H   H4875     1.0  0.55173  0.66089  0.95676  1.0000
  C   C4053     1.0  0.52267  0.93583  0.82858  1.0000
  Fe  Fe540     1.0  0.60486  0.69618  0.94126  1.0000
  S   S1083     1.0  0.58807  0.70425  0.93505  1.0000
  S   S1084     1.0  0.61916  0.70587  0.93736  1.0000
  Fe  Fe541     1.0  0.59720  0.67340  0.95479  1.0000
  S   S1085     1.0  0.57973  0.67954  0.94986  1.0000
  S   S1086     1.0  0.60093  0.65689  0.96831  1.0000
  Fe  Fe542     1.0  0.59013  0.68630  0.93199  1.0000
  S   S1087     1.0  0.58799  0.68302  0.91556  1.0000
  Fe  Fe543     1.0  0.57951  0.69672  0.95349  1.0000
  S   S1088     1.0  0.56400  0.70635  0.96499  1.0000
  S   S1089     1.0  0.60777  0.67876  0.93667  1.0000
  S   S1090     1.0  0.59618  0.68993  0.95993  1.0000
  C   C4054     1.0  0.56068  0.65220  0.98668  1.0000
  Fe  Fe544     1.0  0.73363  0.52542  0.94160  1.0000
  S   S1091     1.0  0.72598  0.53093  0.92570  1.0000
  H   H4876     1.0  0.55400  0.65506  0.92049  1.0000
  H   H4877     1.0  0.57508  0.97751  0.83511  1.0000
  H   H4878     1.0  0.59465  0.58975  0.96930  1.0000
  Fe  Fe545     1.0  0.74413  0.52250  0.91700  1.0000
  S   S1092     1.0  0.75338  0.53067  0.89906  1.0000
  Fe  Fe546     1.0  0.72264  0.51271  0.93113  1.0000
  H   H4879     1.0  0.85264  0.49512  0.95766  1.0000
  S   S1093     1.0  0.75203  0.51819  0.93267  1.0000
  C   C4055     1.0  0.51088  0.90909  0.82473  1.0000
  S   S1094     1.0  0.50632  0.68148  0.93920  1.0000
  C   C4056     1.0  0.53414  0.98681  0.86597  1.0000
  S   S1095     1.0  0.80150  0.54086  0.89873  1.0000
  C   C4057     1.0  0.56141  0.64356  0.98083  1.0000
  H   H4880     1.0  0.75851  0.56536  0.96490  1.0000
  H   H4881     1.0  0.52592  0.72283  0.97120  1.0000
  C   C4058     1.0  0.98041  0.51921  0.83332  1.0000
  S   S1096     1.0  0.82453  0.51694  0.91371  1.0000
  C   C4059     1.0  0.51969  0.89884  0.97883  1.0000
  H   H4882     1.0  0.95387  0.54688  0.79536  1.0000
  Fe  Fe547     1.0  0.97353  0.52436  0.80697  1.0000
  C   C4060     1.0  0.57510  0.94384  0.83837  1.0000
  Fe  Fe548     1.0  0.82759  0.52372  0.92772  1.0000
  C   C4061     1.0  0.84369  0.51549  0.97974  1.0000
  C   C4062     1.0  0.49814  0.81135  0.97230  1.0000
  C   C4063     1.0  0.55435  0.71533  0.93426  1.0000
  C   C4064     1.0  0.51826  0.57323  0.97481  1.0000
  H   H4883     1.0  0.52699  0.79956  0.92233  1.0000
  H   H4884     1.0  0.55897  0.63987  0.96553  1.0000
  C   C4065     1.0  0.51775  0.98605  0.84116  1.0000
  Fe  Fe549     1.0  0.58149  0.78539  0.94778  1.0000
  S   S1097     1.0  0.56950  0.79214  0.96332  1.0000
  S   S1098     1.0  0.58157  0.79618  0.92935  1.0000
  Fe  Fe550     1.0  0.59198  0.76236  0.96309  1.0000
  S   S1099     1.0  0.56359  0.91556  0.80193  1.0000
  S   S1100     1.0  0.60539  0.74546  0.96637  1.0000
  Fe  Fe551     1.0  0.56633  0.77398  0.96973  1.0000
  C   C4066     1.0  0.50244  0.95202  0.83635  1.0000
  Fe  Fe552     1.0  0.58497  0.78501  0.97160  1.0000
  C   C4067     1.0  0.61342  0.68825  0.98340  1.0000
  S   S1101     1.0  0.57733  0.76752  0.95356  1.0000
  S   S1102     1.0  0.59744  0.77958  0.95558  1.0000
  C   C4068     1.0  0.54836  0.80418  0.91593  1.0000
  S   S1103     1.0  0.57412  0.94208  0.80287  1.0000
  S   S1104     1.0  0.55037  0.93271  0.86753  1.0000
  S   S1105     1.0  0.53113  0.93126  0.84831  1.0000
  Fe  Fe553     1.0  0.53923  0.93646  0.88482  1.0000
  S   S1106     1.0  0.54437  0.92323  0.90072  1.0000
  C   C4069     1.0  0.85714  0.50695  0.92173  1.0000
  C   C4070     1.0  0.74832  0.55821  0.94914  1.0000
  H   H4885     1.0  0.64023  0.55252  0.96463  1.0000
  Fe  Fe554     1.0  0.53599  0.85352  0.93692  1.0000
  S   S1107     1.0  0.51824  0.86223  0.93285  1.0000
  S   S1108     1.0  0.55134  0.84847  0.92237  1.0000
  Fe  Fe555     1.0  0.52756  0.85602  0.96235  1.0000
  H   H4886     1.0  0.58842  0.98627  0.85464  1.0000
  S   S1109     1.0  0.53466  0.85148  0.97862  1.0000
  Fe  Fe556     1.0  0.51139  0.85116  0.95024  1.0000
  Fe  Fe557     1.0  0.51752  0.87495  0.94339  1.0000
  H   H4887     1.0  0.78957  0.49507  0.92769  1.0000
  S   S1110     1.0  0.52919  0.84151  0.95361  1.0000
  S   S1111     1.0  0.53600  0.86728  0.94590  1.0000
  H   H4888     1.0  0.49912  0.77056  0.96398  1.0000
  H   H4889     1.0  0.50313  0.90637  0.81179  1.0000
  H   H4890     1.0  0.50717  0.82715  0.97420  1.0000
  H   H4891     1.0  0.55131  0.77731  0.93420  1.0000
  H   H4892     1.0  0.56496  0.73185  0.98002  1.0000
  C   C4071     1.0  0.96651  0.50782  0.84627  1.0000
  C   C4072     1.0  0.56653  0.75139  0.91903  1.0000
  S   S1112     1.0  0.49787  0.76436  0.94198  1.0000
  C   C4073     1.0  0.55364  0.91998  0.79288  1.0000
  H   H4893     1.0  0.55120  0.78673  0.94801  1.0000
  C   C4074     1.0  0.54049  0.79988  0.95714  1.0000
  H   H4894     1.0  0.77424  0.49883  0.92742  1.0000
  C   C4075     1.0  0.57186  0.67798  0.90728  1.0000
  H   H4895     1.0  0.50511  0.65647  0.94988  1.0000
  H   H4896     1.0  0.55203  0.80054  0.90786  1.0000
  C   C4076     1.0  0.55496  0.63958  0.94143  1.0000
  C   C4077     1.0  0.55404  0.78468  0.92708  1.0000
  C   C4078     1.0  0.56429  0.68580  0.92491  1.0000
  C   C4079     1.0  0.53199  0.81033  0.95702  1.0000
  H   H4897     1.0  0.54118  0.81192  0.91384  1.0000
  H   H4898     1.0  0.55709  0.78129  0.91887  1.0000
  H   H4899     1.0  0.56180  0.78664  0.92866  1.0000
  H   H4900     1.0  0.51122  0.84000  0.98386  1.0000
  H   H4901     1.0  0.51862  0.77360  0.95662  1.0000
  H   H4902     1.0  0.53893  0.94922  0.82616  1.0000
  C   C4080     1.0  0.54013  0.80022  0.93694  1.0000
  N   N271      1.0  0.54422  0.79525  0.92627  1.0000
  C   C4081     1.0  0.50414  0.94906  0.82553  1.0000
  C   C4082     1.0  0.53431  0.91551  0.91099  1.0000
  C   C4083     1.0  0.52225  0.91904  0.91135  1.0000
  C   C4084     1.0  0.51452  0.91258  0.91979  1.0000
  C   C4085     1.0  0.51892  0.90239  0.92757  1.0000
  C   C4086     1.0  0.53095  0.89896  0.92723  1.0000
  C   C4087     1.0  0.53860  0.90559  0.91907  1.0000
  H   H4903     1.0  0.51888  0.92675  0.90519  1.0000
  Fe  Fe558     1.0  0.80759  0.53061  0.91515  1.0000
  H   H4904     1.0  0.53436  0.89134  0.93341  1.0000
  H   H4905     1.0  0.54790  0.90300  0.91899  1.0000
  S   S1113     1.0  0.53570  0.59872  0.97991  1.0000
  H   H4906     1.0  0.74953  0.50123  0.97698  1.0000
  C   C4088     1.0  0.92424  0.55462  0.80438  1.0000
  C   C4089     1.0  0.50065  0.76847  0.98168  1.0000
  H   H4907     1.0  0.55821  0.83906  0.97923  1.0000
  H   H4908     1.0  0.56134  0.80560  0.98277  1.0000
  C   C4090     1.0  0.93580  0.52978  0.79212  1.0000
  H   H4909     1.0  0.52268  0.91062  0.83475  1.0000
  C   C4091     1.0  0.57553  0.63326  0.93069  1.0000
  C   C4092     1.0  0.90820  0.50082  0.91654  1.0000
  C   C4093     1.0  0.57241  0.81038  0.92749  1.0000
  C   C4094     1.0  0.56360  0.81422  0.93675  1.0000
  C   C4095     1.0  0.55688  0.82580  0.93520  1.0000
  C   C4096     1.0  0.55892  0.83363  0.92435  1.0000
  C   C4097     1.0  0.56753  0.82973  0.91500  1.0000
  C   C4098     1.0  0.57422  0.81812  0.91654  1.0000
  H   H4910     1.0  0.56192  0.80831  0.94512  1.0000
  H   H4911     1.0  0.55031  0.82869  0.94249  1.0000
  H   H4912     1.0  0.56915  0.83572  0.90656  1.0000
  H   H4913     1.0  0.58096  0.81522  0.90930  1.0000
  C   C4099     1.0  0.85576  0.51422  0.92935  1.0000
  C   C4100     1.0  0.55041  0.76038  0.96079  1.0000
  C   C4101     1.0  0.54266  0.76791  0.96785  1.0000
  C   C4102     1.0  0.50744  0.61452  0.95300  1.0000
  H   H4914     1.0  0.55912  0.75626  0.96226  1.0000
  H   H4915     1.0  0.75472  0.53536  0.94971  1.0000
  S   S1114     1.0  0.64213  0.51330  0.97363  1.0000
  C   C4103     1.0  0.54194  0.72851  0.94675  1.0000
  C   C4104     1.0  0.52191  0.90862  0.82693  1.0000
  S   S1115     1.0  0.78983  0.53066  0.95759  1.0000
  C   C4105     1.0  0.57513  0.74817  0.92555  1.0000
  H   H4916     1.0  0.54709  0.72327  0.95345  1.0000
  H   H4917     1.0  0.76045  0.52861  0.96688  1.0000
  C   C4106     1.0  0.51495  0.60385  0.93742  1.0000
  S   S1116     1.0  0.79697  0.51887  0.92894  1.0000
  H   H4918     1.0  0.56540  0.99084  0.83864  1.0000
  C   C4107     1.0  0.51113  0.90627  0.81406  1.0000
  H   H4919     1.0  0.72587  0.54197  0.97655  1.0000
  H   H4920     1.0  0.52167  0.90156  0.79780  1.0000
  H   H4921     1.0  0.53705  0.78748  0.91665  1.0000
  C   C4108     1.0  0.52185  0.98951  0.86903  1.0000
  H   H4922     1.0  0.52901  0.81428  0.96462  1.0000
  H   H4923     1.0  0.59456  0.71106  0.98078  1.0000
  H   H4924     1.0  0.54544  0.97574  0.80399  1.0000
  C   C4109     1.0  0.76611  0.53486  0.89890  1.0000
  C   C4110     1.0  0.77476  0.53598  0.88850  1.0000
  C   C4111     1.0  0.78549  0.53817  0.88843  1.0000
  C   C4112     1.0  0.78768  0.53907  0.89880  1.0000
  C   C4113     1.0  0.77891  0.53832  0.90914  1.0000
  C   C4114     1.0  0.76806  0.53641  0.90914  1.0000
  H   H4925     1.0  0.77325  0.53495  0.88053  1.0000
  H   H4926     1.0  0.79221  0.53889  0.88039  1.0000
  H   H4927     1.0  0.78044  0.53940  0.91708  1.0000
  H   H4928     1.0  0.76119  0.53622  0.91700  1.0000
  H   H4929     1.0  0.51285  0.60921  0.97615  1.0000
  H   H4930     1.0  0.52466  0.97494  0.89671  1.0000
  H   H4931     1.0  0.58407  0.97415  0.85255  1.0000
  H   H4932     1.0  0.95123  0.49422  0.79184  1.0000
  C   C4115     1.0  0.61504  0.71749  0.94470  1.0000
  C   C4116     1.0  0.60319  0.72279  0.94842  1.0000
  C   C4117     1.0  0.60006  0.73185  0.95463  1.0000
  C   C4118     1.0  0.60883  0.73537  0.95731  1.0000
  C   C4119     1.0  0.62065  0.73000  0.95361  1.0000
  C   C4120     1.0  0.62376  0.72126  0.94713  1.0000
  H   H4933     1.0  0.59651  0.71985  0.94650  1.0000
  H   H4934     1.0  0.59090  0.73579  0.95768  1.0000
  H   H4935     1.0  0.62744  0.73262  0.95576  1.0000
  H   H4936     1.0  0.63292  0.71722  0.94424  1.0000
  C   C4121     1.0  0.56926  0.70839  0.97608  1.0000
  C   C4122     1.0  0.58050  0.71047  0.97362  1.0000
  C   C4123     1.0  0.55320  0.66719  0.97104  1.0000
  H   H4937     1.0  0.94536  0.56111  0.79715  1.0000
  Fe  Fe559     1.0  0.74631  0.50125  0.93724  1.0000
  C   C4124     1.0  0.50626  0.83689  0.93151  1.0000
  H   H4938     1.0  0.58534  0.71229  0.96465  1.0000
  C   C4125     1.0  0.55405  0.65844  0.96522  1.0000
  C   C4126     1.0  0.52510  0.97067  0.83012  1.0000
  S   S1117     1.0  0.81150  0.53845  0.92788  1.0000
  S   S1118     1.0  0.50405  0.69457  0.96032  1.0000
  C   C4127     1.0  0.67490  0.51622  0.95511  1.0000
  C   C4128     1.0  0.68412  0.51040  0.94736  1.0000
  C   C4129     1.0  0.69422  0.51486  0.94199  1.0000
  C   C4130     1.0  0.69494  0.52533  0.94413  1.0000
  H   H4939     1.0  0.59376  0.95572  0.84511  1.0000
  H   H4940     1.0  0.66723  0.51261  0.95939  1.0000
  S   S1119     1.0  0.50096  0.93279  0.79514  1.0000
  H   H4941     1.0  0.70269  0.52885  0.93998  1.0000
  S   S1120     1.0  0.51108  0.77936  0.91722  1.0000
  C   C4131     1.0  0.56145  0.64725  0.92057  1.0000
  Fe  Fe560     1.0  0.57545  0.92800  0.79386  1.0000
  C   C4132     1.0  0.84117  0.51096  0.96254  1.0000
  C   C4133     1.0  0.52733  0.81568  0.94713  1.0000
  H   H4942     1.0  0.57979  0.93439  0.82451  1.0000
  C   C4134     1.0  0.58861  0.62702  0.96322  1.0000
  C   C4135     1.0  0.58903  0.62762  0.97441  1.0000
  C   C4136     1.0  0.59293  0.63676  0.97590  1.0000
  C   C4137     1.0  0.59617  0.64553  0.96623  1.0000
  C   C4138     1.0  0.59572  0.64504  0.95502  1.0000
  C   C4139     1.0  0.59220  0.63564  0.95348  1.0000
  H   H4943     1.0  0.50539  0.91557  0.95158  1.0000
  H   H4944     1.0  0.58287  0.96405  0.79720  1.0000
  H   H4945     1.0  0.59838  0.65175  0.94750  1.0000
  H   H4946     1.0  0.59230  0.63512  0.94474  1.0000
  H   H4947     1.0  0.78523  0.53103  0.98208  1.0000
  H   H4948     1.0  0.61889  0.58920  0.95355  1.0000
  S   S1121     1.0  0.54762  0.77252  0.97762  1.0000
  C   C4140     1.0  0.55599  0.73580  0.98364  1.0000
  C   C4141     1.0  0.85594  0.49808  0.97292  1.0000
  S   S1122     1.0  0.54257  0.95451  0.88118  1.0000
  H   H4949     1.0  0.54761  0.91582  0.94325  1.0000
  C   C4142     1.0  0.59804  0.94740  0.83048  1.0000
  H   H4950     1.0  0.53650  0.96506  0.80867  1.0000
  S   S1123     1.0  0.60333  0.93755  0.81146  1.0000
  C   C4143     1.0  0.55830  0.96641  0.82032  1.0000
  C   C4144     1.0  0.54457  0.79483  0.94728  1.0000
  H   H4951     1.0  0.57729  0.73023  0.99121  1.0000
  H   H4952     1.0  0.82823  0.53146  0.95042  1.0000
  H   H4953     1.0  0.70715  0.53235  0.97409  1.0000
  H   H4954     1.0  0.54399  0.79568  0.96491  1.0000
  H   H4955     1.0  0.74101  0.55404  0.95481  1.0000
  S   S1124     1.0  0.61038  0.52278  0.99079  1.0000
  S   S1125     1.0  0.56933  0.95723  0.85503  1.0000
  H   H4956     1.0  0.55535  0.80744  0.91745  1.0000
  H   H4957     1.0  0.56568  0.68933  0.93152  1.0000
  C   C4145     1.0  0.75987  0.54746  0.96356  1.0000
  H   H4958     1.0  0.53058  0.78566  0.93207  1.0000
  Fe  Fe561     1.0  0.50988  0.67635  0.95719  1.0000
  C   C4146     1.0  0.60202  0.58227  0.97156  1.0000
  C   C4147     1.0  0.53565  0.74015  0.98233  1.0000
  H   H4959     1.0  0.52985  0.66180  0.98819  1.0000
  H   H4960     1.0  0.90590  0.50035  0.89539  1.0000
  H   H4961     1.0  0.50625  0.90011  0.90543  1.0000
  H   H4962     1.0  0.57321  0.98657  0.85597  1.0000
  H   H4963     1.0  0.76220  0.54270  0.93615  1.0000
  C   C4148     1.0  0.53430  0.79187  0.92421  1.0000
  C   C4149     1.0  0.53676  0.97223  0.82755  1.0000
  C   C4150     1.0  0.78988  0.52227  0.98087  1.0000
  C   C4151     1.0  0.57373  0.68235  0.91594  1.0000
  H   H4964     1.0  0.95812  0.50015  0.88717  1.0000
  C   C4152     1.0  0.52896  0.98826  0.83827  1.0000
  H   H4965     1.0  0.54297  0.65681  0.93843  1.0000
  N   N272      1.0  0.75987  0.55054  0.95086  1.0000
  C   C4153     1.0  0.77365  0.49376  0.96084  1.0000
  C   C4154     1.0  0.62727  0.67846  0.96439  1.0000
  H   H4966     1.0  0.51547  0.59572  0.93459  1.0000
  H   H4967     1.0  0.78047  0.51362  0.90920  1.0000
  C   C4155     1.0  0.55812  0.64664  0.97011  1.0000
  C   C4156     1.0  0.75964  0.53336  0.98256  1.0000
  C   C4157     1.0  0.51436  0.94108  0.82157  1.0000
  H   H4968     1.0  0.68344  0.50240  0.94564  1.0000
  H   H4969     1.0  0.57881  0.62971  0.93892  1.0000
  C   C4158     1.0  0.85009  0.50079  0.96386  1.0000
  H   H4970     1.0  0.57915  0.67542  0.90028  1.0000
  C   C4159     1.0  0.57989  0.97344  0.79623  1.0000
  C   C4160     1.0  0.58569  0.70983  0.98276  1.0000
  H   H4971     1.0  0.52723  0.81511  0.92986  1.0000
  H   H4972     1.0  0.77042  0.53395  0.94692  1.0000
  C   C4161     1.0  0.50444  0.89906  0.96983  1.0000
  H   H4973     1.0  0.50907  0.72828  0.98737  1.0000
  H   H4974     1.0  0.50601  0.91599  0.88749  1.0000
  H   H4975     1.0  0.95157  0.49775  0.90875  1.0000
  H   H4976     1.0  0.59622  0.97354  0.83412  1.0000
  N   N273      1.0  0.59233  0.82317  0.94408  1.0000
  C   C4162     1.0  0.59026  0.82878  0.93210  1.0000
  C   C4163     1.0  0.60396  0.82470  0.94426  1.0000
  C   C4164     1.0  0.59287  0.81045  0.94613  1.0000
  C   C4165     1.0  0.58302  0.82804  0.95346  1.0000
  C   C4166     1.0  0.58443  0.82465  0.96522  1.0000
  C   C4167     1.0  0.57213  0.83563  0.95143  1.0000
  C   C4168     1.0  0.57558  0.82859  0.97437  1.0000
  C   C4169     1.0  0.56335  0.83958  0.96066  1.0000
  C   C4170     1.0  0.56508  0.83608  0.97209  1.0000
  H   H4977     1.0  0.58949  0.83845  0.93012  1.0000
  H   H4978     1.0  0.59747  0.82511  0.92520  1.0000
  H   H4979     1.0  0.58216  0.82715  0.93100  1.0000
  H   H4980     1.0  0.60713  0.81925  0.95224  1.0000
  H   H4981     1.0  0.60361  0.83405  0.94388  1.0000
  H   H4982     1.0  0.61093  0.82192  0.93673  1.0000
  H   H4983     1.0  0.58421  0.80890  0.94640  1.0000
  H   H4984     1.0  0.59942  0.80634  0.93909  1.0000
  H   H4985     1.0  0.59526  0.80549  0.95464  1.0000
  H   H4986     1.0  0.59228  0.81861  0.96753  1.0000
  H   H4987     1.0  0.57009  0.83857  0.94285  1.0000
  H   H4988     1.0  0.56804  0.68321  0.98847  1.0000
  H   H4989     1.0  0.55507  0.84531  0.95896  1.0000
  H   H4990     1.0  0.85717  0.50307  0.98806  1.0000
  C   C4171     1.0  0.56746  0.67677  0.98385  1.0000
  H   H4991     1.0  0.75975  0.52447  0.98768  1.0000
  H   H4992     1.0  0.51578  0.90779  0.98068  1.0000
  C   C4172     1.0  0.78832  0.50676  0.90652  1.0000
  H   H4993     1.0  0.61434  0.59795  0.98186  1.0000
  H   H4994     1.0  0.54076  0.90573  0.82048  1.0000
  C   C4173     1.0  0.52087  0.93861  0.83950  1.0000
  H   H4995     1.0  0.56650  0.75899  0.91180  1.0000
  H   H4996     1.0  0.58180  0.73602  0.93999  1.0000
  H   H4997     1.0  0.60444  0.57705  0.96471  1.0000
  H   H4998     1.0  0.51381  0.83272  0.91443  1.0000
  C   C4174     1.0  0.50681  0.70050  0.98946  1.0000
  H   H4999     1.0  0.55994  0.71112  0.94078  1.0000
  N   N274      1.0  0.58366  0.98934  0.83808  1.0000
  H   H5000     1.0  0.79107  0.50869  0.89677  1.0000
  C   C4175     1.0  0.54555  0.81764  0.98920  1.0000
  C   C4176     1.0  0.75866  0.55368  0.98155  1.0000
  H   H5001     1.0  0.54662  0.61632  0.96280  1.0000
  H   H5002     1.0  0.82072  0.54604  0.97417  1.0000
  C   C4177     1.0  0.59402  0.94171  0.82437  1.0000
  H   H5003     1.0  0.53053  0.92956  0.82556  1.0000
  H   H5004     1.0  0.74746  0.55998  0.93989  1.0000
  Fe  Fe562     1.0  0.52662  0.96055  0.87344  1.0000
  H   H5005     1.0  0.54260  0.82022  0.98103  1.0000
  C   C4178     1.0  0.76191  0.54016  0.94575  1.0000
  C   C4179     1.0  0.50069  0.91560  0.84341  1.0000
  C   C4180     1.0  0.52749  0.76998  0.95766  1.0000
  H   H5006     1.0  0.54469  0.73155  0.91757  1.0000
  H   H5007     1.0  0.54052  0.90108  0.80207  1.0000
  H   H5008     1.0  0.77461  0.50406  0.98352  1.0000
  H   H5009     1.0  0.55004  0.73080  0.97103  1.0000
  H   H5010     1.0  0.93921  0.51237  0.82343  1.0000
  H   H5011     1.0  0.58180  0.75321  0.92341  1.0000
  H   H5012     1.0  0.74678  0.56685  0.95142  1.0000
  H   H5013     1.0  0.62401  0.56909  0.96007  1.0000
  S   S1126     1.0  0.52221  0.94268  0.87865  1.0000
  H   H5014     1.0  0.52640  0.65141  0.95402  1.0000
  H   H5015     1.0  0.55931  0.97536  0.81528  1.0000
  H   H5016     1.0  0.54865  0.68940  0.97652  1.0000
  C   C4181     1.0  0.93737  0.52937  0.81165  1.0000
  H   H5017     1.0  0.51578  0.93877  0.81322  1.0000
  C   C4182     1.0  0.55123  0.67996  0.91685  1.0000
  C   C4183     1.0  0.79847  0.50830  0.96830  1.0000
  H   H5018     1.0  0.57115  0.64984  0.94317  1.0000
  C   C4184     1.0  0.57516  0.73845  0.93488  1.0000
  H   H5019     1.0  0.52180  0.88564  0.95696  1.0000
  S   S1127     1.0  0.66331  0.50330  0.98815  1.0000
  N   N275      1.0  0.54659  0.96448  0.82096  1.0000
  H   H5020     1.0  0.59285  0.97464  0.80453  1.0000
  H   H5021     1.0  0.60493  0.50265  0.97335  1.0000
  H   H5022     1.0  0.52925  0.89684  0.97856  1.0000
  Fe  Fe563     1.0  0.81415  0.50576  0.92857  1.0000
  H   H5023     1.0  0.56345  0.62115  0.94785  1.0000
  C   C4185     1.0  0.54501  0.96661  0.80885  1.0000
  C   C4186     1.0  0.55778  0.73481  0.93121  1.0000
  C   C4187     1.0  0.77040  0.50175  0.89904  1.0000
  S   S1128     1.0  0.50909  0.86465  0.96058  1.0000
  C   C4188     1.0  0.97017  0.51515  0.83547  1.0000
  H   H5024     1.0  0.54202  0.98155  0.89689  1.0000
  H   H5025     1.0  0.57470  0.74519  0.98314  1.0000
  S   S1129     1.0  0.96210  0.51892  0.82458  1.0000
  H   H5026     1.0  0.74461  0.51401  0.95849  1.0000
  C   C4189     1.0  0.55625  0.66428  0.98213  1.0000
  H   H5027     1.0  0.57605  0.65545  0.92774  1.0000
  C   C4190     1.0  0.63621  0.55860  0.97047  1.0000
  H   H5028     1.0  0.53997  0.92931  0.80481  1.0000
  C   C4191     1.0  0.77407  0.50148  0.96720  1.0000
  S   S1130     1.0  0.97894  0.54157  0.79994  1.0000
  H   H5029     1.0  0.53601  0.64630  0.98901  1.0000
  C   C4192     1.0  0.62655  0.69014  0.96420  1.0000
  H   H5030     1.0  0.82416  0.54485  0.95498  1.0000
  C   C4193     1.0  0.53111  0.77245  0.96650  1.0000
  C   C4194     1.0  0.87379  0.49382  0.92932  1.0000
  C   C4195     1.0  0.56063  0.67677  0.90775  1.0000
  S   S1131     1.0  0.52035  0.70274  0.93415  1.0000
  H   H5031     1.0  0.53467  0.92979  0.93062  1.0000
  H   H5032     1.0  0.75679  0.50671  0.88935  1.0000
  H   H5033     1.0  0.50709  0.97558  0.83934  1.0000
  H   H5034     1.0  0.51190  0.61154  0.93059  1.0000
  H   H5035     1.0  0.69561  0.50972  0.96700  1.0000
  S   S1132     1.0  0.50489  0.78852  0.94202  1.0000
  H   H5036     1.0  0.50518  0.91532  0.92012  1.0000
  H   H5037     1.0  0.55925  0.67325  0.90112  1.0000
  S   S1133     1.0  0.56915  0.58941  0.98023  1.0000
  H   H5038     1.0  0.49886  0.99217  0.80782  1.0000
  H   H5039     1.0  0.55196  0.96056  0.80378  1.0000
  H   H5040     1.0  0.54683  0.98355  0.82992  1.0000
  H   H5041     1.0  0.56875  0.64998  0.91329  1.0000
  C   C4196     1.0  0.98347  0.50840  0.85269  1.0000
  Fe  Fe564     1.0  0.59371  0.93744  0.79826  1.0000
  H   H5042     1.0  0.85124  0.50920  0.91584  1.0000
  C   C4197     1.0  0.59526  0.98320  0.83200  1.0000
  C   C4198     1.0  0.51074  0.59333  0.95778  1.0000
  H   H5043     1.0  0.52507  0.77816  0.97203  1.0000
  H   H5044     1.0  0.52102  0.56583  0.98161  1.0000
  H   H5045     1.0  0.55040  0.67621  0.96660  1.0000
  H   H5046     1.0  0.77241  0.51031  0.89543  1.0000
  S   S1134     1.0  0.74005  0.50478  0.92066  1.0000
  H   H5047     1.0  0.53917  0.73769  0.94795  1.0000
  H   H5048     1.0  0.60945  0.60191  0.95848  1.0000
  C   C4199     1.0  0.76923  0.55699  0.94405  1.0000
  C   C4200     1.0  0.51454  0.91548  0.95047  1.0000
  C   C4201     1.0  0.54680  0.75792  0.95194  1.0000
  C   C4202     1.0  0.81703  0.52595  0.97197  1.0000
  H   H5049     1.0  0.97039  0.49865  0.86315  1.0000
  H   H5050     1.0  0.62173  0.66274  0.97344  1.0000
  H   H5051     1.0  0.56631  0.94229  0.84151  1.0000
  Fe  Fe565     1.0  0.53370  0.94037  0.86097  1.0000
  N   N276      1.0  0.54706  0.88578  0.89406  1.0000
  C   C4203     1.0  0.55112  0.87859  0.88503  1.0000
  C   C4204     1.0  0.55607  0.89243  0.89267  1.0000
  C   C4205     1.0  0.54631  0.87759  0.90576  1.0000
  C   C4206     1.0  0.53571  0.89401  0.89249  1.0000
  C   C4207     1.0  0.53518  0.90309  0.88220  1.0000
  C   C4208     1.0  0.52490  0.89306  0.90075  1.0000
  C   C4209     1.0  0.52457  0.91088  0.88045  1.0000
  C   C4210     1.0  0.51433  0.90086  0.89885  1.0000
  C   C4211     1.0  0.51418  0.90981  0.88879  1.0000
  H   H5052     1.0  0.54447  0.87362  0.88567  1.0000
  H   H5053     1.0  0.55268  0.88408  0.87597  1.0000
  H   H5054     1.0  0.55951  0.87206  0.88605  1.0000
  H   H5055     1.0  0.55291  0.89868  0.89866  1.0000
  H   H5056     1.0  0.55837  0.89771  0.88363  1.0000
  H   H5057     1.0  0.56445  0.88652  0.89465  1.0000
  H   H5058     1.0  0.54314  0.88245  0.91299  1.0000
  H   H5059     1.0  0.54041  0.87158  0.90712  1.0000
  H   H5060     1.0  0.55501  0.87175  0.90686  1.0000
  H   H5061     1.0  0.54296  0.90430  0.87542  1.0000
  H   H5062     1.0  0.52435  0.88651  0.90887  1.0000
  H   H5063     1.0  0.52445  0.91785  0.87260  1.0000
  N   N277      1.0  0.70037  0.51699  0.98421  1.0000
  H   H5064     1.0  0.50998  0.76456  0.97989  1.0000
  H   H5065     1.0  0.62414  0.59689  0.96095  1.0000
  S   S1135     1.0  0.52891  0.67665  0.95119  1.0000
  H   H5066     1.0  0.51639  0.61426  0.95380  1.0000
  C   C4212     1.0  0.50672  0.57618  0.97344  1.0000
  Fe  Fe566     1.0  0.65010  0.49610  0.98433  1.0000
  C   C4213     1.0  0.53355  0.98771  0.89726  1.0000
  H   H5067     1.0  0.83938  0.53710  0.95262  1.0000
  S   S1136     1.0  0.51413  0.97816  0.87426  1.0000
  H   H5068     1.0  0.92396  0.55162  0.81396  1.0000
  Fe  Fe567     1.0  0.65404  0.52074  0.97914  1.0000
  C   C4214     1.0  0.75903  0.55631  0.96950  1.0000
  C   C4215     1.0  0.58230  0.98393  0.85084  1.0000
  H   H5069     1.0  0.97269  0.49787  0.81045  1.0000
  C   C4216     1.0  0.61633  0.59390  0.96084  1.0000
  N   N278      1.0  0.51729  0.89810  0.96778  1.0000
  S   S1137     1.0  0.50928  0.89413  0.93781  1.0000
  S   S1138     1.0  0.58061  0.76750  0.97972  1.0000
  C   C4217     1.0  0.51118  0.71962  0.98554  1.0000
  C   C4218     1.0  0.52171  0.90341  0.80601  1.0000
  C   C4219     1.0  0.83788  0.51879  0.97027  1.0000
  H   H5070     1.0  0.68431  0.52377  0.97787  1.0000
  C   C4220     1.0  0.54594  0.62516  0.95742  1.0000
  Fe  Fe568     1.0  0.52488  0.68372  0.93333  1.0000
  C   C4221     1.0  0.74443  0.51013  0.97688  1.0000
  H   H5071     1.0  0.53495  0.57807  0.96921  1.0000
  C   C4222     1.0  0.93629  0.53602  0.80023  1.0000
  H   H5072     1.0  0.93222  0.49393  0.91890  1.0000
  C   C4223     1.0  0.53124  0.81069  0.93726  1.0000
  H   H5073     1.0  0.58638  0.62108  0.98196  1.0000
  C   C4224     1.0  0.51579  0.97738  0.83696  1.0000
  H   H5074     1.0  0.53362  0.72633  0.92951  1.0000
  S   S1139     1.0  0.53279  0.70260  0.96073  1.0000
  H   H5075     1.0  0.95858  0.50470  0.84796  1.0000
  Fe  Fe569     1.0  0.57289  0.60694  0.97822  1.0000
  H   H5076     1.0  0.64778  0.54960  0.98224  1.0000
  H   H5077     1.0  0.63114  0.69549  0.95655  1.0000
  C   C4225     1.0  0.79252  0.51960  0.96982  1.0000
  H   H5078     1.0  0.86258  0.51713  0.94258  1.0000
  S   S1140     1.0  0.53756  0.67710  0.91811  1.0000
  H   H5079     1.0  0.63229  0.67487  0.95676  1.0000
  C   C4226     1.0  0.52243  0.59005  0.95945  1.0000
  C   C4227     1.0  0.49877  0.65229  0.95672  1.0000
  H   H5080     1.0  0.94534  0.54906  0.80952  1.0000
  C   C4228     1.0  0.54250  0.92694  0.79636  1.0000
  C   C4229     1.0  0.53833  0.91581  0.94541  1.0000
  H   H5081     1.0  0.75806  0.56056  0.98591  1.0000
  C   C4230     1.0  0.62164  0.57626  0.97541  1.0000
  C   C4231     1.0  0.62618  0.57421  0.98557  1.0000
  C   C4232     1.0  0.62694  0.56812  0.96796  1.0000
  H   H5082     1.0  0.59851  0.57665  0.98006  1.0000
  C   C4233     1.0  0.52174  0.90721  0.95787  1.0000
  C   C4234     1.0  0.64049  0.55691  0.98042  1.0000
  H   H5083     1.0  0.93819  0.50200  0.80899  1.0000
  H   H5084     1.0  0.83608  0.54041  0.97419  1.0000
  H   H5085     1.0  0.50998  0.86321  0.98502  1.0000
  H   H5086     1.0  0.54577  0.68735  0.93227  1.0000
  C   C4235     1.0  0.59054  0.95154  0.84029  1.0000
  C   C4236     1.0  0.53457  0.64490  0.95249  1.0000
  C   C4237     1.0  0.70708  0.52343  0.97334  1.0000
  C   C4238     1.0  0.94566  0.49743  0.90369  1.0000
  H   H5087     1.0  0.52403  0.60416  0.93726  1.0000
  H   H5088     1.0  0.50104  0.72573  0.93769  1.0000
  S   S1141     1.0  0.72865  0.50802  0.94793  1.0000
  C   C4239     1.0  0.52072  0.71653  0.97644  1.0000
  C   C4240     1.0  0.53105  0.92375  0.93833  1.0000
  C   C4241     1.0  0.61426  0.67618  0.98407  1.0000
  H   H5089     1.0  0.52809  0.63123  0.96631  1.0000
  H   H5090     1.0  0.55863  0.64035  0.91835  1.0000
  H   H5091     1.0  0.79981  0.50611  0.95997  1.0000
  C   C4242     1.0  0.57894  0.95018  0.84397  1.0000
  Fe  Fe570     1.0  0.52291  0.69541  0.95255  1.0000
  C   C4243     1.0  0.74161  0.51737  0.96642  1.0000
  C   C4244     1.0  0.58266  0.93957  0.82859  1.0000
  H   H5092     1.0  0.55292  0.75234  0.94632  1.0000
  H   H5093     1.0  0.53382  0.72516  0.94900  1.0000
  C   C4245     1.0  0.55301  0.68469  0.92532  1.0000
  C   C4246     1.0  0.63547  0.56466  0.98797  1.0000
  C   C4247     1.0  0.54017  0.73192  0.92685  1.0000
  H   H5094     1.0  0.60692  0.94873  0.82753  1.0000
  C   C4248     1.0  0.80266  0.49987  0.97753  1.0000
  C   C4249     1.0  0.86637  0.49694  0.92148  1.0000
  H   H5095     1.0  0.52016  0.87916  0.97238  1.0000
  H   H5096     1.0  0.71636  0.51851  0.97126  1.0000
  H   H5097     1.0  0.77797  0.55183  0.94573  1.0000
  C   C4250     1.0  0.73475  0.52879  0.96636  1.0000
  C   C4251     1.0  0.58542  0.97941  0.80060  1.0000
  C   C4252     1.0  0.54676  0.95189  0.82650  1.0000
  H   H5098     1.0  0.52066  0.82377  0.94706  1.0000
  C   C4253     1.0  0.62118  0.67155  0.97411  1.0000
  C   C4254     1.0  0.97323  0.50433  0.85482  1.0000
  Fe  Fe571     1.0  0.80249  0.52532  0.94159  1.0000
  C   C4255     1.0  0.67559  0.52675  0.95717  1.0000
  S   S1142     1.0  0.99156  0.51336  0.80189  1.0000
  H   H5099     1.0  0.80952  0.53368  0.97096  1.0000
  C   C4256     1.0  0.68555  0.53137  0.95157  1.0000
  H   H5100     1.0  0.62126  0.50053  0.98322  1.0000
  C   C4257     1.0  0.54413  0.64789  0.94361  1.0000
  Fe  Fe572     1.0  0.51382  0.77193  0.93555  1.0000
  S   S1143     1.0  0.81892  0.51112  0.94250  1.0000
  C   C4258     1.0  0.75896  0.54222  0.98807  1.0000
  H   H5101     1.0  0.76770  0.56567  0.94620  1.0000
  C   C4259     1.0  0.87244  0.50109  0.93694  1.0000
  H   H5102     1.0  0.83695  0.51269  0.95533  1.0000
  C   C4260     1.0  0.54652  0.68414  0.98564  1.0000
  H   H5103     1.0  0.56559  0.96018  0.81580  1.0000
  N   N279      1.0  0.82839  0.52951  0.96867  1.0000
  C   C4261     1.0  0.53244  0.90572  0.81882  1.0000
  S   S1144     1.0  0.53151  0.76102  0.93814  1.0000
  C   C4262     1.0  0.73108  0.53311  0.97660  1.0000
  C   C4263     1.0  0.53835  0.98153  0.83153  1.0000
  H   H5104     1.0  0.68613  0.53950  0.95315  1.0000
  S   S1145     1.0  0.72993  0.53732  0.95379  1.0000
  H   H5105     1.0  0.56000  0.71444  0.92543  1.0000
  C   C4264     1.0  0.76004  0.53588  0.97052  1.0000
  H   H5106     1.0  0.53893  0.97778  0.86646  1.0000
  C   C4265     1.0  0.55792  0.74488  0.92180  1.0000
  H   H5107     1.0  0.76990  0.55875  0.93441  1.0000
  C   C4266     1.0  0.52335  0.88633  0.96530  1.0000
  H   H5108     1.0  0.55441  0.94590  0.82208  1.0000
  H   H5109     1.0  0.55986  0.96504  0.82926  1.0000
  H   H5110     1.0  0.56901  0.68087  0.97431  1.0000
  N   N280      1.0  0.54869  0.72783  0.93461  1.0000
  H   H5111     1.0  0.58296  0.63620  0.92372  1.0000
  C   C4267     1.0  0.56664  0.73185  0.93769  1.0000
  H   H5112     1.0  0.57367  0.62591  0.92825  1.0000
  H   H5113     1.0  0.54771  0.70990  0.93643  1.0000
  C   C4268     1.0  0.56848  0.65262  0.93459  1.0000
  H   H5114     1.0  0.52872  0.59541  0.95469  1.0000
  C   C4269     1.0  0.55559  0.62808  0.94866  1.0000
  N   N281      1.0  0.56497  0.64302  0.93203  1.0000
  H   H5115     1.0  0.56695  0.72447  0.94508  1.0000
  C   C4270     1.0  0.51918  0.92362  0.94090  1.0000
  C   C4271     1.0  0.93764  0.51140  0.80657  1.0000
  C   C4272     1.0  0.53542  0.76298  0.95016  1.0000
  C   C4273     1.0  0.52611  0.58010  0.96778  1.0000
  C   C4274     1.0  0.53548  0.63355  0.95940  1.0000
  S   S1146     1.0  0.66437  0.53373  0.96729  1.0000
  H   H5116     1.0  0.57682  0.82559  0.98330  1.0000
  S   S1147     1.0  0.53672  0.95863  0.85541  1.0000
  H   H5117     1.0  0.55138  0.74801  0.91656  1.0000
  H   H5118     1.0  0.54736  0.94978  0.83581  1.0000
  C   C4275     1.0  0.98692  0.51602  0.84203  1.0000
  H   H5119     1.0  0.56130  0.66065  0.93487  1.0000
  H   H5120     1.0  0.50876  0.64298  0.98930  1.0000
  H   H5121     1.0  0.53503  0.74105  0.92728  1.0000
  C   C4276     1.0  0.86359  0.51145  0.93674  1.0000
  C   C4277     1.0  0.60741  0.59407  0.98107  1.0000
  C   C4278     1.0  0.69896  0.50257  0.97364  1.0000
  C   C4279     1.0  0.50799  0.83227  0.98913  1.0000
  C   C4280     1.0  0.51083  0.94686  0.84330  1.0000
  H   H5122     1.0  0.51804  0.68894  0.97826  1.0000
  H   H5123     1.0  0.51600  0.89239  0.98653  1.0000
  C   C4281     1.0  0.82756  0.53783  0.97595  1.0000
  C   C4282     1.0  0.83017  0.53599  0.95620  1.0000
  C   C4283     1.0  0.92664  0.49457  0.90311  1.0000
  H   H5124     1.0  0.50678  0.81269  0.96662  1.0000
  H   H5125     1.0  0.82487  0.53407  0.98550  1.0000
  C   C4284     1.0  0.52296  0.70558  0.97363  1.0000
  H   H5126     1.0  0.70342  0.52488  0.96552  1.0000
  H   H5127     1.0  0.98324  0.52494  0.82502  1.0000
  S   S1148     1.0  0.70607  0.50700  0.93305  1.0000
  H   H5128     1.0  0.50469  0.92338  0.84074  1.0000
  C   C4285     1.0  0.93451  0.49530  0.90942  1.0000
  H   H5129     1.0  0.87820  0.49877  0.94296  1.0000
  H   H5130     1.0  0.89928  0.49921  0.92116  1.0000
  C   C4286     1.0  0.93812  0.51725  0.81471  1.0000
  C   C4287     1.0  0.52378  0.98394  0.89723  1.0000
  C   C4288     1.0  0.53379  0.90766  0.95505  1.0000
  H   H5131     1.0  0.50941  0.94907  0.85171  1.0000
  H   H5132     1.0  0.79557  0.50786  0.90975  1.0000
  C   C4289     1.0  0.56267  0.70689  0.98762  1.0000
  H   H5133     1.0  0.60027  0.60164  0.97845  1.0000
  H   H5134     1.0  0.77321  0.49684  0.95167  1.0000
  Fe  Fe573     1.0  0.62978  0.51640  0.99062  1.0000
  H   H5135     1.0  0.53301  0.88446  0.96440  1.0000
  N   N282      1.0  0.61204  0.58645  0.97236  1.0000
  N   N283      1.0  0.78589  0.49483  0.91137  1.0000
  C   C4290     1.0  0.54744  0.73511  0.97837  1.0000
  H   H5136     1.0  0.77413  0.51057  0.96290  1.0000
  C   C4291     1.0  0.93646  0.51766  0.79530  1.0000
  C   C4292     1.0  0.50180  0.82182  0.92502  1.0000
  H   H5137     1.0  0.53985  0.90152  0.96011  1.0000
  H   H5138     1.0  0.90703  0.50984  0.91090  1.0000
  Fe  Fe574     1.0  0.50103  0.79553  0.92411  1.0000
  C   C4293     1.0  0.51212  0.60181  0.98348  1.0000
  C   C4294     1.0  0.53233  0.90312  0.80840  1.0000
  H   H5139     1.0  0.62566  0.50150  0.96327  1.0000
  H   H5140     1.0  0.92543  0.49547  0.88515  1.0000
  C   C4295     1.0  0.51623  0.69745  0.98035  1.0000
  H   H5141     1.0  0.51122  0.84345  0.92986  1.0000
  H   H5142     1.0  0.57741  0.89286  0.79493  1.0000
  H   H5143     1.0  0.94490  0.49898  0.87564  1.0000
  C   C4296     1.0  0.61954  0.69507  0.97362  1.0000
  S   S1149     1.0  0.55419  0.61554  0.98464  1.0000
  H   H5144     1.0  0.50612  0.90826  0.84877  1.0000
  S   S1150     1.0  0.99223  0.50364  0.86311  1.0000
  N   N284      1.0  0.50697  0.60414  0.94916  1.0000
  H   H5145     1.0  0.91651  0.55259  0.80281  1.0000
  H   H5146     1.0  0.81535  0.52098  0.98123  1.0000
  H   H5147     1.0  0.59646  0.98575  0.82231  1.0000
  C   C4297     1.0  0.70185  0.50475  0.98323  1.0000
  C   C4298     1.0  0.76141  0.49973  0.89533  1.0000
  C   C4299     1.0  0.68775  0.52295  0.98567  1.0000
  H   H5148     1.0  0.60263  0.98495  0.83448  1.0000
  H   H5149     1.0  0.81684  0.52015  0.96642  1.0000
  C   C4300     1.0  0.58182  0.99160  0.79916  1.0000
  C   C4301     1.0  0.94937  0.49874  0.89156  1.0000
  H   H5150     1.0  0.50545  0.98886  0.89710  1.0000
  Fe  Fe575     1.0  0.50201  0.69993  0.94179  1.0000
  H   H5151     1.0  0.50463  0.62287  0.94678  1.0000
  H   H5152     1.0  0.93778  0.53343  0.81834  1.0000
  C   C4302     1.0  0.85267  0.50533  0.98092  1.0000
  S   S1151     1.0  0.50490  0.81314  0.91471  1.0000
  H   H5153     1.0  0.50136  0.89219  0.97742  1.0000
  H   H5154     1.0  0.60356  0.58914  0.98989  1.0000
  C   C4303     1.0  0.51292  0.99183  0.89747  1.0000
  N   N285      1.0  0.93536  0.54889  0.79728  1.0000
  H   H5155     1.0  0.49928  0.90775  0.97174  1.0000
  C   C4304     1.0  0.50773  0.83079  0.92277  1.0000
  H   H5156     1.0  0.53794  0.68184  0.98705  1.0000
  H   H5157     1.0  0.57501  0.99111  0.82434  1.0000
  H   H5158     1.0  0.61859  0.70434  0.97315  1.0000
  H   H5159     1.0  0.51364  0.92958  0.93513  1.0000
  H   H5160     1.0  0.92306  0.56436  0.80222  1.0000
  H   H5161     1.0  0.73312  0.49339  0.97584  1.0000
  C   C4305     1.0  0.52763  0.65311  0.98993  1.0000
  H   H5162     1.0  0.56483  0.63442  0.98457  1.0000
  H   H5163     1.0  0.59326  0.63714  0.98459  1.0000
  H   H5164     1.0  0.52342  0.65351  0.98278  1.0000
  H   H5165     1.0  0.51064  0.99090  0.84689  1.0000
  C   C4306     1.0  0.94190  0.49806  0.88508  1.0000
  C   C4307     1.0  0.80065  0.50273  0.98837  1.0000
  C   C4308     1.0  0.49858  0.83427  0.94240  1.0000
  H   H5166     1.0  0.52911  0.73994  0.97795  1.0000
  C   C4309     1.0  0.93068  0.49603  0.89070  1.0000
  C   C4310     1.0  0.50132  0.59853  0.98829  1.0000
  H   H5167     1.0  0.96198  0.49525  0.82394  1.0000
  H   H5168     1.0  0.50654  0.78919  0.98129  1.0000
  C   C4311     1.0  0.94535  0.55157  0.80000  1.0000
  H   H5169     1.0  0.84148  0.52058  0.98637  1.0000
  Fe  Fe576     1.0  0.55053  0.59769  0.98814  1.0000
  N   N286      1.0  0.49951  0.91221  0.83303  1.0000
  N   N287      1.0  0.49869  0.80645  0.98483  1.0000
  H   H5170     1.0  0.50140  0.61513  0.96173  1.0000
  C   C4312     1.0  0.74030  0.51428  0.98724  1.0000
  H   H5171     1.0  0.55375  0.70583  0.98952  1.0000
  N   N288      1.0  0.55594  0.67346  0.98811  1.0000
  C   C4313     1.0  0.73383  0.52582  0.98703  1.0000
  C   C4314     1.0  0.55607  0.80944  0.99018  1.0000
  H   H5172     1.0  0.60773  0.69265  0.99021  1.0000
  C   C4315     1.0  0.50296  0.58604  0.96503  1.0000
  H   H5173     1.0  0.59460  0.67153  0.98404  1.0000
  C   C4316     1.0  0.50563  0.82475  0.98366  1.0000
  C   C4317     1.0  0.57437  0.98711  0.83386  1.0000
  H   H5174     1.0  0.52613  0.93639  0.79151  1.0000
  C   C4318     1.0  0.50804  0.79553  0.98547  1.0000
  S   S1152     1.0  0.49758  0.84088  0.95391  1.0000
  H   H5175     1.0  0.51687  0.79735  0.98093  1.0000
  H   H5176     1.0  0.50054  0.57106  0.97924  1.0000
  H   H5177     1.0  0.91248  0.50074  0.92353  1.0000
  C   C4319     1.0  0.79397  0.51381  0.99017  1.0000
  H   H5178     1.0  0.68613  0.53204  0.98698  1.0000
  H   H5179     1.0  0.49976  0.89414  0.84172  1.0000
  H   H5180     1.0  0.87931  0.51191  0.98788  1.0000
  H   H5181     1.0  0.50131  0.74672  0.92879  1.0000
  H   H5182     1.0  0.57483  0.66894  0.98506  1.0000
  H   H5183     1.0  0.60994  0.65342  0.98790  1.0000
  C   C4320     1.0  0.49648  0.65377  0.96823  1.0000
  H   H5184     1.0  0.54518  0.69038  0.99132  1.0000
