data_image0
_chemical_formula_structural       HCFeS2FeCFeSHS2C2FeHSH3CNCH4C2H3CSHC2H4C3HC2HCH2C6H4C5H6SC2FeHCSH2CH3FeC4HCSH5CH2CNH4CHCSCHC2SH2CSC6H2S2H3CNH2NH2C4HCFeSCFeS2FeSFeS3FeS2FeS2FeSFeCS2HSCH3CH3SC4H2C3HC3HC8SHC2H2C2H2C3HC2H4C6H4C3H2C2H4CH2FeHCH2SHCHCH7SH2NC2H2NHC2HCH2SC6HC4SHCH5C2NC2H4SC2HNH3CH4C3HCH2NC9H14C3H3CH4SCH3C8HSNHC2HFeCH2C4H2C2H4CHCHSC3H2SH2CHSHCH2CH2CH2C2HCHCHCH2CHCNH2CH2CHCH2C2H2SHC4HCNH2CFeHC2NH2CH2C2NHC2HC2HFeCHC2HC2HCH2FeCH2CHCHCH3CHCSHSH2C2HCFeH4CH3SCFeCHCHSCH3CH2C2H4CH3CH3CNH4CH4C2H2NHCFeS2FeS2Fe2S2FeSCFeSHFeSFeCS2HCHSCHFeCH7CS2H5C2HFeSHSH2FeHCHC2FeCFeC3HCHC2SHCHSC4H2C2H2SHCH2C3SCSHCH4NHSHCH6SCH2NCHCH2CHCH2C6H7NFeH2CH2SNSH3SH2CFeHC3H3CHC2HC3H2C3NHSH2CFeH2C6SC4HCHCHCH2FeSHC2HSH3CSCHCH2C4H2S2CH2CH3CHCH2CHCSCH2CHCHCHCH6SHC2HCH2CSCH2FeS2C2H2C2SCH2SCHCSHFeSC2HCH3FeSCHSH2CHC2H2C3FeH4NCH2CHCHCH4CFeSC2SC8SHSH3CSHC2H3CSHCH2C4H4CH2FeS2CHFeCSCHSCSCHFeCHSFeSCFeCHSC2H2C2NC2H4CHSCH3C8H2SC5H3CHCSHCH2NH7FeH2C2HC2SC2HSH2CFeHCHC2H2CSHSFeHCHC2HC2SFeC2HC2HCHC2HCH2NHC2FeC2H2FeCH2SHCHCHCSCFeH4CSH2CHC2FeH3CSCSCH3S2NHSCHC4SHCHSCNH3CH2C2H2CH4SCHCHCFeH3CHCHC2SH2NH8CH2CFeHC2SFeH2FeCHFeSHFeS2FeSFeS3FeS2CFeCHS2NH2S2CSCHC2HNHCFeHS3HSC2H2C2SHCH2CSH6CH2C2SCH3C5SCHNC7H4C3HNCHCHC5HCH2CH3CHNC6H4CSH3CH2C2H2C2NHCHSC6H4C6H8CSCH2C3H9CHCHNS2CHCH5CHC2HNC2HCHCHC5H2C2HFeHNCH2C4HCNC5H2CHCH3FeCFeHFeHSC2HCHCFeCHCSCSCH4C2HCHC2H2CH4C3HCH6CFeSHCSHFeCHC2H3NHCH2C2HC2H5C3HCH3C4H6C2HCFeCHC2HCH3CSHCFeC2FeS2FeS2FeCFeCS2HFeS2FeHSHSH2S2H8FeCHC2SHSHCNHFeH2CH3NFeSH2CSFeSFeCFeCHSC2HCH2C2HC2HCHC2SH5C3H2FeC2HC3H2SCH3CHCH2CHCFeC2HSH2NHCSHC2HCHC2H2FeHNC3HCH5CSH2C2SC2HNHC4H2C4H3SC6H4C6H4C3HSCH4SCHS2C2HC4HCH3CSH3C2HCHSHC2HC2NH5CH4CH5CH3CHCH4CHFeH2CFeS2FeS2FeSFeS4CSFeS2FeS2FeSFeS3FeSH5C3FeS2FeSFeSH2C5H2SC2H6C2HCH4C6H5CNHCH2CHC4HCH2C6H4C6H4C6H5C2HC3H8SH3CHC3HCNH5C2HC3SHNCFeHCH6CHCHSH2CH3C4H3CH3CHCHC3H4C3HC2FeH2C2H2SHCHNH2C2HCHC2HCH2CH2CHCHCH2CHCH2C3H3C2H2SH2CHC2HC4H2CH2CHNCH2C5HCH2NCH2C2SC2HCSNHC3H2CH4C2NCHNCH7SCH4CHCH4CHCH3CH4C4HC2HCHSHCHFeC2H3NSH2NCSCFeHSFeS2CH2CHNFeC3H2C2H2C4H2C2H3SH4C3HCHNH3SHSHCHC6H6CH2CHCHCHFeH6CHCH2NHCH3SHCSH2C4HCHSH6SH3C3H2CHNSH2S2C2H2NHSHCSCH3CSHSHCHC5H2CHCH2C3HCSFeCHSHCHCHCH2C5HSHC3HC2H2CH2CFeC4H4FeCHC2HSCSHSHCHFeS2FeS2FeSFeS3FeS2FeS2FeSFeS3CH2C3H3C6H5C5H3C2HCHCSC6H5CH2CHCH3C2H3CH2CNSHC2HCH3CHC3HCH3C4NC7H7CH5NCH2C3H3CHC3H2SCH2C2H3NHCH3CSCNC8H4NH9C9H2CHCHC6HCH2CH2CH7CHCH2C2HCHCNC2H2C2H2CHCH4NH2CH2C2HCH3CH2CH3CHCHCHCH2FeCH2CHFeNH4FeS2FeH2C2H3SCSCH5C3H2SNFeSHFeS2FeSFeS3FeS3CFeS2CHSHC2H3C2H3NHFeH3CHCHCNCHC5H4CHSHCHCHC2H4CNCSC2H2CH4CHCHCHC2H4C2H2C6SH3C6H4C3H2CSCHNC4H3NC4HC3H18CHCHCHC3HCHCHCH2SCNCH2SCHC2H2CH2CSHCHNHFeHC3H3C5SHCHCSHFeCHCH3CH2C2H2C2H10C4HCNHC2HNH2CH5C3SC2HCHCHSHC2HCHCH2CH4CHFeH5CSHCH2CH2CHCFeHS3CH2C3H2C2H2S2H4NSCHSCH3CHS3CSHSCH3FeHSHFeC2H2NHC2HC3FeHCSH2SHCHCHCNH2C2H2C2SC4HCNHFeC2HFe2HCHC2HCH5S2HCH2SC2H2CHCHCSHC2HCHNHCH2CHCH2C3HCHCH2FeH3CHCNSCHC3H4CHCH3C2H7C2HFeH2C3H3SHSCFeSCFeS2FeSFeS3H2S2FeS2FeSCSCHSHCSCHSH3FeHSHCSCS2FeSC2FeCSH5CH2SHCNCHSH4C3HNH4C2HCH3C4H2CSCH5SH2C6H4CH3CHCFeHSC2FeCHSH3CHFeCH6C6H4C6H4C6H2CHC6HCH2SFeHCH3CH2CH2C2HNCNC3H2CFeH2CHFeCFeCHSC2H3NCH3CHSCH2SCH4C3HCSH4NCSH3FeCH4CH2CNCHSHSH2C2H2CHC5HCHSC3H4CHSH2CFeCHC3HCNSH2CH2CH6C3H2CHSH2C3HFeH4Fe2SHC2FeC4FeCSFeHSH2CSH2CH3SCHCH3S2CH2C5H3C2SCH3CHSH2C3H2S2HCH4CHCNCH3CHC2H2CN2HFeS2HSCFeSFeSHSFe2S2FeS2CHFeS3C3SFeNFeSHC2H6C4HC2HCH2C2SH5CH5CNCSC8H2FeHC9H4CHCHCH3SCHC2H2C3SCHC2HFeH2FeCH5CH5SCHS2HCHC3H2SHCHCH3CHC3FeS2FeS2FeSFeS3H6CNC3FeS2FeS2FeSFeS3HNHSH2C2H2CHC2H2CH4SH2C2H3SC2H3CNHCHCHFeH2CH2CHCH4CH3SCH2CHCHCH2CHNC3HCH2C3HNCH2C2HC5HCFeCHNHC3H2SHCH3CHSH2C9H4C2HCHC4H5SH4C2HCH2C6H4C6H2CHC6H2CHC6H4NCHC7HCH2CH3CHCH2C5H2CH4CH2CHC2HCH3CHFeHCHC3H2CHCHCH2SC2H2C2H2CFeCHC2SHC2HCNHCH4CHCH2CHCHNH2FeSHC2NC2H5CH2C2SH4SH2CNH3CH4NSCSHCH5C2H2CH2CHC2HCH3C2SHCHC2NC2H3C3H2CHSHC3HCHSH2FeS3HFeS2FeS2FeSFeS2CFeCSFeCFeS2FeS2FeNFeS3H2CH2FeS2HFeHCFeSCFeS2FeSFeS3H2CH2SFeSH2CH2CSFeCHSCHC2SH2Fe2SFeCS2C2S2HSFeCSFeS2FeSHC2HFeSCFeSHFeSFeCS2CSCH2CH2C3HCFeSC3HC5H4C2SHC3H3C6H7SCHSC2HSNHCH3CHCFeCH2C6H4C6H4C3H2C6H4CFeHNH2C2H2CH2C6H4C6H4C6H5CHNC6H7CH5CS2HNH2CH4CNC9H14SHCHFeHCHNHC3H2CHSHNCSH3C2H2SH4CFeH3CH2CHCSCHFeCNCHSFeCHNSH3SCNC9H14NC9H17CHC6HCHCH2CSCH2CH3CSHCNC9H14C4H3NFeCSC2SH2SH2CHCH3CH3NC2HNCFeCH5NH4C2H2CHSH2C4H3SCH2CHC2HCSHFeHCHSHCHCH3CH5CSC3SCH2CHCH5C2H3CHCHCH4C2H2CH7C3HNCHCHSCSH4CH3CH4C4FeCH3CHC3HFeCHFeH2FeCNC2HFeHCSCHCHSHCHCH2SHSCHC3SHC2HCHCH2C2H2FeHCHC2SHC3H4SH2C2H3SHCNHC2H2CH4C3HCSCH2SHC2HCH2CH2C3HCHCH3CNC2HC3HNCH2C2HC2HFeH4CH3CHC2H3CHCH2FeH2C4H2CHCHCHCSHCHFeH6CFeSCHFeS2FeS2FeSFeS3CFe2S2FeS2CSHFeS2FeS3FeSFeS3H2CFeS2FeSCFeSFeS3H3CHSH2C3SNH2CH2C4H3C2H3C2HC7H4C4HC6H4C6H4C6H4C5H8C3H4C2H2CH4CH2CH3C2H3CHCNC9H12CH5C2HCH2C3H3CH3CH3CH2FeHC2H2NC2HSC2H5CH2CHC2HC3HCNCHCHCSHC3SCH5SHSHC2HCH7C2H4C2H3C2SHFeNC7H13CHCHC3H2CFeCH3CHCNCH6C3H2C2HCH2NC3SCHNH3CNCFeHNC6HCSHC3HCHC3H2C2H2C2H3C3H2CHSHC2S2C2HC2H4CH2CFeS2FeS2FeSFeS3FeS2FeS2FeSFeS3H2CHSCHFe2S2FeSHSHCNH3CHCH2C7H3FeC2HC2H2NH2C3HC2H2NHC4H2C6H4C6H9C4HCH3FeNCHC2H3CH2CHCH3FeNC5SC2H4NSNC4H6CHCHCH3C3HCHCHC4H5NC5H2SC4SHCH6CHCH2S2FeH4SC2HCHSCFeH4FeH2CH2SH2CH2CHCH2NH2CH2CH5CHCHCH2C3H2CFeCHCH2CH2C3H4C3HC2HC2HCNH2CH3C2HCHSCFeH2C2H6CH3CSHCSC3HC2H3C2SH2NC9H11CHS2H3CHCHC2NH2NHC2HCHC2HCHCHC2FeSHFeSH3CH3CHC2HFeHSCHC2H4SFeS2FeS2FeSFeS3CSHFeS2FeSFeHSHFeSFeHSCH3S2FeS2FeS2FeSFeS3FeS2FeS2FeSFeS3CSFeS4FeS2FeS2FeSFeS3HC2HSFeS2FeS2FeSFeS3CFeS2FeSFeS2H2SHC2HSCFeC3H2C6H4C6H3C7H4C6H4C6H4C7H4C2HC2H2CH4C8H4CHC3HCH4C6H4C4HCH2C8H4C3H2C3HC6H6C3HC3H3CH2SHC6H4C6H5C2SHCH2CHC6H4C2HC2H3SNHC2HC2H2C3FeH3CHC6H4CHCHC6H3CFeCHCH6NC7H13CHC2HCSC2H2CHC2SHCHCHCH4C4HC2HFeH2SH2C2HCH2CHC2SC2H2CH3C2HSH2CHC2HC4H6CHC7HSH4C2H2C4H7SC2H2NCH2CH4C2HSHCHCH2NC2H2C2H2C2NCHNC2H2C2HFe2HFeCNCH2NC3NCH5CH4SCHC4SCH6SC4H2CH3C3H3CH4C2HCH2SC3HCH3CHC3SCHC2HFeH6FeH2CHC2HSNCH4CH2SCH2SHCHCH5C9H5CHC2HCHSHC2H2CFeC2HC4H3CHC2SH3C2H2C2HCH5C2H3CSHCSHCH5CHCH4FeHC2NH2NH3CNCSNH4CFeC2HC2NH2CH2CHCNHC2H2CH5CH3C2HNC3HNH2C2HNCHCH4CH2NH4FeH2C3HCHCSC2H2NH5C2H2CSH2CHCHNHFeHCH4CH2FeNCH2SH2SHC2FeCH3CHSH2CHC2FeHNCH5C2H2CHCFeHCH2C5H3CHNC2HC2HCH2CH5C2HC3H2SCH2CSHC3HC2H2CH3CH2C2H2CSCHCH2CSH2FeCHC2HCH2C4H3C2HC2HCH2CSCHC3H2CSHC2H3C2H6FeSCFeS2FeSFeSHSHSCSFeSHSFeHSFeSHCHFeHS3HCSHFeSHFeSFe2S2FeSFeS3FeS2FeS2FeSFeS3FeS2FeS2FeSFeHS2FeS2FeS2FeSFeS3FeSFeSHFeS2Fe2S3HNHCHCH3CHCSH2C7H4CH2C2SHCH2C2HCHCH4C2H4C6H4C6H4C2SHC2HC2HCHC3FeH3C7H6SCH2C6H7CS2H6CH5CH2NH2C3H2C2HCHC3H2C6H4C6H2CHC6H4C2H3C3H2S2HC2H2C2H4C3HNCNC2NC9H15CH2CHC4HC5H7C2H3CNHC2H2C3FeHCSH4CHCH5CHC2H2CH5C2SHCNC4H3CSHCNCHCH4CHCH2SFeHCHSC2H2NC7HCHC2H5CHCHCNC8H11NC6H10CHCH2C3H2SCHCHC2H3CHCHCH2FeCFeC2SCHCNH3CH3CFeC2NC2H2CH2CSFeCH5CH6CH2FeCH2FeH3CHCSH2C2NCHC2H2CFeSH2CHC3SCH3CN2CH7CHC2H2C2HCH4CH2CHCH3CNH2C2HCHSCHC3H2CH2CHSHFeH5C2H2C2HSCH2C3HC2HCH2CNCH3SCFeHNH2CHNHCH3CFeH3CSH3CHC3H2CH5SFeS2FeSCFeSFeS3FeS2FeCHC2FeHS2FeS2FeS2FeCFeS3CSHFeCHFeH2CHSH2SC2SCNH3CH5C2H2S2CFeH4C2HC5H3C3H5CNHSFeHCH2CHC5H3NC7H4C6H4C6H3SFeC2H2CFeH2C3SCHCHC2H4CH3NHCH2SHCHCH2C2HCSNHC3H2CH2C2H3CSCHNH3NH6CH2C3HSC2HCH10CFeHCH2C2H2FeC2H4CH3SCHC2H4C2HC2SH2CHCH2CFeH2C3H2SHCH5SHC2H2C4SCHS3CFeCFeS2H2NH2FeSH2CH2C3H2CNC2NH3S2C2HCH2FeCH2C3HCSHFeHC6SCSC2H3Fe2H2CHSCFeC5H5SFeSH4CHSHSCSC4SHFeCH3CH2SC2HSC2S2HCFeHC2FeC2NHC3HCHCH3FeH2CHC2H3SH2C2H2C2H5C2H3CH2CH2CH3C2H2CH2C2HCH2CHCH2CSFeCS2HFeSFeSCSFeS2FeCSHFeH2SFeSCFeS2FeSFeS4HCH2SH2CFeSCSH2FeH2FeS2H2FeS3FeS2FeSHFeSFeS3FeSFeS2FeS2FeSFeHS3HFeH2CHFeC3H3CH2C7H3C6H4C5H3S2C4HCH4SCHC4SH5C6H7CHC6H4C6H2SHCH3SCFeHCHCSHSC7H4C7H4C2H3CNC9H14NC9H14NC9H13CSFeC2HSC2H2SH2C2HCNHFeHCH2C2HSCHC4FeH2C3HCHCHCHNC9H14C2SCSHCS2NH3FeHSH2FeCFeC2H2CH2SH5FeHCSHCHSC2H3CHCH4SHSHC2HCHCFe2SH2FeSHC3Fe2C2HSC4HFeS2HCH2CHC4H2NSCSH2CSH2NC3SH2NCSHC2H2CHS2HCHC2HCNHC2HCHC2SCFeH2CSFeCH5SH3C6HFeHC4H3SHCHCNSC2H2CH4CH2CH3CHCH4CHNH2C4SH2C2HSH7C2NHCFeHCH2FeCHFeHCNCH2CH3CH2CSHCSCSHCHC5H4FeH3CSC3H2CH4CSHFeC2NCH2C2HCHCFeHFeNHCHCHNC3H6C2H4CH2C2HCNH3SHCH2C2HC2HC3SCH3C2HC2HSHC2HC3H11CH2C4HCHCHCH2CH3CHSCH4CH3C2HCH3FeS2FeHSFeH2S3HCSCFeSCFeSFeS2C2H3C3NC2H4CHSC2HCHC2SC6H4CHCH4CNC6H2FeC2H7NC4H3C2H8CSH2CHCH2FeH2CHCH6C2H2FeS2FeS2FeSFeS3HFeS2FeS2FeSFeS3CHCHC9H4C3HC2H4C6H2CHC6H4C2HC3HNH2CH3C6H3CH8CHC2H2CHCSC2H2CHNHNC2H2NC3H2SH3CSC5H4CH5CH4CNCHCHCH3CHNCNH2C2HCH4NC3HCHC2H2CHCH5CHCHCHC4SHCHCH2C2HCHC2H2C3HCHCH3CH2NCH3C2H4SCH2CH4C3H2CHCH3SHC2H2CHNC2H4C2Fe2HC2FeS2FeSCFeSH2SHSC6H4CHSC4H3C5FeCSH4C6H3C2HSHC3HC2H4NH5C2H3C2H3CHCNHC2FeCSHC2SH4NCHSC2HC2H3C3H2FeH8SCFeCHCHC2H4NC2HCH2CH6SCH6CH3C2H3C2H3C2SH2CSHCSHSHSH2CHCHFeSCH2C3HCH2SFeH2CHCH2FeS2FeS2FeSHCS2FeSFeS2H2FeS2H2C6H4C4HC2H3CH2SFeCHCHC2SH2CHCHSC3HCHFeH5CH3C2NC3H2C2HC3H3C5SH2CHCH2C3HC2HCFeSFeS2FeHFeCS2FeS2FeS2FeSFeS3C4HC2H5CH2SNH3C6H6NC5H3CH3NH3CH2C2H3CH4C2HC4H3SHC8HCH2CNCH4C3HCSHC2SCH2N2CHC2HCHC3HCHS2HC3H3CHNCHC3H3CH5CH2CHCH4CH2CH5C2H2C3H5C2HCHCH6C3H3CHC3SCH2FeHC2SC2H4SC2H3FeSH2FeC2HCHSC2H2SFeHFeH4CSHCSHFeCSHCSCHCFeCHFeCH2CHCSH3NH2CSCH2C2HC2HNHC2H2FeHCHC5FeH3CH3C2H2CSCHCH3FeHCHSFeSHC2SCH4NCHC2HCH2SFeCH2SH2C2H2CSC3SCH2SCHCHCHC2HC2HCHC2HC2H6SNCH3C3HC7FeS2FeS2FeSFeS3FeS2FeS2FeHFeS3H2C6H2C7H4C2HCH6NH2CHC3HC2HC4H3CHCH2CHC2H2C2H2CH12C10HNCHCH5C2HC2SCHCH2CHCHSCHC4H2NCH2CHCNHCH2CNHCH4CHCH2C2H2C3NH4C3HC2H3C2H2C2HC2H2SH3CHNCH2CH2CH2C5H3CH3CH6CHC2H4FeCSC2HSHFeHSHC2HSCHS2H2FeSFeSHFe3S2HFe2HSCFeS2FeCSCHC2S2H2SCSHCH3C8H3C2HC4HSH2CNH2CHC7FeH3CH2C4H3NCHCH3C2SCSH7CSCHCSHC2H2CSHCHSCHCFeC2SCHC3H2C2H2CH4CH2FeH3FeH2SCSNH2FeCFeHC2HFeC2HCHC2HNH2CSCHCSH3CH2C2H3C2HNCHSHS2CSHFeHNCH2CSC2H3SH2FeCHC4FeSHFeS2HFeSHCSHCSFeS2FeHFeSHSFeS2FeS2FeSFeS3C2FeHSHC3SHC2FeS2HFeHSFeS2FeH2S2FeCSFe2SHFeHS2FeS2FeSCFeHFeS3CH4C4S2C2HCH2NCHC7H7SFeH2C6H4C6H2CHC2HC3HCH2CH2C8H4C6H4CNH5C6H4SHFeC3HSH2C6H5CH2C2H3CH3CHC2SNC4H2C6H4C5H4NHC2HC2HCHC2HSFeHSH2SCFeCH3CH2C3NC9H14C2FeCNFeC3H4CH2C2H5CNH2C2H3CH7C2HS2H3C2H3CHCHC2SH3CHC2H2CH4CHSNHNC2H2CH9CFeHCHSCFeHC2NC4H4CNC9H14S2H2C2H2NHCHCHCH2C3NH2NHCFeSCFeHSC2HC4HCSH2SC2HCH2CHCHSHC2H3CH3C2H4CHC2H2SCHC2HC2H2CHFeH2NC5H2CH2CH8CHC3H3C2HCHCFeC3SHCHFeHC3H2C2HCSHCH2CNC2H3SH2SC2H2SCFeC2SCHCH2CHSCNC5HCHFeH3CHC2HCS2CHNHCH5CHSCSHC2H4CH3CHFeHS2CFeCSNCHSCH2CHSC2SH3C3HSHCHCHC2HCSH2C4SHCH2C4SHCH2CH4CNHC2H5SFeCHC3H5FeH2C2HCH2CHSH5CH3CSHCH2SH4CHFeCNCFeHCHC2HCSCFeHSCSH2SFeS2FeS2FeSFeS3H3C2FeHSC2HSCHFeS2FeS2FeCFeS3FeSHCSCFeHFeSH2CHCHSCSHFeSCSFeS2FeS2FeSFeS3FeS2FeS2FeSFeS3H2FeS2FeS2FeHFeS3FeSH2SCH3CFeSC3SCHCS2C6H3FeHSCH3CH2CNC6H4C6H6C2H2CH3CHCH2CHCH2CHC6H4C6H4C6H4Fe2CSHCHCH2SHCHFeHCHCHSHCHNC6H5CHCSCHC7H5C2SCFeH4C6H4CH2SFeC11H8SHCFeH2C6H5C6H4C2HC2HFeCNC2HC2H6C3NC9H14CHCSH5C2H8NH2C2HCFeH9NHCHC3HC3H6CHC2SC2HNC9H13CH4NHFeC2HSC3SHC2NH2SC3H3FeH4C2HC2HCH6CHC3H2CH2NC2H2CH2C2FeCHC2HCH3C2H2C2H4CH5C3H6C2HCHNCHCHSH2NCHCH3CH3CH5S2CHFeCNCH3C3H2FeHCHC2SCSCH2C2H3CH2SH3CH2C2HCHSH5C2HCHCH3C3HCH2SNH4NHC3HNCH2CHCH4CSCHCH4CH2CNC2H3CHC2HSHCSC2H2C2HFeH2C3H2C2HCSCH2CH2SHSHFeSCHFeSFeCSHFeHSCNHFeH2CSHC2HS3H2SH2SHC3HC2HSHC2HSC2H4CH3S2HC5HC5H2C6H6C2H2CH3Fe2HSC2H2SCHFeC2FeH2C3HS2HNCHSCNHC3HC2FeC2H2CFeHFeHCHCH2C2H2SHCHS2H2SH2CFeSH2C2HFe2HCFe2SHC3HFeCSFeS2FeS2FeSFeS3CFeHSH3C2HNFeH2CHSFeS2FeS2FeSFeS3HSCHFeHS2C2H3S2H2C5H5NCSCFeCH2C3HC2HC6H3C6H4C6H4C4H2CSH6C3HC2HC3HCH4C6H4C6H4CSH3C6H4C4H2C2NH7CHCFeCHSCHNHCH2C2HCFeCH2C2H3NC9HCH2CHCHCH7C2HSCHFeH2N2H4C3FeHC3HCHCHSCHC2HC3H5CH6C2H2NCH2C4HC2H3FeCHCH4CH7C2H2C2HCHC3HSCHCSHCHCH2CHCHCHCHC2H4CH2C2H2CHC2HC2H2CH4NHCHSC2NH2SHCHC3SH4CHCNCHCH8CH3CNH4CH4CHCNH6CHCHC2H2C2HCH2CH2SHC3HSH2CFeS2FeS2FeSFeS3CFeHSH3SCH2FeS2FeS2FeSFeS3C2H2CFeS2FeS2FeS2FeSFeS4FeS2FeS2FeSFeS3FeS2FeS2FeSFeS3FeS2FeS2FeSFeS3H2SH4C4HNH5C4HCSH2C3HCHC3H3C6H4CHC2H3NHC4H2CH4C2H2NCHC9H4C2HC2HCHC7H4C6H4C7HC2HSH3C6H6C2NCHC5H4CHSHCH2C8H4C6H4C6H6CHC6H4FeNC9H15SHCHNC2HC6H4SH2NH4C2FeC4H2CSH3FeH2CH2SCH2NHNC8H10FeN2H3NC2H5CH4SFeH2C2HCHC2H3CSCH2SH4C4HNCHSHCH2SHC2FeH3SCH3CHCHC2HCHCH2CH2CFeH2C2SCNCH3C4SC2H2NH2CH2C6HSHCH6CH3C2HCH3C3HCH9SCHCHNH4CSH3CSH8CHCSH3CHNHCNCH3CH3C2HCH5C2HSC2SCHCH2C2HC2HCH6CHCHC2H3C2HC2FeCFeCH2SHC2HSH2C2H3CH3CH5CHSH2CHCNC3H2CH3CH4CH2CFeHCHFeH3CHC2SH7NCH6C2H4CSHCH2CNC2H2C2HCHCH2SH2CHC4H3FeH5FeC3H2C3HCH2C2H2C2HCHC2H3C3HC2HCSCH4CHNHC3H2CHC3H2C2H2SC2H4CHSCH2CHC2H2C3HCHCHC5HCHSCHCH4CHCHCH2C2HC3S2HFeNC5H4SHCH3CH2NCFeCHCH5CHCHCHNH2CFeS2FeS2FeSFeS3HS2FeS2FeS2FeSFeS3FeS2FeSHFeSFeS3H2FeS2FeS2FeSH2S2HSNFeS2FeS2FeHFeS3FeS2CSHFeSFeSHSHFeS2HCH2CHC8H4C6H5SC3NH3SC6H4C6H4C6H2CH2C6H2CHC6H6CHC2HNSHC2HNHSH2C6H4C6H4C6H4C5H2C7H7C2HNC7H14C6H6C3HCHSHC3H2CHC2HCH4SH3C2HC8H2SCHCH7CH2FeHCHCNC9H16C5HFeH3FeH6CHCH3NH2CH2NCHCH2CHCH2C2NCHC2HC3H5C4SH3CHCHSCH2NCHCHFeC2HC2HNCHC2H4CH3FeH5CHCHFeC3H2C2H3C2FeHCSH6C4H3CHC2SC2H2CH3C2HNHC3H4CH2CH4CFeCHCH4C5SHCNHCNCH2CHC2SC2H2SC3FeH4CHNHC7HC4HC2SCFeHSHCHCH2SCHSHCHNHSFeH2CHFeHC4H2C2H2C2SC2H3C2H3CHCH2CH2FeCFeC2H4CSCFeHSH4CSH3C5H4CSHCSCFeH2CH2CH5CH2SHFeCHC2H3C2SC2SH2C2H2NHFeCH3CH3SC2SH4CHFeCHSC2H3NH4C2HCFeSH3SH2C2H6CH2CH4CN2SH4CFeHC2H3C2H3CHCSNC4H5C2H3SH2C3HSCH2FeSFeS2FeSFeS3CFeS2FeS2FeSFeS3CSHFeS2FeS2FeSFeS3C6H4C6H4C6H7C3H7C3NCH4C6H4C9H3C2HCH2CHCNH2CH7NCSNC9H15SC2HCHCHCHNC2HSC2HC2HC2NC7H12NC2HC6HCH2C2HCH3CH2NC9H18CH2C5HCH2CHC3H2CH4C3HC2H3SHCH3CH3S3CH5FeH2CHC4HSHCHCH2CH2FeHSHSCSNH2CFeH5C2H5C2H7CHSHC2H2CH3CHCHSHCSH2C2NHFeC2HCH2CH3FeSH3C3HFeHCHCHFeHNH
_chemical_formula_sum              "H6912 C5760 Fe768 S1536 N384"
_cell_length_a       131.933
_cell_length_b       130.14
_cell_length_c       129.961
_cell_angle_alpha    73.704
_cell_angle_beta     73.6493
_cell_angle_gamma    73.7557

_space_group_name_H-M_alt    "P 1"
_space_group_IT_number       1

loop_
  _space_group_symop_operation_xyz
  'x, y, z'

loop_
  _atom_site_type_symbol
  _atom_site_label
  _atom_site_symmetry_multiplicity
  _atom_site_fract_x
  _atom_site_fract_y
  _atom_site_fract_z
  _atom_site_occupancy
  H   H1        1.0  0.09409  0.46842  0.00112  1.0000
  C   C1        1.0  0.17362  0.47625  0.04420  1.0000
  Fe  Fe1       1.0  0.05866  0.47015  0.02466  1.0000
  S   S1        1.0  0.04877  0.46144  0.01974  1.0000
  S   S2        1.0  0.07696  0.46560  0.02166  1.0000
  Fe  Fe2       1.0  0.04161  0.47811  0.01057  1.0000
  C   C2        1.0  0.18118  0.46926  0.01793  1.0000
  Fe  Fe3       1.0  0.03590  0.46606  0.03443  1.0000
  S   S3        1.0  0.02601  0.45470  0.04714  1.0000
  H   H2        1.0  0.01236  0.46728  0.07740  1.0000
  S   S4        1.0  0.04643  0.47332  0.04005  1.0000
  S   S5        1.0  0.13757  0.46877  0.01014  1.0000
  C   C3        1.0  0.99039  0.46780  0.06205  1.0000
  C   C4        1.0  0.00985  0.46819  0.23103  1.0000
  Fe  Fe4       1.0  0.11770  0.47472  0.04735  1.0000
  H   H3        1.0  0.10790  0.46206  0.99770  1.0000
  S   S6        1.0  0.10085  0.47173  0.05512  1.0000
  H   H4        1.0  0.00747  0.44954  0.03702  1.0000
  H   H5        1.0  0.00620  0.46331  0.02952  1.0000
  H   H6        1.0  0.99278  0.48277  0.14345  1.0000
  C   C5        1.0  0.01309  0.47081  0.13825  1.0000
  N   N1        1.0  0.01499  0.45128  0.01971  1.0000
  C   C6        1.0  0.01076  0.47344  0.98874  1.0000
  H   H7        1.0  0.01607  0.43438  0.02851  1.0000
  H   H8        1.0  0.09935  0.46372  0.02086  1.0000
  H   H9        1.0  0.07850  0.47109  0.99703  1.0000
  H   H10       1.0  0.00734  0.46613  0.14444  1.0000
  C   C7        1.0  0.01287  0.47013  0.00737  1.0000
  C   C8        1.0  0.07884  0.46693  0.99078  1.0000
  H   H11       1.0  0.99247  0.48649  0.07438  1.0000
  H   H12       1.0  0.00093  0.47313  0.15915  1.0000
  H   H13       1.0  0.02950  0.45394  0.23396  1.0000
  C   C9        1.0  0.03890  0.46659  0.98639  1.0000
  S   S7        1.0  0.13309  0.46271  0.04215  1.0000
  H   H14       1.0  0.01659  0.48605  0.12044  1.0000
  C   C10       1.0  0.99800  0.48268  0.22031  1.0000
  C   C11       1.0  0.99624  0.45815  0.06760  1.0000
  H   H15       1.0  0.00986  0.47558  0.09317  1.0000
  H   H16       1.0  0.01812  0.44953  0.22392  1.0000
  H   H17       1.0  0.99050  0.48566  0.21749  1.0000
  H   H18       1.0  0.18397  0.46267  0.07807  1.0000
  C   C12       1.0  0.01250  0.46020  0.05317  1.0000
  C   C13       1.0  0.00674  0.47012  0.04795  1.0000
  C   C14       1.0  0.99569  0.47379  0.05226  1.0000
  H   H19       1.0  0.01288  0.44654  0.00053  1.0000
  C   C15       1.0  0.09974  0.46209  0.99677  1.0000
  C   C16       1.0  0.00723  0.45427  0.06306  1.0000
  H   H20       1.0  0.01064  0.47476  0.04034  1.0000
  C   C17       1.0  0.00005  0.47236  0.22729  1.0000
  H   H21       1.0  0.17238  0.47526  0.06795  1.0000
  H   H22       1.0  0.01163  0.44658  0.06716  1.0000
  C   C18       1.0  0.08341  0.46708  0.03124  1.0000
  C   C19       1.0  0.07752  0.46980  0.04126  1.0000
  C   C20       1.0  0.08292  0.47110  0.04860  1.0000
  C   C21       1.0  0.09421  0.46992  0.04587  1.0000
  C   C22       1.0  0.10006  0.46735  0.03578  1.0000
  C   C23       1.0  0.09470  0.46585  0.02855  1.0000
  H   H23       1.0  0.06883  0.47076  0.04344  1.0000
  H   H24       1.0  0.07835  0.47306  0.05639  1.0000
  H   H25       1.0  0.10878  0.46630  0.03363  1.0000
  H   H26       1.0  0.16852  0.48436  0.04416  1.0000
  C   C24       1.0  0.17427  0.48315  0.06667  1.0000
  C   C25       1.0  0.00633  0.45495  0.02889  1.0000
  C   C26       1.0  0.16892  0.46705  0.04823  1.0000
  C   C27       1.0  0.01158  0.47733  0.99735  1.0000
  C   C28       1.0  0.17562  0.45658  0.04858  1.0000
  H   H27       1.0  0.16739  0.48194  0.02058  1.0000
  H   H28       1.0  0.06144  0.46910  0.99490  1.0000
  H   H29       1.0  0.08591  0.48538  0.01481  1.0000
  H   H30       1.0  0.00186  0.47661  0.17630  1.0000
  H   H31       1.0  0.09780  0.45401  0.00139  1.0000
  H   H32       1.0  0.99394  0.46759  0.22960  1.0000
  S   S8        1.0  0.12608  0.48424  0.05314  1.0000
  C   C29       1.0  0.01202  0.44889  0.23185  1.0000
  C   C30       1.0  0.12312  0.48699  0.00173  1.0000
  Fe  Fe5       1.0  0.14168  0.47343  0.04614  1.0000
  H   H33       1.0  0.15587  0.47616  0.99803  1.0000
  C   C31       1.0  0.02559  0.45144  0.02139  1.0000
  S   S9        1.0  0.15523  0.46827  0.05531  1.0000
  H   H34       1.0  0.01381  0.47352  0.01366  1.0000
  H   H35       1.0  0.00403  0.45011  0.22987  1.0000
  C   C32       1.0  0.06897  0.46590  0.98960  1.0000
  H   H36       1.0  0.04108  0.46167  0.99398  1.0000
  H   H37       1.0  0.99218  0.45344  0.07513  1.0000
  H   H38       1.0  0.01166  0.48591  0.99611  1.0000
  Fe  Fe6       1.0  0.13408  0.47460  0.02579  1.0000
  C   C33       1.0  0.13218  0.47389  0.99028  1.0000
  C   C34       1.0  0.01121  0.46233  0.99011  1.0000
  C   C35       1.0  0.01737  0.47515  0.22752  1.0000
  C   C36       1.0  0.01396  0.47929  0.08505  1.0000
  H   H39       1.0  0.01331  0.46901  0.13029  1.0000
  C   C37       1.0  0.01243  0.45505  0.00013  1.0000
  S   S10       1.0  0.98806  0.44890  0.20803  1.0000
  H   H40       1.0  0.02498  0.47282  0.23004  1.0000
  H   H41       1.0  0.13784  0.46631  0.98895  1.0000
  H   H42       1.0  0.17211  0.44942  0.05196  1.0000
  H   H43       1.0  0.16838  0.47309  0.98888  1.0000
  H   H44       1.0  0.99612  0.48317  0.11017  1.0000
  C   C38       1.0  0.18458  0.48431  0.06700  1.0000
  H   H45       1.0  0.02172  0.47562  0.05889  1.0000
  H   H46       1.0  0.02574  0.45955  0.02250  1.0000
  C   C39       1.0  0.13023  0.47701  0.00023  1.0000
  N   N2        1.0  0.00980  0.48278  0.13794  1.0000
  H   H47       1.0  0.02124  0.46729  0.14016  1.0000
  H   H48       1.0  0.99819  0.45504  0.02792  1.0000
  H   H49       1.0  0.03226  0.44952  0.01428  1.0000
  H   H50       1.0  0.99346  0.43133  0.22548  1.0000
  C   C40       1.0  0.01328  0.45876  0.00911  1.0000
  H   H51       1.0  0.99119  0.48123  0.04789  1.0000
  C   C41       1.0  0.02055  0.47934  0.06576  1.0000
  S   S11       1.0  0.02800  0.48195  0.02476  1.0000
  C   C42       1.0  0.98867  0.43822  0.22907  1.0000
  H   H52       1.0  0.17648  0.46296  0.02133  1.0000
  C   C43       1.0  0.17603  0.48030  0.01747  1.0000
  C   C44       1.0  0.01532  0.47461  0.07620  1.0000
  S   S12       1.0  0.14399  0.48422  0.02927  1.0000
  H   H53       1.0  0.00717  0.43897  0.01920  1.0000
  H   H54       1.0  0.16741  0.47989  0.99952  1.0000
  C   C45       1.0  0.00532  0.47920  0.15864  1.0000
  S   S13       1.0  0.03851  0.48499  0.99347  1.0000
  C   C46       1.0  0.16315  0.47946  0.99345  1.0000
  C   C47       1.0  0.18498  0.47491  0.04078  1.0000
  C   C48       1.0  0.00570  0.48122  0.16853  1.0000
  C   C49       1.0  0.01498  0.43970  0.02034  1.0000
  C   C50       1.0  0.01041  0.48495  0.14832  1.0000
  C   C51       1.0  0.01526  0.48545  0.22045  1.0000
  H   H55       1.0  0.98804  0.46904  0.13141  1.0000
  H   H56       1.0  0.99760  0.48513  0.12893  1.0000
  S   S14       1.0  0.05248  0.48637  0.01436  1.0000
  S   S15       1.0  0.11839  0.48588  0.03084  1.0000
  H   H57       1.0  0.02758  0.44539  0.02893  1.0000
  H   H58       1.0  0.02175  0.43614  0.01410  1.0000
  H   H59       1.0  0.02545  0.48586  0.12875  1.0000
  C   C52       1.0  0.99850  0.48680  0.13652  1.0000
  N   N3        1.0  0.09919  0.46430  0.98504  1.0000
  H   H60       1.0  0.99823  0.43793  0.43643  1.0000
  H   H61       1.0  0.15630  0.08217  0.48426  1.0000
  N   N4        1.0  0.11215  0.02503  0.45014  1.0000
  H   H62       1.0  0.00316  0.46207  0.25293  1.0000
  H   H63       1.0  0.14718  0.00643  0.47891  1.0000
  C   C53       1.0  0.00787  0.09632  0.42703  1.0000
  C   C54       1.0  0.01993  0.24311  0.42445  1.0000
  C   C55       1.0  0.16141  0.02796  0.46313  1.0000
  C   C56       1.0  0.17425  0.00173  0.45696  1.0000
  H   H64       1.0  0.02580  0.22883  0.41746  1.0000
  C   C57       1.0  0.14341  0.06517  0.48010  1.0000
  Fe  Fe7       1.0  0.05471  0.05956  0.43637  1.0000
  S   S16       1.0  0.04010  0.05454  0.43573  1.0000
  C   C58       1.0  0.01876  0.23400  0.42157  1.0000
  Fe  Fe8       1.0  0.06909  0.04959  0.41767  1.0000
  S   S17       1.0  0.05562  0.04385  0.41487  1.0000
  S   S18       1.0  0.08687  0.04507  0.40987  1.0000
  Fe  Fe9       1.0  0.04531  0.06037  0.41759  1.0000
  S   S19       1.0  0.03157  0.07011  0.40932  1.0000
  Fe  Fe10      1.0  0.05124  0.03850  0.43322  1.0000
  S   S20       1.0  0.04571  0.02301  0.44344  1.0000
  S   S21       1.0  0.05923  0.06667  0.41840  1.0000
  S   S22       1.0  0.06549  0.04292  0.43576  1.0000
  Fe  Fe11      1.0  0.13539  0.05586  0.42590  1.0000
  S   S23       1.0  0.13961  0.03762  0.43104  1.0000
  S   S24       1.0  0.11807  0.06444  0.42505  1.0000
  Fe  Fe12      1.0  0.15738  0.05787  0.42788  1.0000
  S   S25       1.0  0.16303  0.03975  0.43345  1.0000
  S   S26       1.0  0.16877  0.06879  0.42565  1.0000
  Fe  Fe13      1.0  0.15595  0.03880  0.42015  1.0000
  S   S27       1.0  0.16449  0.02558  0.41089  1.0000
  Fe  Fe14      1.0  0.14619  0.04042  0.44373  1.0000
  C   C59       1.0  0.01196  0.03314  0.42972  1.0000
  S   S28       1.0  0.15128  0.05696  0.41366  1.0000
  S   S29       1.0  0.14109  0.05866  0.43943  1.0000
  H   H65       1.0  0.01501  0.29788  0.45440  1.0000
  S   S30       1.0  0.14058  0.03185  0.46101  1.0000
  C   C60       1.0  0.00858  0.23155  0.42389  1.0000
  H   H66       1.0  0.03233  0.03506  0.42780  1.0000
  H   H67       1.0  0.14695  0.00382  0.46217  1.0000
  H   H68       1.0  0.02153  0.12687  0.44552  1.0000
  C   C61       1.0  0.00728  0.06424  0.44447  1.0000
  H   H69       1.0  0.00175  0.17046  0.44160  1.0000
  H   H70       1.0  0.00402  0.42197  0.39588  1.0000
  H   H71       1.0  0.14555  0.99565  0.42776  1.0000
  S   S31       1.0  0.99784  0.39090  0.45897  1.0000
  C   C62       1.0  0.05486  0.04017  0.47045  1.0000
  C   C63       1.0  0.00120  0.40549  0.42606  1.0000
  C   C64       1.0  0.99598  0.31075  0.45991  1.0000
  C   C65       1.0  0.02362  0.08504  0.47768  1.0000
  H   H72       1.0  0.11825  0.06316  0.45617  1.0000
  H   H73       1.0  0.01536  0.08056  0.45278  1.0000
  C   C66       1.0  0.17713  0.07812  0.45743  1.0000
  C   C67       1.0  0.99790  0.22032  0.45557  1.0000
  C   C68       1.0  0.09685  0.06203  0.45749  1.0000
  H   H74       1.0  0.17682  0.07241  0.45265  1.0000
  C   C69       1.0  0.00336  0.40622  0.40676  1.0000
  C   C70       1.0  0.06342  0.00031  0.45946  1.0000
  C   C71       1.0  0.09642  0.01965  0.46561  1.0000
  H   H75       1.0  0.99520  0.25870  0.45408  1.0000
  C   C72       1.0  0.11418  0.06593  0.46400  1.0000
  C   C73       1.0  0.09587  0.99489  0.42035  1.0000
  C   C74       1.0  0.02742  0.01657  0.47348  1.0000
  C   C75       1.0  0.05290  0.04862  0.46141  1.0000
  C   C76       1.0  0.01087  0.05787  0.45386  1.0000
  C   C77       1.0  0.09964  0.05588  0.46763  1.0000
  C   C78       1.0  0.10689  0.02210  0.46193  1.0000
  C   C79       1.0  0.00882  0.05965  0.43547  1.0000
  S   S32       1.0  0.98804  0.37949  0.43975  1.0000
  H   H76       1.0  0.02786  0.24495  0.42250  1.0000
  C   C80       1.0  0.00428  0.14168  0.46109  1.0000
  C   C81       1.0  0.08538  0.99178  0.45907  1.0000
  H   H77       1.0  0.00242  0.07998  0.47080  1.0000
  H   H78       1.0  0.00507  0.32777  0.44822  1.0000
  C   C82       1.0  0.15391  0.01907  0.41305  1.0000
  C   C83       1.0  0.15443  0.00831  0.41926  1.0000
  H   H79       1.0  0.10558  0.04219  0.44956  1.0000
  H   H80       1.0  0.16180  0.00358  0.42183  1.0000
  C   C84       1.0  0.02242  0.08005  0.41632  1.0000
  C   C85       1.0  0.01202  0.08448  0.41418  1.0000
  C   C86       1.0  0.00469  0.09246  0.41966  1.0000
  H   H81       1.0  0.01028  0.38117  0.48014  1.0000
  C   C87       1.0  0.01827  0.09190  0.42913  1.0000
  C   C88       1.0  0.02544  0.08366  0.42396  1.0000
  H   H82       1.0  0.00964  0.08177  0.40824  1.0000
  H   H83       1.0  0.99672  0.09590  0.41790  1.0000
  H   H84       1.0  0.00591  0.25469  0.40874  1.0000
  H   H85       1.0  0.03344  0.08035  0.42565  1.0000
  C   C89       1.0  0.09546  0.04974  0.41498  1.0000
  C   C90       1.0  0.10662  0.04515  0.41308  1.0000
  C   C91       1.0  0.11363  0.04926  0.41653  1.0000
  C   C92       1.0  0.10953  0.05821  0.42161  1.0000
  C   C93       1.0  0.09837  0.06269  0.42359  1.0000
  C   C94       1.0  0.09133  0.05834  0.42051  1.0000
  H   H86       1.0  0.10987  0.03851  0.40879  1.0000
  H   H87       1.0  0.12224  0.04581  0.41487  1.0000
  H   H88       1.0  0.09518  0.06971  0.42734  1.0000
  H   H89       1.0  0.08274  0.06190  0.42211  1.0000
  C   C95       1.0  0.04402  0.01320  0.43740  1.0000
  C   C96       1.0  0.04050  0.00386  0.44428  1.0000
  C   C97       1.0  0.04615  0.01445  0.42600  1.0000
  H   H90       1.0  0.98974  0.31847  0.45885  1.0000
  H   H91       1.0  0.04892  0.02158  0.42059  1.0000
  C   C98       1.0  0.15150  0.06021  0.47237  1.0000
  C   C99       1.0  0.11596  0.04756  0.47474  1.0000
  H   H92       1.0  0.02528  0.48499  0.26175  1.0000
  H   H93       1.0  0.01237  0.04654  0.41020  1.0000
  H   H94       1.0  0.11925  0.98924  0.46296  1.0000
  H   H95       1.0  0.01602  0.30557  0.47883  1.0000
  C   C100      1.0  0.12300  0.01769  0.44786  1.0000
  H   H96       1.0  0.00920  0.40815  0.44236  1.0000
  H   H97       1.0  0.16385  0.02712  0.45472  1.0000
  Fe  Fe15      1.0  0.98660  0.19194  0.42637  1.0000
  H   H98       1.0  0.99537  0.45740  0.24655  1.0000
  C   C101      1.0  0.00110  0.41683  0.42388  1.0000
  H   H99       1.0  0.11916  0.03754  0.45171  1.0000
  H   H100      1.0  0.11028  0.02624  0.43380  1.0000
  S   S33       1.0  0.98844  0.45722  0.27793  1.0000
  H   H101      1.0  0.12866  0.01857  0.45233  1.0000
  C   C102      1.0  0.17908  0.06362  0.43311  1.0000
  H   H102      1.0  0.08354  0.01553  0.47950  1.0000
  C   C103      1.0  0.99679  0.23815  0.46471  1.0000
  H   H103      1.0  0.12241  0.00894  0.45011  1.0000
  H   H104      1.0  0.01658  0.02659  0.43531  1.0000
  H   H105      1.0  0.10478  0.01573  0.44407  1.0000
  H   H106      1.0  0.98978  0.45375  0.30448  1.0000
  H   H107      1.0  0.12701  0.01952  0.43899  1.0000
  H   H108      1.0  0.11669  0.03933  0.43846  1.0000
  H   H109      1.0  0.05106  0.04684  0.45463  1.0000
  S   S34       1.0  0.01283  0.26197  0.43180  1.0000
  H   H110      1.0  0.99251  0.43851  0.42528  1.0000
  H   H111      1.0  0.99814  0.14068  0.43154  1.0000
  N   N5        1.0  0.99655  0.24735  0.46945  1.0000
  C   C104      1.0  0.15535  0.07612  0.48058  1.0000
  C   C105      1.0  0.11346  0.03650  0.44740  1.0000
  H   H112      1.0  0.00473  0.13388  0.46693  1.0000
  H   H113      1.0  0.00031  0.40054  0.43434  1.0000
  N   N6        1.0  0.00643  0.31256  0.46039  1.0000
  H   H114      1.0  0.03867  0.00290  0.45311  1.0000
  C   C106      1.0  0.00065  0.24758  0.43194  1.0000
  C   C107      1.0  0.09363  0.04781  0.47390  1.0000
  H   H115      1.0  0.01272  0.13812  0.42938  1.0000
  C   C108      1.0  0.08854  0.06017  0.45398  1.0000
  H   H116      1.0  0.02317  0.10447  0.48113  1.0000
  H   H117      1.0  0.17112  0.08583  0.45526  1.0000
  S   S35       1.0  0.05399  0.06888  0.44866  1.0000
  C   C109      1.0  0.98656  0.43715  0.24044  1.0000
  C   C110      1.0  0.03090  0.08502  0.46729  1.0000
  C   C111      1.0  0.06667  0.99049  0.46674  1.0000
  C   C112      1.0  0.14416  0.02535  0.41032  1.0000
  C   C113      1.0  0.03947  0.99563  0.43983  1.0000
  C   C114      1.0  0.14517  0.00388  0.42279  1.0000
  H   H118      1.0  0.00114  0.44903  0.31825  1.0000
  C   C115      1.0  0.16157  0.06309  0.46880  1.0000
  C   C116      1.0  0.99577  0.33364  0.47832  1.0000
  C   C117      1.0  0.00177  0.48298  0.30446  1.0000
  C   C118      1.0  0.15479  0.00214  0.48177  1.0000
  S   S36       1.0  0.99499  0.46180  0.36701  1.0000
  H   H119      1.0  0.09398  0.98886  0.45870  1.0000
  C   C119      1.0  0.01413  0.30172  0.46137  1.0000
  H   H120      1.0  0.00329  0.03469  0.43405  1.0000
  H   H121      1.0  0.11964  0.04375  0.46753  1.0000
  H   H122      1.0  0.15006  0.05392  0.46930  1.0000
  H   H123      1.0  0.99279  0.33229  0.46359  1.0000
  H   H124      1.0  0.18022  0.04956  0.41429  1.0000
  C   C120      1.0  0.98792  0.23296  0.46741  1.0000
  C   C121      1.0  0.10045  0.00403  0.41752  1.0000
  N   N7        1.0  0.99865  0.48411  0.31609  1.0000
  C   C122      1.0  0.99070  0.10298  0.47028  1.0000
  C   C123      1.0  0.01089  0.25006  0.42943  1.0000
  H   H125      1.0  0.08638  0.06504  0.44634  1.0000
  H   H126      1.0  0.17178  0.05074  0.44453  1.0000
  H   H127      1.0  0.01193  0.31597  0.44271  1.0000
  H   H128      1.0  0.03352  0.08366  0.45053  1.0000
  S   S37       1.0  0.00767  0.22036  0.41941  1.0000
  C   C124      1.0  0.00300  0.15328  0.44312  1.0000
  C   C125      1.0  0.00402  0.14258  0.45001  1.0000
  H   H129      1.0  0.10889  0.07422  0.46211  1.0000
  N   N8        1.0  0.01204  0.45697  0.23795  1.0000
  H   H130      1.0  0.15000  0.01269  0.44265  1.0000
  H   H131      1.0  0.02987  0.03660  0.41454  1.0000
  H   H132      1.0  0.16829  0.01482  0.43209  1.0000
  C   C126      1.0  0.08205  0.00150  0.45170  1.0000
  H   H133      1.0  0.04674  0.00719  0.41272  1.0000
  H   H134      1.0  0.06847  0.01341  0.44633  1.0000
  H   H135      1.0  0.02083  0.09493  0.43472  1.0000
  H   H136      1.0  0.02576  0.01740  0.46554  1.0000
  C   C127      1.0  0.04490  0.00630  0.42154  1.0000
  C   C128      1.0  0.10593  0.02423  0.44257  1.0000
  C   C129      1.0  0.01387  0.12390  0.44885  1.0000
  H   H137      1.0  0.14366  0.03376  0.40577  1.0000
  C   C130      1.0  0.00676  0.22513  0.45286  1.0000
  H   H138      1.0  0.98721  0.13484  0.44940  1.0000
  H   H139      1.0  0.03902  0.08618  0.46590  1.0000
  N   N9        1.0  0.08635  0.08009  0.38902  1.0000
  C   C131      1.0  0.07936  0.08958  0.39368  1.0000
  C   C132      1.0  0.08724  0.08316  0.37696  1.0000
  C   C133      1.0  0.08072  0.07087  0.39374  1.0000
  C   C134      1.0  0.09732  0.07670  0.39136  1.0000
  C   C135      1.0  0.10488  0.06761  0.38763  1.0000
  C   C136      1.0  0.10089  0.08228  0.39719  1.0000
  C   C137      1.0  0.11533  0.06434  0.38958  1.0000
  C   C138      1.0  0.11138  0.07893  0.39908  1.0000
  C   C139      1.0  0.11858  0.07000  0.39528  1.0000
  H   H140      1.0  0.08285  0.09702  0.39017  1.0000
  H   H141      1.0  0.07114  0.09183  0.39190  1.0000
  H   H142      1.0  0.07814  0.08765  0.40281  1.0000
  H   H143      1.0  0.09182  0.08980  0.37305  1.0000
  H   H144      1.0  0.07913  0.08612  0.37486  1.0000
  H   H145      1.0  0.09149  0.07612  0.37299  1.0000
  H   H146      1.0  0.08021  0.06815  0.40273  1.0000
  H   H147      1.0  0.07231  0.07315  0.39244  1.0000
  H   H148      1.0  0.08491  0.06356  0.39016  1.0000
  H   H149      1.0  0.10271  0.06282  0.38332  1.0000
  H   H150      1.0  0.09573  0.08913  0.40057  1.0000
  H   H151      1.0  0.12086  0.05720  0.38691  1.0000
  H   H152      1.0  0.11386  0.08303  0.40387  1.0000
  H   H153      1.0  0.12656  0.06725  0.39710  1.0000
  C   C140      1.0  0.99253  0.45228  0.32054  1.0000
  C   C141      1.0  0.01043  0.08126  0.46988  1.0000
  C   C142      1.0  0.01090  0.05066  0.41709  1.0000
  H   H154      1.0  0.09795  0.03011  0.44321  1.0000
  H   H155      1.0  0.04382  0.07880  0.48277  1.0000
  H   H156      1.0  0.00974  0.06146  0.46079  1.0000
  C   C143      1.0  0.17863  0.05458  0.44199  1.0000
  H   H157      1.0  0.01162  0.36876  0.47624  1.0000
  H   H158      1.0  0.98806  0.42501  0.44794  1.0000
  H   H159      1.0  0.99267  0.30517  0.46758  1.0000
  H   H160      1.0  0.02392  0.44544  0.24651  1.0000
  S   S38       1.0  0.00092  0.11220  0.47966  1.0000
  C   C144      1.0  0.04186  0.99670  0.42845  1.0000
  H   H161      1.0  0.01857  0.32125  0.44985  1.0000
  H   H162      1.0  0.00257  0.15488  0.43462  1.0000
  H   H163      1.0  0.00857  0.25479  0.45649  1.0000
  C   C145      1.0  0.98979  0.10785  0.47889  1.0000
  C   C146      1.0  0.03421  0.02256  0.47445  1.0000
  C   C147      1.0  0.00348  0.41731  0.40430  1.0000
  C   C148      1.0  0.13535  0.01033  0.42034  1.0000
  C   C149      1.0  0.13489  0.02099  0.41399  1.0000
  C   C150      1.0  0.00129  0.26322  0.40630  1.0000
  C   C151      1.0  0.99747  0.32832  0.46982  1.0000
  C   C152      1.0  0.00306  0.16119  0.45790  1.0000
  H   H164      1.0  0.00182  0.47329  0.33151  1.0000
  S   S39       1.0  0.99619  0.19482  0.43660  1.0000
  N   N10       1.0  0.99978  0.42216  0.43301  1.0000
  H   H165      1.0  0.03776  0.02811  0.46725  1.0000
  C   C153      1.0  0.05376  0.05918  0.46101  1.0000
  C   C154      1.0  0.99939  0.43413  0.42939  1.0000
  H   H166      1.0  0.02236  0.30245  0.46125  1.0000
  Fe  Fe16      1.0  0.99876  0.27629  0.43350  1.0000
  C   C155      1.0  0.17634  0.99382  0.40522  1.0000
  H   H167      1.0  0.12008  0.02377  0.46802  1.0000
  H   H168      1.0  0.99474  0.12095  0.44947  1.0000
  C   C156      1.0  0.98709  0.27500  0.39743  1.0000
  C   C157      1.0  0.01405  0.04847  0.43563  1.0000
  C   C158      1.0  0.15677  0.00953  0.44666  1.0000
  C   C159      1.0  0.15043  0.03022  0.46823  1.0000
  H   H169      1.0  0.99312  0.12688  0.46080  1.0000
  H   H170      1.0  0.99363  0.25280  0.43592  1.0000
  C   C160      1.0  0.02788  0.04065  0.42157  1.0000
  C   C161      1.0  0.98895  0.34529  0.43741  1.0000
  H   H171      1.0  0.08077  0.03995  0.47534  1.0000
  H   H172      1.0  0.01428  0.05817  0.41340  1.0000
  H   H173      1.0  0.03712  0.09816  0.47661  1.0000
  H   H174      1.0  0.00597  0.06512  0.42842  1.0000
  C   C162      1.0  0.00097  0.40375  0.47055  1.0000
  H   H175      1.0  0.07646  0.05074  0.45754  1.0000
  C   C163      1.0  0.16833  0.98933  0.40411  1.0000
  H   H176      1.0  0.00341  0.07284  0.44404  1.0000
  S   S40       1.0  0.99940  0.10707  0.43330  1.0000
  C   C164      1.0  0.07797  0.00667  0.42351  1.0000
  C   C165      1.0  0.16616  0.02701  0.48010  1.0000
  C   C166      1.0  0.16391  0.07097  0.47295  1.0000
  H   H177      1.0  0.01684  0.41756  0.43261  1.0000
  H   H178      1.0  0.09171  0.01973  0.46001  1.0000
  S   S41       1.0  0.99591  0.45112  0.34083  1.0000
  H   H179      1.0  0.09753  0.02150  0.41555  1.0000
  H   H180      1.0  0.00336  0.26376  0.38508  1.0000
  C   C167      1.0  0.18313  0.06324  0.47184  1.0000
  H   H181      1.0  0.17780  0.02420  0.46522  1.0000
  S   S42       1.0  0.12336  0.00563  0.42609  1.0000
  H   H182      1.0  0.99809  0.26665  0.41382  1.0000
  C   C168      1.0  0.00541  0.13485  0.43410  1.0000
  H   H183      1.0  0.18537  0.07992  0.45438  1.0000
  H   H184      1.0  0.99682  0.30704  0.45288  1.0000
  C   C169      1.0  0.16386  0.00015  0.46328  1.0000
  H   H185      1.0  0.13574  0.06266  0.48320  1.0000
  H   H186      1.0  0.10092  0.06835  0.45210  1.0000
  C   C170      1.0  0.11214  0.02194  0.47015  1.0000
  H   H187      1.0  0.98968  0.41195  0.44528  1.0000
  H   H188      1.0  0.16760  0.05889  0.46292  1.0000
  C   C171      1.0  0.16930  0.02621  0.46910  1.0000
  C   C172      1.0  0.99464  0.33701  0.43159  1.0000
  H   H189      1.0  0.17058  0.08950  0.47314  1.0000
  C   C173      1.0  0.05681  0.04245  0.47949  1.0000
  H   H190      1.0  0.07763  0.02391  0.42087  1.0000
  C   C174      1.0  0.00250  0.16240  0.44706  1.0000
  H   H191      1.0  0.05634  0.06969  0.46973  1.0000
  C   C175      1.0  0.10733  0.01932  0.48132  1.0000
  H   H192      1.0  0.01268  0.24072  0.47246  1.0000
  H   H193      1.0  0.02211  0.03382  0.44589  1.0000
  C   C176      1.0  0.02788  0.08348  0.45844  1.0000
  H   H194      1.0  0.00077  0.47500  0.30373  1.0000
  C   C177      1.0  0.08540  0.04599  0.47026  1.0000
  N   N11       1.0  0.00446  0.13275  0.44615  1.0000
  H   H195      1.0  0.00279  0.16829  0.46088  1.0000
  H   H196      1.0  0.98970  0.42943  0.24557  1.0000
  C   C178      1.0  0.08448  0.99593  0.42328  1.0000
  H   H197      1.0  0.01306  0.12064  0.45784  1.0000
  H   H198      1.0  0.00202  0.39172  0.41947  1.0000
  C   C179      1.0  0.05548  0.06156  0.47013  1.0000
  H   H199      1.0  0.12729  0.02598  0.41213  1.0000
  C   C180      1.0  0.00395  0.15084  0.46490  1.0000
  H   H200      1.0  0.00489  0.44771  0.25367  1.0000
  H   H201      1.0  0.18138  0.99884  0.46036  1.0000
  C   C181      1.0  0.02259  0.45388  0.24124  1.0000
  C   C182      1.0  0.00350  0.45602  0.24819  1.0000
  H   H202      1.0  0.02298  0.37149  0.47935  1.0000
  H   H203      1.0  0.12559  0.00069  0.47120  1.0000
  S   S43       1.0  0.99850  0.31656  0.42734  1.0000
  H   H204      1.0  0.01124  0.29585  0.46903  1.0000
  C   C183      1.0  0.00896  0.41700  0.43854  1.0000
  C   C184      1.0  0.07108  0.00579  0.45194  1.0000
  C   C185      1.0  0.09390  0.01444  0.41777  1.0000
  C   C186      1.0  0.98957  0.42069  0.44118  1.0000
  H   H205      1.0  0.00244  0.33760  0.42613  1.0000
  C   C187      1.0  0.99431  0.39724  0.47018  1.0000
  N   N12       1.0  0.10801  0.05793  0.47192  1.0000
  H   H206      1.0  0.06924  0.00830  0.42571  1.0000
  H   H207      1.0  0.11234  0.04141  0.48154  1.0000
  C   C188      1.0  0.99950  0.23827  0.42922  1.0000
  Fe  Fe17      1.0  0.99195  0.30114  0.43191  1.0000
  H   H208      1.0  0.01269  0.02955  0.42264  1.0000
  C   C189      1.0  0.01770  0.04226  0.44531  1.0000
  C   C190      1.0  0.00502  0.47436  0.32248  1.0000
  N   N13       1.0  0.17484  0.07344  0.46943  1.0000
  H   H209      1.0  0.00704  0.43585  0.42360  1.0000
  H   H210      1.0  0.99819  0.10201  0.46415  1.0000
  C   C191      1.0  0.08268  0.01575  0.42079  1.0000
  H   H211      1.0  0.05488  0.00374  0.45968  1.0000
  H   H212      1.0  0.99238  0.35223  0.43649  1.0000
  C   C192      1.0  0.98700  0.48400  0.32015  1.0000
  C   C193      1.0  0.16708  0.01077  0.44069  1.0000
  N   N14       1.0  0.01608  0.04340  0.42614  1.0000
  H   H213      1.0  0.02297  0.45949  0.24616  1.0000
  C   C194      1.0  0.17577  0.00697  0.44584  1.0000
  C   C195      1.0  0.05670  0.05322  0.47952  1.0000
  H   H214      1.0  0.00198  0.05318  0.42001  1.0000
  C   C196      1.0  0.00227  0.40031  0.41760  1.0000
  C   C197      1.0  0.01070  0.31969  0.44985  1.0000
  H   H215      1.0  0.00423  0.25022  0.48069  1.0000
  Fe  Fe18      1.0  0.98959  0.47441  0.26872  1.0000
  C   C198      1.0  0.00238  0.42260  0.41268  1.0000
  H   H216      1.0  0.09510  0.04298  0.48181  1.0000
  C   C199      1.0  0.09162  0.01717  0.47683  1.0000
  C   C200      1.0  0.00626  0.23389  0.45736  1.0000
  H   H217      1.0  0.01365  0.47484  0.32067  1.0000
  C   C201      1.0  0.08290  0.05212  0.46030  1.0000
  C   C202      1.0  0.06789  0.98862  0.42790  1.0000
  H   H218      1.0  0.01399  0.22219  0.44706  1.0000
  C   C203      1.0  0.14731  0.03100  0.47923  1.0000
  H   H219      1.0  0.03124  0.04815  0.41860  1.0000
  H   H220      1.0  0.00842  0.42095  0.44531  1.0000
  Fe  Fe19      1.0  0.12691  0.98761  0.43302  1.0000
  C   C204      1.0  0.00423  0.24356  0.47685  1.0000
  H   H221      1.0  0.00219  0.43128  0.41014  1.0000
  H   H222      1.0  0.01473  0.11667  0.44542  1.0000
  C   C205      1.0  0.99054  0.32764  0.43329  1.0000
  H   H223      1.0  0.00199  0.23661  0.48367  1.0000
  C   C206      1.0  0.98781  0.45381  0.33127  1.0000
  H   H224      1.0  0.99161  0.23642  0.43106  1.0000
  C   C207      1.0  0.99444  0.12870  0.45171  1.0000
  H   H225      1.0  0.00384  0.40227  0.40027  1.0000
  H   H226      1.0  0.99828  0.21360  0.45198  1.0000
  H   H227      1.0  0.00441  0.14991  0.47335  1.0000
  C   C208      1.0  0.99985  0.25661  0.46057  1.0000
  H   H228      1.0  0.01910  0.04204  0.46150  1.0000
  C   C209      1.0  0.17615  0.08137  0.47500  1.0000
  S   S44       1.0  0.99479  0.29063  0.41981  1.0000
  H   H229      1.0  0.99158  0.25855  0.38693  1.0000
  S   S45       1.0  0.99773  0.28687  0.44484  1.0000
  H   H230      1.0  0.98986  0.34131  0.47849  1.0000
  H   H231      1.0  0.16164  0.99461  0.40054  1.0000
  C   C210      1.0  0.01038  0.31341  0.47824  1.0000
  C   C211      1.0  0.99775  0.25879  0.39115  1.0000
  H   H232      1.0  0.18318  0.05688  0.46767  1.0000
  C   C212      1.0  0.01325  0.08309  0.47873  1.0000
  Fe  Fe20      1.0  0.99357  0.21220  0.42682  1.0000
  H   H233      1.0  0.06519  0.99399  0.42042  1.0000
  H   H234      1.0  0.00718  0.26811  0.40066  1.0000
  H   H235      1.0  0.14831  0.98814  0.47510  1.0000
  H   H236      1.0  0.12067  0.06699  0.46732  1.0000
  C   C213      1.0  0.01608  0.04691  0.45428  1.0000
  H   H237      1.0  0.17619  0.99614  0.47877  1.0000
  H   H238      1.0  0.17541  0.00259  0.40228  1.0000
  H   H239      1.0  0.00782  0.40514  0.46385  1.0000
  S   S46       1.0  0.99112  0.17606  0.42065  1.0000
  C   C214      1.0  0.10274  0.06226  0.48200  1.0000
  Fe  Fe21      1.0  0.98691  0.45826  0.35567  1.0000
  C   C215      1.0  0.01767  0.08163  0.45972  1.0000
  H   H240      1.0  0.00485  0.46657  0.32063  1.0000
  C   C216      1.0  0.98854  0.22419  0.46286  1.0000
  H   H241      1.0  0.10918  0.00304  0.41504  1.0000
  S   S47       1.0  0.00604  0.47845  0.26241  1.0000
  C   C217      1.0  0.12328  0.99318  0.47615  1.0000
  H   H242      1.0  0.01334  0.23737  0.45492  1.0000
  H   H243      1.0  0.05514  0.03184  0.47025  1.0000
  H   H244      1.0  0.12267  0.04887  0.47752  1.0000
  C   C218      1.0  0.00478  0.31799  0.46953  1.0000
  H   H245      1.0  0.99846  0.26416  0.46368  1.0000
  H   H246      1.0  0.00415  0.41334  0.47989  1.0000
  C   C219      1.0  0.15513  0.00437  0.45781  1.0000
  C   C220      1.0  0.99892  0.40836  0.47965  1.0000
  H   H247      1.0  0.08801  0.00573  0.44575  1.0000
  H   H248      1.0  0.00605  0.12722  0.43143  1.0000
  H   H249      1.0  0.98828  0.24308  0.40166  1.0000
  H   H250      1.0  0.18375  0.00808  0.44118  1.0000
  C   C221      1.0  0.02998  0.09775  0.48360  1.0000
  H   H251      1.0  0.06390  0.99258  0.43501  1.0000
  H   H252      1.0  0.18403  0.00810  0.41239  1.0000
  H   H253      1.0  0.18180  0.05954  0.48079  1.0000
  C   C222      1.0  0.01405  0.37227  0.48184  1.0000
  H   H254      1.0  0.17473  0.07821  0.48409  1.0000
  H   H255      1.0  0.03852  0.98900  0.47076  1.0000
  H   H256      1.0  0.01040  0.48339  0.30075  1.0000
  C   C223      1.0  0.03673  0.02118  0.48458  1.0000
  N   N15       1.0  0.99257  0.26340  0.40110  1.0000
  H   H257      1.0  0.18452  0.08284  0.47233  1.0000
  H   H258      1.0  0.03680  0.98847  0.44522  1.0000
  H   H259      1.0  0.00278  0.25036  0.39321  1.0000
  H   H260      1.0  0.98786  0.15733  0.41545  1.0000
  C   C224      1.0  0.17198  0.98965  0.47927  1.0000
  H   H261      1.0  0.15889  0.00854  0.48160  1.0000
  H   H262      1.0  0.09661  0.07002  0.48030  1.0000
  H   H263      1.0  0.99238  0.27958  0.39045  1.0000
  H   H264      1.0  0.01782  0.00455  0.48187  1.0000
  C   C225      1.0  0.02294  0.00937  0.48269  1.0000
  C   C226      1.0  0.14529  0.07320  0.48408  1.0000
  H   H265      1.0  0.01380  0.44031  0.23670  1.0000
  H   H266      1.0  0.18495  0.99215  0.42876  1.0000
  N   N16       1.0  0.16195  0.99436  0.47498  1.0000
  H   H267      1.0  0.13883  0.03269  0.48319  1.0000
  C   C227      1.0  0.09708  0.01699  0.48466  1.0000
  Fe  Fe22      1.0  0.06448  0.03779  0.50244  1.0000
  S   S48       1.0  0.05226  0.04434  0.51621  1.0000
  S   S49       1.0  0.05991  0.03166  0.49039  1.0000
  Fe  Fe23      1.0  0.08385  0.03939  0.50967  1.0000
  S   S50       1.0  0.07341  0.04614  0.52424  1.0000
  S   S51       1.0  0.10192  0.03442  0.50398  1.0000
  Fe  Fe24      1.0  0.06399  0.03331  0.52641  1.0000
  Fe  Fe25      1.0  0.06258  0.05659  0.51269  1.0000
  S   S52       1.0  0.07530  0.02582  0.51281  1.0000
  S   S53       1.0  0.07399  0.05074  0.49797  1.0000
  Fe  Fe26      1.0  0.16867  0.03312  0.50145  1.0000
  S   S54       1.0  0.16396  0.05129  0.49638  1.0000
  C   C228      1.0  0.15519  0.02954  0.48512  1.0000
  Fe  Fe27      1.0  0.16403  0.03351  0.52535  1.0000
  S   S55       1.0  0.15936  0.05191  0.52226  1.0000
  H   H268      1.0  0.01600  0.07884  0.50031  1.0000
  Fe  Fe28      1.0  0.15006  0.05021  0.51092  1.0000
  S   S56       1.0  0.13302  0.06011  0.51052  1.0000
  Fe  Fe29      1.0  0.17371  0.05127  0.50795  1.0000
  C   C229      1.0  0.99088  0.32857  0.54983  1.0000
  S   S57       1.0  0.15384  0.03185  0.51497  1.0000
  S   S58       1.0  0.17924  0.03305  0.51220  1.0000
  H   H269      1.0  0.01115  0.45041  0.72565  1.0000
  C   C230      1.0  0.99264  0.22505  0.54232  1.0000
  H   H270      1.0  0.01533  0.46383  0.69097  1.0000
  S   S59       1.0  0.98977  0.24731  0.50286  1.0000
  C   C231      1.0  0.01829  0.46760  0.70944  1.0000
  H   H271      1.0  0.12730  0.01866  0.54896  1.0000
  Fe  Fe30      1.0  0.99415  0.44707  0.60332  1.0000
  C   C232      1.0  0.14521  0.99685  0.54469  1.0000
  H   H272      1.0  0.02959  0.44698  0.71297  1.0000
  H   H273      1.0  0.99097  0.41319  0.54663  1.0000
  H   H274      1.0  0.98827  0.15606  0.51793  1.0000
  H   H275      1.0  0.13901  0.07688  0.49025  1.0000
  H   H276      1.0  0.05953  0.01151  0.52500  1.0000
  H   H277      1.0  0.01283  0.31516  0.49338  1.0000
  H   H278      1.0  0.02884  0.47027  0.69305  1.0000
  C   C233      1.0  0.01343  0.38789  0.50729  1.0000
  S   S60       1.0  0.00517  0.43929  0.61511  1.0000
  S   S61       1.0  0.99977  0.45459  0.58543  1.0000
  H   H279      1.0  0.01268  0.35024  0.50317  1.0000
  H   H280      1.0  0.05165  0.00622  0.50949  1.0000
  H   H281      1.0  0.03492  0.06991  0.49097  1.0000
  H   H282      1.0  0.01021  0.39655  0.50723  1.0000
  H   H283      1.0  0.01882  0.48415  0.63229  1.0000
  C   C234      1.0  0.01421  0.47200  0.71903  1.0000
  C   C235      1.0  0.14460  0.00050  0.55406  1.0000
  H   H284      1.0  0.04531  0.98878  0.56105  1.0000
  Fe  Fe31      1.0  0.99972  0.47527  0.67062  1.0000
  S   S62       1.0  0.01624  0.47822  0.66859  1.0000
  H   H285      1.0  0.15286  0.99765  0.52762  1.0000
  S   S63       1.0  0.99236  0.39703  0.53047  1.0000
  H   H286      1.0  0.10873  0.06391  0.48556  1.0000
  H   H287      1.0  0.00066  0.42413  0.55187  1.0000
  Fe  Fe32      1.0  0.98841  0.32037  0.51641  1.0000
  H   H288      1.0  0.00522  0.38832  0.49529  1.0000
  C   C236      1.0  0.03272  0.01357  0.49402  1.0000
  H   H289      1.0  0.02095  0.07975  0.53403  1.0000
  C   C237      1.0  0.98807  0.08140  0.51814  1.0000
  C   C238      1.0  0.99875  0.36849  0.49652  1.0000
  Fe  Fe33      1.0  0.00250  0.11634  0.51584  1.0000
  C   C239      1.0  0.05531  0.00989  0.54256  1.0000
  Fe  Fe34      1.0  0.98681  0.46014  0.66848  1.0000
  C   C240      1.0  0.98772  0.21608  0.54711  1.0000
  C   C241      1.0  0.99240  0.16742  0.50263  1.0000
  C   C242      1.0  0.98968  0.34451  0.55645  1.0000
  H   H290      1.0  0.98752  0.19523  0.49970  1.0000
  C   C243      1.0  0.99451  0.08243  0.52448  1.0000
  H   H291      1.0  0.11308  0.02012  0.55437  1.0000
  C   C244      1.0  0.99983  0.44116  0.62864  1.0000
  C   C245      1.0  0.00761  0.45320  0.71824  1.0000
  S   S64       1.0  0.98940  0.30751  0.50740  1.0000
  H   H292      1.0  0.99355  0.34936  0.55910  1.0000
  C   C246      1.0  0.05131  0.00340  0.55268  1.0000
  H   H293      1.0  0.03340  0.99525  0.51140  1.0000
  S   S65       1.0  0.12940  0.99729  0.49279  1.0000
  C   C247      1.0  0.02383  0.48669  0.71075  1.0000
  C   C248      1.0  0.12809  0.01801  0.52885  1.0000
  C   C249      1.0  0.04968  0.99020  0.54354  1.0000
  C   C250      1.0  0.02341  0.09483  0.52243  1.0000
  H   H294      1.0  0.98940  0.46094  0.64365  1.0000
  H   H295      1.0  0.99988  0.33293  0.49344  1.0000
  C   C251      1.0  0.99045  0.40617  0.48867  1.0000
  C   C252      1.0  0.08883  0.01943  0.54156  1.0000
  H   H296      1.0  0.99161  0.45554  0.54825  1.0000
  H   H297      1.0  0.15279  0.02996  0.49365  1.0000
  S   S66       1.0  0.99398  0.47369  0.65658  1.0000
  H   H298      1.0  0.02900  0.36543  0.52038  1.0000
  C   C253      1.0  0.03401  0.02188  0.50806  1.0000
  H   H299      1.0  0.18139  0.02297  0.55032  1.0000
  H   H300      1.0  0.01918  0.34531  0.53178  1.0000
  C   C254      1.0  0.98755  0.48250  0.71909  1.0000
  C   C255      1.0  0.09955  0.00999  0.52723  1.0000
  C   C256      1.0  0.02544  0.00792  0.49286  1.0000
  S   S67       1.0  0.99446  0.43734  0.56789  1.0000
  C   C257      1.0  0.15060  0.00810  0.55343  1.0000
  S   S68       1.0  0.98643  0.44460  0.66436  1.0000
  H   H301      1.0  0.00398  0.33167  0.55447  1.0000
  C   C258      1.0  0.18523  0.99018  0.56057  1.0000
  H   H302      1.0  0.13926  0.99767  0.56174  1.0000
  H   H303      1.0  0.03858  0.02795  0.50223  1.0000
  H   H304      1.0  0.00098  0.22385  0.53775  1.0000
  H   H305      1.0  0.11160  0.01906  0.48747  1.0000
  N   N17       1.0  0.01071  0.36684  0.49354  1.0000
  H   H306      1.0  0.02840  0.10844  0.50999  1.0000
  S   S69       1.0  0.00372  0.32498  0.51607  1.0000
  H   H307      1.0  0.99049  0.46995  0.54611  1.0000
  C   C259      1.0  0.02012  0.38154  0.51439  1.0000
  H   H308      1.0  0.99165  0.07713  0.51147  1.0000
  H   H309      1.0  0.00541  0.44598  0.71714  1.0000
  H   H310      1.0  0.99544  0.26824  0.49830  1.0000
  H   H311      1.0  0.99653  0.45882  0.62428  1.0000
  H   H312      1.0  0.01933  0.32990  0.52407  1.0000
  H   H313      1.0  0.13520  0.02030  0.52992  1.0000
  S   S70       1.0  0.17587  0.02421  0.48780  1.0000
  C   C260      1.0  0.04087  0.09361  0.50961  1.0000
  H   H314      1.0  0.99575  0.36466  0.49163  1.0000
  H   H315      1.0  0.99558  0.48119  0.59670  1.0000
  N   N18       1.0  0.01524  0.45790  0.70836  1.0000
  C   C261      1.0  0.99522  0.43311  0.64817  1.0000
  H   H316      1.0  0.08237  0.01135  0.53336  1.0000
  C   C262      1.0  0.09806  0.02214  0.54240  1.0000
  H   H317      1.0  0.03872  0.07880  0.49689  1.0000
  H   H318      1.0  0.02524  0.02577  0.50910  1.0000
  C   C263      1.0  0.99199  0.17854  0.49751  1.0000
  H   H319      1.0  0.02304  0.44155  0.70589  1.0000
  C   C264      1.0  0.02124  0.36550  0.50779  1.0000
  H   H320      1.0  0.18588  0.98764  0.49717  1.0000
  H   H321      1.0  0.14984  0.01118  0.56060  1.0000
  C   C265      1.0  0.11029  0.04206  0.50540  1.0000
  C   C266      1.0  0.12151  0.03819  0.50271  1.0000
  C   C267      1.0  0.12850  0.04381  0.50411  1.0000
  C   C268      1.0  0.12433  0.05340  0.50810  1.0000
  C   C269      1.0  0.11309  0.05754  0.51039  1.0000
  C   C270      1.0  0.10605  0.05183  0.50912  1.0000
  H   H322      1.0  0.12480  0.03066  0.49979  1.0000
  H   H323      1.0  0.13713  0.04071  0.50213  1.0000
  H   H324      1.0  0.10982  0.06501  0.51343  1.0000
  H   H325      1.0  0.09738  0.05490  0.51116  1.0000
  H   H326      1.0  0.17918  0.00616  0.55187  1.0000
  H   H327      1.0  0.99466  0.37731  0.49507  1.0000
  H   H328      1.0  0.98992  0.28280  0.50898  1.0000
  N   N19       1.0  0.02696  0.08694  0.48686  1.0000
  Fe  Fe35      1.0  0.99701  0.11992  0.49404  1.0000
  H   H329      1.0  0.99051  0.24259  0.53915  1.0000
  H   H330      1.0  0.03371  0.48643  0.69456  1.0000
  C   C271      1.0  0.01426  0.37172  0.50058  1.0000
  H   H331      1.0  0.05056  0.99904  0.49999  1.0000
  H   H332      1.0  0.00729  0.45395  0.69804  1.0000
  S   S71       1.0  0.05684  0.07508  0.50868  1.0000
  N   N20       1.0  0.03648  0.01149  0.50430  1.0000
  S   S72       1.0  0.00997  0.12446  0.49874  1.0000
  H   H333      1.0  0.99592  0.36489  0.50538  1.0000
  H   H334      1.0  0.13011  0.00893  0.53006  1.0000
  H   H335      1.0  0.02434  0.35677  0.50864  1.0000
  S   S73       1.0  0.05898  0.02193  0.54257  1.0000
  H   H336      1.0  0.01321  0.48495  0.72680  1.0000
  H   H337      1.0  0.12740  0.02170  0.52019  1.0000
  C   C272      1.0  0.00867  0.31886  0.48666  1.0000
  Fe  Fe36      1.0  0.99728  0.13966  0.50203  1.0000
  H   H338      1.0  0.00264  0.46775  0.70004  1.0000
  C   C273      1.0  0.00289  0.35362  0.53042  1.0000
  C   C274      1.0  0.99248  0.42359  0.55628  1.0000
  C   C275      1.0  0.15716  0.01213  0.54341  1.0000
  H   H339      1.0  0.99562  0.32101  0.54741  1.0000
  H   H340      1.0  0.05037  0.00595  0.56020  1.0000
  H   H341      1.0  0.02203  0.00188  0.49951  1.0000
  C   C276      1.0  0.01836  0.08690  0.49710  1.0000
  H   H342      1.0  0.99536  0.18082  0.48879  1.0000
  C   C277      1.0  0.01683  0.48150  0.71956  1.0000
  C   C278      1.0  0.15820  0.00807  0.53420  1.0000
  H   H343      1.0  0.01245  0.35144  0.48923  1.0000
  C   C279      1.0  0.03648  0.07824  0.48946  1.0000
  C   C280      1.0  0.05645  0.00654  0.53285  1.0000
  C   C281      1.0  0.03061  0.09978  0.51357  1.0000
  H   H344      1.0  0.12367  0.03658  0.53452  1.0000
  H   H345      1.0  0.00315  0.07902  0.52276  1.0000
  C   C282      1.0  0.99179  0.44354  0.65055  1.0000
  C   C283      1.0  0.02408  0.37040  0.51457  1.0000
  C   C284      1.0  0.98699  0.41741  0.55326  1.0000
  N   N21       1.0  0.11801  0.02183  0.53671  1.0000
  H   H346      1.0  0.00049  0.48580  0.68694  1.0000
  S   S74       1.0  0.01067  0.10255  0.52784  1.0000
  H   H347      1.0  0.03629  0.02051  0.51606  1.0000
  H   H348      1.0  0.04650  0.09757  0.50292  1.0000
  C   C285      1.0  0.02551  0.47302  0.70068  1.0000
  Fe  Fe37      1.0  0.99043  0.37977  0.53297  1.0000
  H   H349      1.0  0.17422  0.98916  0.51491  1.0000
  H   H350      1.0  0.03072  0.45165  0.69839  1.0000
  C   C286      1.0  0.10883  0.01267  0.52797  1.0000
  C   C287      1.0  0.11986  0.01693  0.54797  1.0000
  C   C288      1.0  0.04836  0.00714  0.50222  1.0000
  C   C289      1.0  0.99223  0.45284  0.64191  1.0000
  C   C290      1.0  0.11624  0.03393  0.53478  1.0000
  C   C291      1.0  0.98749  0.42902  0.56497  1.0000
  S   S75       1.0  0.99025  0.11096  0.51080  1.0000
  C   C292      1.0  0.02508  0.44915  0.70632  1.0000
  C   C293      1.0  0.04394  0.08240  0.51427  1.0000
  C   C294      1.0  0.15220  0.00048  0.53483  1.0000
  C   C295      1.0  0.08958  0.01334  0.53402  1.0000
  H   H351      1.0  0.99251  0.20813  0.54587  1.0000
  C   C296      1.0  0.01214  0.33638  0.52497  1.0000
  H   H352      1.0  0.03895  0.06873  0.52662  1.0000
  C   C297      1.0  0.01207  0.34511  0.52931  1.0000
  H   H353      1.0  0.10974  0.03740  0.54122  1.0000
  C   C298      1.0  0.01056  0.38308  0.50048  1.0000
  H   H354      1.0  0.02426  0.35301  0.49228  1.0000
  H   H355      1.0  0.99487  0.42590  0.65479  1.0000
  Fe  Fe38      1.0  0.98890  0.44553  0.58249  1.0000
  S   S76       1.0  0.99423  0.46041  0.68192  1.0000
  H   H356      1.0  0.02204  0.38521  0.51994  1.0000
  C   C299      1.0  0.98752  0.18673  0.50367  1.0000
  C   C300      1.0  0.03145  0.00343  0.51350  1.0000
  H   H357      1.0  0.17812  0.00112  0.49916  1.0000
  S   S77       1.0  0.99105  0.13197  0.51966  1.0000
  H   H358      1.0  0.00226  0.42380  0.63556  1.0000
  H   H359      1.0  0.02112  0.08842  0.50379  1.0000
  H   H360      1.0  0.98649  0.35970  0.52834  1.0000
  C   C301      1.0  0.03664  0.07737  0.52296  1.0000
  S   S78       1.0  0.99878  0.15729  0.49481  1.0000
  C   C302      1.0  0.98797  0.16458  0.51389  1.0000
  H   H361      1.0  0.15236  0.99796  0.49049  1.0000
  C   C303      1.0  0.99367  0.34437  0.52308  1.0000
  H   H362      1.0  0.05792  0.05509  0.48659  1.0000
  H   H363      1.0  0.12087  0.00785  0.54988  1.0000
  C   C304      1.0  0.99939  0.43192  0.63729  1.0000
  C   C305      1.0  0.00295  0.33593  0.52191  1.0000
  C   C306      1.0  0.01526  0.35487  0.49461  1.0000
  C   C307      1.0  0.02645  0.08361  0.52713  1.0000
  H   H364      1.0  0.11388  0.03792  0.52681  1.0000
  H   H365      1.0  0.02250  0.00626  0.51571  1.0000
  S   S79       1.0  0.00327  0.36443  0.53586  1.0000
  S   S80       1.0  0.16344  0.02276  0.54223  1.0000
  C   C308      1.0  0.10837  0.01885  0.53562  1.0000
  H   H366      1.0  0.11622  0.00996  0.52230  1.0000
  H   H367      1.0  0.16359  0.01082  0.52655  1.0000
  C   C309      1.0  0.00993  0.46099  0.69895  1.0000
  H   H368      1.0  0.09705  0.02694  0.54832  1.0000
  H   H369      1.0  0.08098  0.02220  0.54666  1.0000
  H   H370      1.0  0.05283  0.01256  0.49534  1.0000
  C   C310      1.0  0.00136  0.32892  0.48673  1.0000
  H   H371      1.0  0.09894  0.99468  0.55155  1.0000
  C   C311      1.0  0.99560  0.33456  0.55380  1.0000
  H   H372      1.0  0.18540  0.01207  0.50669  1.0000
  H   H373      1.0  0.10009  0.00545  0.52118  1.0000
  C   C312      1.0  0.98658  0.46307  0.55115  1.0000
  H   H374      1.0  0.99986  0.45927  0.71998  1.0000
  C   C313      1.0  0.99366  0.35325  0.52730  1.0000
  S   S81       1.0  0.13652  0.98852  0.54532  1.0000
  C   C314      1.0  0.99617  0.45166  0.63095  1.0000
  H   H375      1.0  0.18617  0.01521  0.53400  1.0000
  H   H376      1.0  0.98808  0.10678  0.53984  1.0000
  C   C315      1.0  0.98991  0.08811  0.53294  1.0000
  H   H377      1.0  0.98657  0.34408  0.52069  1.0000
  C   C316      1.0  0.04843  0.99368  0.55316  1.0000
  H   H378      1.0  0.09335  0.01510  0.49335  1.0000
  C   C317      1.0  0.12406  0.98979  0.48716  1.0000
  H   H379      1.0  0.98722  0.46165  0.55983  1.0000
  C   C318      1.0  0.05369  0.99665  0.53336  1.0000
  H   H380      1.0  0.00876  0.46844  0.72616  1.0000
  H   H381      1.0  0.01107  0.09352  0.49579  1.0000
  H   H382      1.0  0.09844  0.05639  0.48857  1.0000
  H   H383      1.0  0.03450  0.00203  0.52107  1.0000
  H   H384      1.0  0.08325  0.99028  0.54866  1.0000
  H   H385      1.0  0.03212  0.09965  0.49045  1.0000
  S   S82       1.0  0.98897  0.41130  0.50030  1.0000
  H   H386      1.0  0.99531  0.08891  0.53744  1.0000
  C   C319      1.0  0.98673  0.27546  0.51224  1.0000
  C   C320      1.0  0.98984  0.26721  0.50620  1.0000
  H   H387      1.0  0.05474  0.99397  0.52593  1.0000
  C   C321      1.0  0.02833  0.48232  0.70143  1.0000
  H   H388      1.0  0.01031  0.48544  0.64543  1.0000
  H   H389      1.0  0.04212  0.02587  0.48495  1.0000
  C   C322      1.0  0.98675  0.23562  0.54307  1.0000
  S   S83       1.0  0.14868  0.98814  0.51358  1.0000
  C   C323      1.0  0.18000  0.98798  0.51981  1.0000
  H   H390      1.0  0.17731  0.98816  0.56325  1.0000
  H   H391      1.0  0.00706  0.08319  0.48620  1.0000
  Fe  Fe39      1.0  0.03607  0.47207  0.94127  1.0000
  S   S84       1.0  0.04652  0.46577  0.92623  1.0000
  S   S85       1.0  0.03432  0.46155  0.95860  1.0000
  C   C324      1.0  0.01828  0.45513  0.86802  1.0000
  C   C325      1.0  0.07615  0.47327  0.93474  1.0000
  H   H392      1.0  0.01824  0.43537  0.88405  1.0000
  H   H393      1.0  0.02658  0.46842  0.86322  1.0000
  C   C326      1.0  0.08787  0.48455  0.92154  1.0000
  C   C327      1.0  0.01311  0.45112  0.85333  1.0000
  S   S86       1.0  0.99054  0.47973  0.73995  1.0000
  C   C328      1.0  0.01591  0.47592  0.88868  1.0000
  H   H394      1.0  0.00998  0.43003  0.86090  1.0000
  H   H395      1.0  0.99409  0.44478  0.86492  1.0000
  S   S87       1.0  0.02882  0.47588  0.90201  1.0000
  C   C329      1.0  0.16468  0.47835  0.94207  1.0000
  H   H396      1.0  0.00619  0.47577  0.87782  1.0000
  C   C330      1.0  0.01323  0.44866  0.86467  1.0000
  S   S88       1.0  0.98720  0.47859  0.79347  1.0000
  H   H397      1.0  0.10996  0.45921  0.97045  1.0000
  Fe  Fe40      1.0  0.11400  0.48052  0.94422  1.0000
  S   S89       1.0  0.12713  0.48477  0.92945  1.0000
  C   C331      1.0  0.00949  0.43785  0.88386  1.0000
  C   C332      1.0  0.03804  0.46152  0.97848  1.0000
  H   H398      1.0  0.08164  0.46440  0.94956  1.0000
  C   C333      1.0  0.03529  0.46789  0.96855  1.0000
  H   H399      1.0  0.10761  0.47740  0.98040  1.0000
  H   H400      1.0  0.03956  0.45268  0.98001  1.0000
  H   H401      1.0  0.00432  0.48657  0.79436  1.0000
  Fe  Fe41      1.0  0.13750  0.48224  0.94147  1.0000
  S   S90       1.0  0.02211  0.48140  0.93308  1.0000
  C   C334      1.0  0.98856  0.47679  0.81452  1.0000
  H   H402      1.0  0.07814  0.45278  0.96850  1.0000
  S   S91       1.0  0.15533  0.47420  0.93750  1.0000
  H   H403      1.0  0.01741  0.46129  0.83726  1.0000
  H   H404      1.0  0.09534  0.45471  0.96998  1.0000
  C   C335      1.0  0.07836  0.45671  0.97476  1.0000
  H   H405      1.0  0.01857  0.45410  0.87648  1.0000
  C   C336      1.0  0.10885  0.45704  0.97957  1.0000
  C   C337      1.0  0.09265  0.47444  0.93891  1.0000
  H   H406      1.0  0.01014  0.47897  0.98085  1.0000
  H   H407      1.0  0.05702  0.48447  0.97053  1.0000
  C   C338      1.0  0.03317  0.47931  0.96670  1.0000
  C   C339      1.0  0.08826  0.45776  0.97581  1.0000
  C   C340      1.0  0.99609  0.44338  0.87305  1.0000
  Fe  Fe42      1.0  0.03311  0.47642  0.91770  1.0000
  H   H408      1.0  0.06899  0.46990  0.93704  1.0000
  H   H409      1.0  0.07426  0.47947  0.96029  1.0000
  H   H410      1.0  0.17859  0.46831  0.93347  1.0000
  H   H411      1.0  0.99168  0.43715  0.87884  1.0000
  N   N22       1.0  0.00789  0.44001  0.87250  1.0000
  C   C341      1.0  0.01784  0.45943  0.84582  1.0000
  H   H412      1.0  0.99266  0.45116  0.87596  1.0000
  H   H413      1.0  0.00877  0.42271  0.87479  1.0000
  C   C342      1.0  0.17583  0.47425  0.93861  1.0000
  H   H414      1.0  0.15754  0.48307  0.97437  1.0000
  C   C343      1.0  0.02274  0.46560  0.84937  1.0000
  H   H415      1.0  0.98977  0.47567  0.83105  1.0000
  C   C344      1.0  0.08331  0.47018  0.94183  1.0000
  H   H416      1.0  0.12909  0.47843  0.97412  1.0000
  H   H417      1.0  0.02619  0.47220  0.84357  1.0000
  H   H418      1.0  0.99569  0.46125  0.91190  1.0000
  H   H419      1.0  0.02159  0.47996  0.88214  1.0000
  C   C345      1.0  0.98807  0.47167  0.82565  1.0000
  Fe  Fe43      1.0  0.05313  0.48087  0.92253  1.0000
  S   S92       1.0  0.06996  0.48389  0.91521  1.0000
  C   C346      1.0  0.18345  0.47777  0.94176  1.0000
  C   C347      1.0  0.06875  0.46074  0.98164  1.0000
  S   S93       1.0  0.10135  0.47056  0.94811  1.0000
  C   C348      1.0  0.09997  0.47580  0.97981  1.0000
  C   C349      1.0  0.07851  0.48033  0.92449  1.0000
  C   C350      1.0  0.02295  0.46346  0.86043  1.0000
  C   C351      1.0  0.01736  0.47311  0.89953  1.0000
  C   C352      1.0  0.00992  0.46795  0.90791  1.0000
  C   C353      1.0  0.00130  0.46540  0.90539  1.0000
  C   C354      1.0  0.99990  0.46816  0.89453  1.0000
  C   C355      1.0  0.00719  0.47355  0.88620  1.0000
  S   S94       1.0  0.98912  0.46449  0.89171  1.0000
  H   H420      1.0  0.01095  0.46569  0.91628  1.0000
  S   S95       1.0  0.12497  0.47604  0.95593  1.0000
  H   H421      1.0  0.00899  0.44691  0.85022  1.0000
  H   H422      1.0  0.00576  0.44519  0.88753  1.0000
  H   H423      1.0  0.02113  0.42714  0.86743  1.0000
  C   C356      1.0  0.01215  0.42954  0.86873  1.0000
  S   S96       1.0  0.99294  0.47308  0.85857  1.0000
  H   H424      1.0  0.06112  0.45990  0.98074  1.0000
  C   C357      1.0  0.07676  0.48624  0.96193  1.0000
  C   C358      1.0  0.16121  0.48607  0.94865  1.0000
  H   H425      1.0  0.07994  0.48287  0.96952  1.0000
  H   H426      1.0  0.00556  0.43119  0.88951  1.0000
  H   H427      1.0  0.09994  0.47770  0.97090  1.0000
  C   C359      1.0  0.09483  0.48178  0.92881  1.0000
  S   S97       1.0  0.04366  0.48647  0.93786  1.0000
  H   H428      1.0  0.10204  0.48506  0.92647  1.0000
  C   C360      1.0  0.98633  0.47174  0.80742  1.0000
  H   H429      1.0  0.99047  0.48479  0.81148  1.0000
  H   H430      1.0  0.03058  0.48429  0.95935  1.0000
  C   C361      1.0  0.12718  0.48077  0.98185  1.0000
  C   C362      1.0  0.03408  0.48434  0.97452  1.0000
  C   C363      1.0  0.08884  0.46272  0.98404  1.0000
  C   C364      1.0  0.17994  0.48548  0.94836  1.0000
  H   H431      1.0  0.09318  0.48173  0.98373  1.0000
  H   H432      1.0  0.10833  0.44827  0.98261  1.0000
  H   H433      1.0  0.11650  0.45780  0.98108  1.0000
  H   H434      1.0  0.17543  0.48573  0.97433  1.0000
  C   C365      1.0  0.03704  0.47803  0.98433  1.0000
  H   H435      1.0  0.16679  0.48713  0.91395  1.0000
  H   H436      1.0  0.01095  0.45931  0.98322  1.0000
  Fe  Fe44      1.0  0.06620  0.54987  0.02290  1.0000
  S   S98       1.0  0.07539  0.53511  0.01591  1.0000
  S   S99       1.0  0.06039  0.54770  0.04136  1.0000
  C   C366      1.0  0.16496  0.50260  0.01691  1.0000
  H   H437      1.0  0.01380  0.51512  0.06658  1.0000
  Fe  Fe45      1.0  0.08726  0.54544  0.00582  1.0000
  C   C367      1.0  0.08364  0.51107  0.99884  1.0000
  S   S100      1.0  0.00204  0.55176  0.11823  1.0000
  C   C368      1.0  0.00013  0.54137  0.15112  1.0000
  H   H438      1.0  0.13766  0.52152  0.00880  1.0000
  S   S101      1.0  0.12466  0.51268  0.03264  1.0000
  C   C369      1.0  0.04020  0.54510  0.04161  1.0000
  S   S102      1.0  0.15965  0.55805  0.01663  1.0000
  C   C370      1.0  0.12382  0.54420  0.04654  1.0000
  H   H439      1.0  0.01648  0.49191  0.09073  1.0000
  Fe  Fe46      1.0  0.17491  0.56029  0.00405  1.0000
  C   C371      1.0  0.14229  0.51533  0.00415  1.0000
  H   H440      1.0  0.09170  0.52503  0.04944  1.0000
  S   S103      1.0  0.13720  0.56577  0.00082  1.0000
  Fe  Fe47      1.0  0.99670  0.52869  0.18043  1.0000
  S   S104      1.0  0.99612  0.54529  0.18295  1.0000
  C   C372      1.0  0.02146  0.52898  0.99775  1.0000
  Fe  Fe48      1.0  0.00508  0.53959  0.08262  1.0000
  C   C373      1.0  0.99971  0.54803  0.14057  1.0000
  H   H441      1.0  0.02856  0.49201  0.05592  1.0000
  S   S105      1.0  0.16856  0.55976  0.98999  1.0000
  C   C374      1.0  0.10961  0.55370  0.03242  1.0000
  C   C375      1.0  0.02632  0.50746  0.08114  1.0000
  H   H442      1.0  0.14089  0.54473  0.99530  1.0000
  H   H443      1.0  0.13229  0.55706  0.03745  1.0000
  C   C376      1.0  0.01784  0.48872  0.08352  1.0000
  C   C377      1.0  0.00556  0.51816  0.04582  1.0000
  N   N23       1.0  0.03153  0.55576  0.98756  1.0000
  C   C378      1.0  0.08644  0.49841  0.02832  1.0000
  C   C379      1.0  0.13555  0.51689  0.03414  1.0000
  H   H444      1.0  0.02376  0.51056  0.05518  1.0000
  H   H445      1.0  0.02562  0.53886  0.00567  1.0000
  H   H446      1.0  0.12184  0.48975  0.00911  1.0000
  H   H447      1.0  0.11973  0.56550  0.02495  1.0000
  C   C380      1.0  0.13650  0.52775  0.02971  1.0000
  H   H448      1.0  0.99914  0.53262  0.05251  1.0000
  S   S106      1.0  0.05617  0.55707  0.01013  1.0000
  C   C381      1.0  0.03286  0.54334  0.06439  1.0000
  H   H449      1.0  0.13042  0.53354  0.02560  1.0000
  H   H450      1.0  0.11416  0.57002  0.00575  1.0000
  H   H451      1.0  0.10770  0.53172  0.02731  1.0000
  C   C382      1.0  0.05104  0.52682  0.00574  1.0000
  C   C383      1.0  0.18204  0.48869  0.01358  1.0000
  C   C384      1.0  0.04054  0.51284  0.01278  1.0000
  C   C385      1.0  0.03896  0.51427  0.02344  1.0000
  C   C386      1.0  0.04272  0.52253  0.02515  1.0000
  C   C387      1.0  0.04880  0.52880  0.01628  1.0000
  C   C388      1.0  0.11525  0.53939  0.04751  1.0000
  C   C389      1.0  0.00250  0.54331  0.13139  1.0000
  H   H452      1.0  0.04149  0.52367  0.03340  1.0000
  H   H453      1.0  0.05214  0.53481  0.01774  1.0000
  S   S107      1.0  0.03375  0.50474  0.03464  1.0000
  C   C390      1.0  0.10993  0.55603  0.00361  1.0000
  C   C391      1.0  0.11719  0.56211  0.00356  1.0000
  C   C392      1.0  0.12836  0.55796  0.00077  1.0000
  C   C393      1.0  0.14541  0.53115  0.03040  1.0000
  C   C394      1.0  0.04711  0.54574  0.04771  1.0000
  H   H454      1.0  0.10135  0.55927  0.00583  1.0000
  H   H455      1.0  0.09847  0.54440  0.02375  1.0000
  H   H456      1.0  0.03038  0.50113  0.08733  1.0000
  C   C395      1.0  0.09856  0.50687  0.03242  1.0000
  H   H457      1.0  0.10429  0.55772  0.02680  1.0000
  C   C396      1.0  0.15245  0.51284  0.04001  1.0000
  S   S108      1.0  0.10493  0.53769  0.00158  1.0000
  H   H458      1.0  0.09332  0.53248  0.03054  1.0000
  C   C397      1.0  0.02332  0.49369  0.07297  1.0000
  H   H459      1.0  0.02971  0.51489  0.07933  1.0000
  H   H460      1.0  0.11474  0.53193  0.05372  1.0000
  N   N24       1.0  0.09880  0.53909  0.04103  1.0000
  H   H461      1.0  0.04294  0.54581  0.03283  1.0000
  H   H462      1.0  0.08092  0.51961  0.00013  1.0000
  H   H463      1.0  0.08743  0.55456  0.03749  1.0000
  H   H464      1.0  0.08765  0.54920  0.05177  1.0000
  H   H465      1.0  0.01097  0.49097  0.17610  1.0000
  H   H466      1.0  0.09729  0.52976  0.05779  1.0000
  H   H467      1.0  0.08134  0.54329  0.04496  1.0000
  Fe  Fe49      1.0  0.15385  0.55619  0.00276  1.0000
  H   H468      1.0  0.04874  0.54525  0.06390  1.0000
  H   H469      1.0  0.10686  0.51735  0.01872  1.0000
  C   C398      1.0  0.14346  0.50943  0.03940  1.0000
  C   C399      1.0  0.11833  0.55831  0.03138  1.0000
  H   H470      1.0  0.10608  0.52231  0.04753  1.0000
  C   C400      1.0  0.00519  0.50728  0.04709  1.0000
  C   C401      1.0  0.12542  0.55357  0.03842  1.0000
  S   S109      1.0  0.01257  0.54104  0.06443  1.0000
  C   C402      1.0  0.07072  0.50410  0.01450  1.0000
  C   C403      1.0  0.99122  0.51944  0.06215  1.0000
  H   H471      1.0  0.99729  0.55685  0.13951  1.0000
  S   S110      1.0  0.16005  0.53798  0.00556  1.0000
  H   H472      1.0  0.01415  0.49735  0.12650  1.0000
  H   H473      1.0  0.01958  0.49801  0.14117  1.0000
  C   C404      1.0  0.08839  0.54688  0.04393  1.0000
  Fe  Fe50      1.0  0.99818  0.53634  0.20007  1.0000
  H   H474      1.0  0.00791  0.52823  0.12577  1.0000
  C   C405      1.0  0.01580  0.49513  0.15849  1.0000
  H   H475      1.0  0.07859  0.51041  0.99357  1.0000
  C   C406      1.0  0.17967  0.50701  0.00194  1.0000
  C   C407      1.0  0.16601  0.49232  0.06437  1.0000
  H   H476      1.0  0.12797  0.53402  0.99526  1.0000
  H   H477      1.0  0.00917  0.51654  0.14424  1.0000
  C   C408      1.0  0.10790  0.54399  0.04039  1.0000
  S   S111      1.0  0.01305  0.53087  0.09688  1.0000
  H   H478      1.0  0.08133  0.49253  0.03129  1.0000
  S   S112      1.0  0.07902  0.55962  0.01393  1.0000
  Fe  Fe51      1.0  0.17535  0.54173  0.99415  1.0000
  H   H479      1.0  0.02610  0.52001  0.06129  1.0000
  C   C409      1.0  0.09961  0.53682  0.03023  1.0000
  H   H480      1.0  0.09891  0.58482  0.98993  1.0000
  C   C410      1.0  0.04343  0.54477  0.05913  1.0000
  C   C411      1.0  0.09850  0.52859  0.04933  1.0000
  H   H481      1.0  0.03006  0.54273  0.07316  1.0000
  C   C412      1.0  0.02965  0.54364  0.04687  1.0000
  C   C413      1.0  0.18480  0.54593  0.03427  1.0000
  S   S113      1.0  0.00244  0.50340  0.10797  1.0000
  Fe  Fe52      1.0  0.99976  0.52166  0.10240  1.0000
  C   C414      1.0  0.17769  0.50428  0.06271  1.0000
  C   C415      1.0  0.99783  0.50242  0.05584  1.0000
  H   H482      1.0  0.16131  0.51150  0.01650  1.0000
  C   C416      1.0  0.11383  0.54577  0.00090  1.0000
  C   C417      1.0  0.00366  0.52998  0.15246  1.0000
  H   H483      1.0  0.98968  0.55444  0.21373  1.0000
  C   C418      1.0  0.04662  0.51910  0.00391  1.0000
  H   H484      1.0  0.99462  0.49481  0.08228  1.0000
  C   C419      1.0  0.15350  0.52368  0.03536  1.0000
  C   C420      1.0  0.15109  0.51740  0.99559  1.0000
  H   H485      1.0  0.15878  0.50694  0.04361  1.0000
  C   C421      1.0  0.02263  0.51263  0.06320  1.0000
  H   H486      1.0  0.01072  0.50255  0.04129  1.0000
  H   H487      1.0  0.13231  0.50381  0.01314  1.0000
  N   N25       1.0  0.02787  0.50346  0.07103  1.0000
  H   H488      1.0  0.14606  0.53959  0.02694  1.0000
  C   C422      1.0  0.99057  0.50836  0.06363  1.0000
  C   C423      1.0  0.14541  0.49719  0.00090  1.0000
  Fe  Fe53      1.0  0.06642  0.54309  0.00245  1.0000
  C   C424      1.0  0.98844  0.49296  0.07917  1.0000
  C   C425      1.0  0.13935  0.50531  0.00667  1.0000
  H   H489      1.0  0.00038  0.52163  0.22588  1.0000
  H   H490      1.0  0.17524  0.51574  0.00121  1.0000
  Fe  Fe54      1.0  0.00076  0.54323  0.10587  1.0000
  C   C426      1.0  0.03967  0.50087  0.06622  1.0000
  H   H491      1.0  0.02434  0.54321  0.04207  1.0000
  H   H492      1.0  0.06602  0.50430  0.00853  1.0000
  S   S114      1.0  0.18134  0.57533  0.00100  1.0000
  H   H493      1.0  0.06736  0.51181  0.01757  1.0000
  C   C427      1.0  0.99769  0.51378  0.22838  1.0000
  H   H494      1.0  0.04818  0.51770  0.99572  1.0000
  C   C428      1.0  0.02590  0.54286  0.05825  1.0000
  H   H495      1.0  0.98945  0.51389  0.15092  1.0000
  C   C429      1.0  0.16771  0.50286  0.06243  1.0000
  S   S115      1.0  0.00449  0.52132  0.16550  1.0000
  C   C430      1.0  0.13227  0.54782  0.99777  1.0000
  Fe  Fe55      1.0  0.16709  0.54011  0.01845  1.0000
  H   H496      1.0  0.98692  0.49745  0.16635  1.0000
  H   H497      1.0  0.04348  0.50784  0.06523  1.0000
  H   H498      1.0  0.01757  0.50996  0.08495  1.0000
  H   H499      1.0  0.18438  0.59259  0.00826  1.0000
  C   C431      1.0  0.15714  0.50933  0.98972  1.0000
  S   S116      1.0  0.06008  0.53332  0.99510  1.0000
  H   H500      1.0  0.09791  0.51569  0.00558  1.0000
  H   H501      1.0  0.10270  0.50765  0.03818  1.0000
  C   C432      1.0  0.99863  0.52422  0.05336  1.0000
  H   H502      1.0  0.04147  0.49925  0.05784  1.0000
  C   C433      1.0  0.12499  0.54178  0.99774  1.0000
  C   C434      1.0  0.10090  0.51231  0.02145  1.0000
  Fe  Fe56      1.0  0.06980  0.56538  0.00051  1.0000
  H   H503      1.0  0.06888  0.49716  0.02148  1.0000
  H   H504      1.0  0.03901  0.54899  0.00147  1.0000
  H   H505      1.0  0.03726  0.50672  0.01141  1.0000
  C   C435      1.0  0.08816  0.50432  0.01720  1.0000
  S   S117      1.0  0.16542  0.52768  0.03441  1.0000
  C   C436      1.0  0.02061  0.52728  0.98794  1.0000
  S   S118      1.0  0.99392  0.55284  0.09108  1.0000
  C   C437      1.0  0.11787  0.49371  0.99342  1.0000
  H   H506      1.0  0.12951  0.54040  0.05184  1.0000
  H   H507      1.0  0.16236  0.49833  0.02561  1.0000
  H   H508      1.0  0.09577  0.49060  0.00346  1.0000
  S   S119      1.0  0.00918  0.53769  0.20990  1.0000
  S   S120      1.0  0.18306  0.54244  0.00721  1.0000
  N   N26       1.0  0.08249  0.50294  0.00950  1.0000
  H   H509      1.0  0.17885  0.54954  0.04100  1.0000
  S   S121      1.0  0.00048  0.51968  0.19686  1.0000
  C   C438      1.0  0.15457  0.49889  0.99230  1.0000
  H   H510      1.0  0.14278  0.48959  0.00318  1.0000
  C   C439      1.0  0.01563  0.49306  0.14855  1.0000
  C   C440      1.0  0.09577  0.51114  0.01391  1.0000
  C   C441      1.0  0.98992  0.50051  0.10928  1.0000
  C   C442      1.0  0.00251  0.54368  0.22129  1.0000
  S   S122      1.0  0.07909  0.55199  0.99171  1.0000
  H   H511      1.0  0.03605  0.56360  0.99772  1.0000
  C   C443      1.0  0.00570  0.53191  0.13281  1.0000
  H   H512      1.0  0.02521  0.55677  0.00459  1.0000
  S   S123      1.0  0.98824  0.53314  0.11260  1.0000
  C   C444      1.0  0.00563  0.48916  0.21681  1.0000
  N   N27       1.0  0.17693  0.50043  0.01329  1.0000
  H   H513      1.0  0.16129  0.50995  0.06061  1.0000
  H   H514      1.0  0.16128  0.49988  0.01172  1.0000
  H   H515      1.0  0.09015  0.49505  0.04422  1.0000
  C   C445      1.0  0.00644  0.52530  0.14327  1.0000
  H   H516      1.0  0.01969  0.50147  0.15849  1.0000
  H   H517      1.0  0.14275  0.50100  0.04285  1.0000
  C   C446      1.0  0.01685  0.48825  0.12804  1.0000
  C   C447      1.0  0.02488  0.53822  0.99782  1.0000
  H   H518      1.0  0.17755  0.51330  0.02037  1.0000
  H   H519      1.0  0.01817  0.52000  0.98789  1.0000
  C   C448      1.0  0.03297  0.55624  0.99834  1.0000
  H   H520      1.0  0.08630  0.59023  0.98602  1.0000
  H   H521      1.0  0.15828  0.49120  0.06398  1.0000
  H   H522      1.0  0.99798  0.54507  0.15814  1.0000
  H   H523      1.0  0.09212  0.50986  0.99394  1.0000
  S   S124      1.0  0.99255  0.52940  0.08766  1.0000
  C   C449      1.0  0.09146  0.49980  0.03582  1.0000
  H   H524      1.0  0.11241  0.50139  0.99468  1.0000
  C   C450      1.0  0.00674  0.54028  0.23077  1.0000
  H   H525      1.0  0.04389  0.49352  0.07146  1.0000
  C   C451      1.0  0.02753  0.54607  0.98794  1.0000
  Fe  Fe57      1.0  0.12800  0.49435  0.03604  1.0000
  H   H526      1.0  0.01142  0.52183  0.03912  1.0000
  H   H527      1.0  0.01969  0.52299  0.00534  1.0000
  H   H528      1.0  0.01419  0.53412  0.23096  1.0000
  C   C452      1.0  0.18104  0.50442  0.02062  1.0000
  H   H529      1.0  0.08277  0.49035  0.00157  1.0000
  C   C453      1.0  0.08693  0.49185  0.00718  1.0000
  H   H530      1.0  0.04603  0.59493  0.98740  1.0000
  C   C454      1.0  0.02448  0.48873  0.06415  1.0000
  C   C455      1.0  0.99294  0.55170  0.22105  1.0000
  S   S125      1.0  0.06703  0.58243  0.99026  1.0000
  H   H531      1.0  0.17895  0.49992  0.02931  1.0000
  H   H532      1.0  0.02117  0.49056  0.21773  1.0000
  N   N28       1.0  0.16054  0.49033  0.98596  1.0000
  H   H533      1.0  0.99576  0.49582  0.13591  1.0000
  H   H534      1.0  0.99783  0.49397  0.05644  1.0000
  H   H535      1.0  0.00504  0.50769  0.22560  1.0000
  H   H536      1.0  0.99157  0.51440  0.22370  1.0000
  H   H537      1.0  0.01561  0.56629  0.98935  1.0000
  H   H538      1.0  0.18064  0.54093  0.03183  1.0000
  H   H539      1.0  0.15319  0.52534  0.99341  1.0000
  H   H540      1.0  0.17768  0.50370  0.99595  1.0000
  C   C456      1.0  0.01086  0.48923  0.16845  1.0000
  H   H541      1.0  0.17896  0.51249  0.06117  1.0000
  H   H542      1.0  0.00402  0.49709  0.21126  1.0000
  C   C457      1.0  0.98907  0.48984  0.11003  1.0000
  Fe  Fe58      1.0  0.03940  0.48883  0.02927  1.0000
  H   H543      1.0  0.11482  0.52452  0.98484  1.0000
  C   C458      1.0  0.98781  0.55651  0.23013  1.0000
  C   C459      1.0  0.18604  0.49518  0.06493  1.0000
  S   S126      1.0  0.99088  0.49402  0.35828  1.0000
  Fe  Fe59      1.0  0.98952  0.60861  0.44509  1.0000
  H   H544      1.0  0.99601  0.90461  0.45867  1.0000
  H   H545      1.0  0.01162  0.74931  0.47411  1.0000
  Fe  Fe60      1.0  0.14360  0.96653  0.43731  1.0000
  C   C460      1.0  0.99048  0.58666  0.38914  1.0000
  H   H546      1.0  0.00915  0.53777  0.32429  1.0000
  Fe  Fe61      1.0  0.04173  0.96900  0.43390  1.0000
  S   S127      1.0  0.05269  0.95336  0.42938  1.0000
  H   H547      1.0  0.00791  0.91004  0.47815  1.0000
  Fe  Fe62      1.0  0.03276  0.95754  0.45680  1.0000
  S   S128      1.0  0.04290  0.94116  0.45449  1.0000
  S   S129      1.0  0.02226  0.95868  0.47349  1.0000
  Fe  Fe63      1.0  0.05644  0.94984  0.44599  1.0000
  S   S130      1.0  0.07195  0.94350  0.45208  1.0000
  Fe  Fe64      1.0  0.03824  0.94566  0.43818  1.0000
  S   S131      1.0  0.03529  0.93071  0.43448  1.0000
  S   S132      1.0  0.04667  0.96587  0.44980  1.0000
  S   S133      1.0  0.02694  0.96164  0.44121  1.0000
  Fe  Fe65      1.0  0.12242  0.96653  0.43199  1.0000
  S   S134      1.0  0.11280  0.97970  0.44104  1.0000
  S   S135      1.0  0.11351  0.96085  0.42295  1.0000
  C   C461      1.0  0.99183  0.49942  0.24304  1.0000
  Fe  Fe66      1.0  0.12239  0.97059  0.45374  1.0000
  C   C462      1.0  0.00324  0.50296  0.30854  1.0000
  H   H548      1.0  0.00338  0.51945  0.24378  1.0000
  S   S136      1.0  0.13088  0.95656  0.44552  1.0000
  S   S137      1.0  0.13595  0.97522  0.42285  1.0000
  N   N29       1.0  0.99066  0.95055  0.48104  1.0000
  H   H549      1.0  0.02998  0.51994  0.29515  1.0000
  H   H550      1.0  0.01914  0.87461  0.44674  1.0000
  S   S138      1.0  0.00139  0.61182  0.42890  1.0000
  S   S139      1.0  0.99356  0.59572  0.45986  1.0000
  C   C463      1.0  0.99267  0.51187  0.36400  1.0000
  S   S140      1.0  0.00510  0.64136  0.42907  1.0000
  C   C464      1.0  0.98717  0.67719  0.42151  1.0000
  H   H551      1.0  0.01348  0.89626  0.48417  1.0000
  C   C465      1.0  0.01129  0.50490  0.27591  1.0000
  C   C466      1.0  0.02011  0.49821  0.27031  1.0000
  H   H552      1.0  0.02818  0.49960  0.26877  1.0000
  N   N30       1.0  0.98746  0.85999  0.47306  1.0000
  H   H553      1.0  0.02346  0.54655  0.31081  1.0000
  C   C467      1.0  0.99796  0.55034  0.33208  1.0000
  Fe  Fe67      1.0  0.98787  0.81238  0.43500  1.0000
  H   H554      1.0  0.98788  0.93521  0.40815  1.0000
  S   S141      1.0  0.99018  0.71115  0.42982  1.0000
  S   S142      1.0  0.99269  0.89298  0.42033  1.0000
  S   S143      1.0  0.00478  0.86436  0.43883  1.0000
  H   H555      1.0  0.00228  0.78478  0.47744  1.0000
  S   S144      1.0  0.99263  0.92142  0.42826  1.0000
  C   C468      1.0  0.00458  0.59330  0.47556  1.0000
  C   C469      1.0  0.16872  0.97812  0.40783  1.0000
  H   H556      1.0  0.06466  0.98108  0.42975  1.0000
  H   H557      1.0  0.99256  0.91793  0.39625  1.0000
  C   C470      1.0  0.00276  0.78711  0.45067  1.0000
  C   C471      1.0  0.01106  0.65801  0.45676  1.0000
  S   S145      1.0  0.00508  0.69884  0.45438  1.0000
  H   H558      1.0  0.01170  0.57560  0.30351  1.0000
  C   C472      1.0  0.99856  0.65521  0.42567  1.0000
  H   H559      1.0  0.99153  0.93780  0.39367  1.0000
  H   H560      1.0  0.99174  0.74524  0.46966  1.0000
  C   C473      1.0  0.11733  0.97664  0.47776  1.0000
  S   S146      1.0  0.00075  0.54523  0.37355  1.0000
  H   H561      1.0  0.00231  0.77471  0.44335  1.0000
  H   H562      1.0  0.02275  0.56470  0.30676  1.0000
  H   H563      1.0  0.01733  0.65683  0.44951  1.0000
  H   H564      1.0  0.00929  0.50514  0.24397  1.0000
  H   H565      1.0  0.98876  0.66445  0.48229  1.0000
  H   H566      1.0  0.09424  0.98173  0.47683  1.0000
  C   C474      1.0  0.02108  0.86669  0.46317  1.0000
  H   H567      1.0  0.04507  0.95037  0.47540  1.0000
  H   H568      1.0  0.00473  0.93143  0.45253  1.0000
  C   C475      1.0  0.14467  0.96404  0.47083  1.0000
  C   C476      1.0  0.99189  0.53854  0.40566  1.0000
  S   S147      1.0  0.00251  0.81683  0.43675  1.0000
  C   C477      1.0  0.98862  0.50231  0.36762  1.0000
  H   H569      1.0  0.00745  0.51876  0.30314  1.0000
  H   H570      1.0  0.00234  0.74569  0.45170  1.0000
  H   H571      1.0  0.03247  0.56665  0.28713  1.0000
  C   C478      1.0  0.00210  0.77157  0.47048  1.0000
  C   C479      1.0  0.00625  0.64936  0.46400  1.0000
  C   C480      1.0  0.07779  0.98593  0.46680  1.0000
  C   C481      1.0  0.99151  0.87022  0.46956  1.0000
  C   C482      1.0  0.00219  0.76821  0.46095  1.0000
  S   S148      1.0  0.13566  0.97982  0.44666  1.0000
  C   C483      1.0  0.16615  0.97374  0.44335  1.0000
  H   H572      1.0  0.01948  0.55240  0.27736  1.0000
  N   N31       1.0  0.00223  0.75664  0.46159  1.0000
  C   C484      1.0  0.99800  0.65207  0.47315  1.0000
  C   C485      1.0  0.00156  0.51115  0.24603  1.0000
  C   C486      1.0  0.16985  0.96371  0.44013  1.0000
  C   C487      1.0  0.00354  0.84840  0.48072  1.0000
  C   C488      1.0  0.00307  0.72052  0.47734  1.0000
  C   C489      1.0  0.05599  0.92937  0.47927  1.0000
  C   C490      1.0  0.99595  0.54556  0.31598  1.0000
  H   H573      1.0  0.05144  0.95521  0.48313  1.0000
  H   H574      1.0  0.09215  0.95972  0.47369  1.0000
  H   H575      1.0  0.99069  0.65293  0.41430  1.0000
  H   H576      1.0  0.06028  0.98670  0.47230  1.0000
  C   C491      1.0  0.00436  0.70705  0.46331  1.0000
  C   C492      1.0  0.01374  0.70966  0.46394  1.0000
  C   C493      1.0  0.99366  0.51889  0.42442  1.0000
  H   H577      1.0  0.99690  0.91452  0.46520  1.0000
  N   N32       1.0  0.14831  0.95243  0.47623  1.0000
  C   C494      1.0  0.99441  0.71103  0.46984  1.0000
  H   H578      1.0  0.02147  0.70655  0.45893  1.0000
  C   C495      1.0  0.99236  0.75366  0.46948  1.0000
  H   H579      1.0  0.00308  0.79318  0.44298  1.0000
  C   C496      1.0  0.01606  0.92947  0.46234  1.0000
  C   C497      1.0  0.00357  0.85154  0.43772  1.0000
  C   C498      1.0  0.01256  0.84281  0.43835  1.0000
  C   C499      1.0  0.01204  0.83233  0.43796  1.0000
  C   C500      1.0  0.00248  0.83036  0.43703  1.0000
  H   H580      1.0  0.07947  0.97130  0.43869  1.0000
  C   C501      1.0  0.99391  0.84967  0.43676  1.0000
  H   H581      1.0  0.02002  0.84414  0.43915  1.0000
  H   H582      1.0  0.01911  0.82570  0.43840  1.0000
  C   C502      1.0  0.15797  0.95135  0.48043  1.0000
  H   H583      1.0  0.98806  0.51786  0.42029  1.0000
  H   H584      1.0  0.99529  0.67951  0.43266  1.0000
  H   H585      1.0  0.00625  0.52056  0.32195  1.0000
  C   C503      1.0  0.00584  0.56728  0.29034  1.0000
  H   H586      1.0  0.01141  0.54046  0.39319  1.0000
  N   N33       1.0  0.99335  0.51084  0.24042  1.0000
  C   C504      1.0  0.01231  0.63002  0.47205  1.0000
  C   C505      1.0  0.11985  0.98661  0.47146  1.0000
  C   C506      1.0  0.15665  0.98519  0.47656  1.0000
  C   C507      1.0  0.02651  0.96717  0.47895  1.0000
  C   C508      1.0  0.99656  0.60012  0.47011  1.0000
  C   C509      1.0  0.99582  0.58830  0.40800  1.0000
  H   H587      1.0  0.00549  0.62979  0.47937  1.0000
  H   H588      1.0  0.99723  0.64154  0.45271  1.0000
  H   H589      1.0  0.99898  0.51104  0.44998  1.0000
  H   H590      1.0  0.13745  0.96512  0.46754  1.0000
  C   C510      1.0  0.01215  0.83927  0.48139  1.0000
  S   S149      1.0  0.16127  0.95808  0.43608  1.0000
  H   H591      1.0  0.02093  0.82481  0.47523  1.0000
  H   H592      1.0  0.99022  0.49581  0.25199  1.0000
  H   H593      1.0  0.98696  0.91632  0.41073  1.0000
  C   C511      1.0  0.99998  0.66280  0.43066  1.0000
  H   H594      1.0  0.08031  0.97312  0.41847  1.0000
  H   H595      1.0  0.00963  0.82808  0.46184  1.0000
  C   C512      1.0  0.00929  0.93838  0.47772  1.0000
  C   C513      1.0  0.00250  0.75441  0.45090  1.0000
  H   H596      1.0  0.00542  0.66019  0.43619  1.0000
  H   H597      1.0  0.99006  0.94275  0.46301  1.0000
  C   C514      1.0  0.98744  0.59671  0.39245  1.0000
  C   C515      1.0  0.00231  0.78237  0.47007  1.0000
  N   N34       1.0  0.07986  0.98609  0.42608  1.0000
  H   H598      1.0  0.98723  0.70867  0.46978  1.0000
  C   C516      1.0  0.99491  0.66267  0.47508  1.0000
  H   H599      1.0  0.02173  0.57847  0.28459  1.0000
  S   S150      1.0  0.99833  0.54635  0.27781  1.0000
  C   C517      1.0  0.02324  0.92836  0.43293  1.0000
  C   C518      1.0  0.01440  0.93691  0.43083  1.0000
  C   C519      1.0  0.00507  0.93462  0.42947  1.0000
  C   C520      1.0  0.00446  0.92380  0.43026  1.0000
  C   C521      1.0  0.01328  0.91525  0.43242  1.0000
  C   C522      1.0  0.02262  0.91753  0.43371  1.0000
  H   H600      1.0  0.01480  0.94527  0.43015  1.0000
  H   H601      1.0  0.99831  0.94130  0.42776  1.0000
  H   H602      1.0  0.01299  0.90691  0.43286  1.0000
  H   H603      1.0  0.02948  0.91089  0.43520  1.0000
  C   C523      1.0  0.08369  0.94785  0.44386  1.0000
  C   C524      1.0  0.09130  0.94895  0.44894  1.0000
  C   C525      1.0  0.10056  0.95281  0.44258  1.0000
  C   C526      1.0  0.10245  0.95518  0.43111  1.0000
  C   C527      1.0  0.09507  0.95363  0.42604  1.0000
  C   C528      1.0  0.08557  0.95021  0.43240  1.0000
  H   H604      1.0  0.08997  0.94691  0.45780  1.0000
  H   H605      1.0  0.10629  0.95388  0.44653  1.0000
  H   H606      1.0  0.09660  0.95530  0.41717  1.0000
  H   H607      1.0  0.07982  0.94920  0.42844  1.0000
  H   H608      1.0  0.00914  0.58573  0.47311  1.0000
  H   H609      1.0  0.01661  0.64159  0.44479  1.0000
  H   H610      1.0  0.09126  0.93722  0.48005  1.0000
  H   H611      1.0  0.00489  0.52587  0.39155  1.0000
  C   C529      1.0  0.01765  0.93182  0.47151  1.0000
  S   S151      1.0  0.00580  0.54891  0.34155  1.0000
  C   C530      1.0  0.08423  0.98010  0.41702  1.0000
  H   H612      1.0  0.00639  0.56666  0.28184  1.0000
  H   H613      1.0  0.00109  0.50594  0.33796  1.0000
  C   C531      1.0  0.00793  0.83379  0.46711  1.0000
  C   C532      1.0  0.99335  0.83905  0.43647  1.0000
  C   C533      1.0  0.00154  0.52525  0.41872  1.0000
  H   H614      1.0  0.01945  0.75185  0.46023  1.0000
  H   H615      1.0  0.02490  0.85875  0.46114  1.0000
  H   H616      1.0  0.00994  0.75606  0.44468  1.0000
  H   H617      1.0  0.00911  0.56246  0.31077  1.0000
  H   H618      1.0  0.99924  0.49375  0.23958  1.0000
  H   H619      1.0  0.01914  0.53115  0.40262  1.0000
  H   H620      1.0  0.00214  0.57602  0.29069  1.0000
  H   H621      1.0  0.99714  0.51805  0.40276  1.0000
  H   H622      1.0  0.18387  0.95565  0.47100  1.0000
  C   C534      1.0  0.99643  0.57743  0.39512  1.0000
  H   H623      1.0  0.06272  0.93009  0.47186  1.0000
  C   C535      1.0  0.03042  0.97626  0.47207  1.0000
  H   H624      1.0  0.01968  0.90237  0.47043  1.0000
  N   N35       1.0  0.00478  0.89793  0.47171  1.0000
  S   S152      1.0  0.99055  0.57045  0.36188  1.0000
  S   S153      1.0  0.11469  0.96755  0.47165  1.0000
  C   C536      1.0  0.02047  0.55156  0.29410  1.0000
  H   H625      1.0  0.02201  0.86098  0.48017  1.0000
  C   C537      1.0  0.99279  0.51382  0.43555  1.0000
  H   H626      1.0  0.02066  0.62776  0.45158  1.0000
  H   H627      1.0  0.99285  0.63569  0.46706  1.0000
  H   H628      1.0  0.02592  0.63805  0.45380  1.0000
  H   H629      1.0  0.14378  0.94578  0.46511  1.0000
  H   H630      1.0  0.16965  0.98502  0.45043  1.0000
  C   C538      1.0  0.00840  0.52633  0.42489  1.0000
  H   H631      1.0  0.00865  0.90886  0.45594  1.0000
  C   C539      1.0  0.01498  0.56664  0.30410  1.0000
  C   C540      1.0  0.00161  0.50516  0.32972  1.0000
  H   H632      1.0  0.14243  0.96950  0.47672  1.0000
  N   N36       1.0  0.00221  0.53058  0.40695  1.0000
  C   C541      1.0  0.00089  0.50309  0.27788  1.0000
  C   C542      1.0  0.00804  0.48823  0.26819  1.0000
  H   H633      1.0  0.01048  0.89247  0.45092  1.0000
  C   C543      1.0  0.99198  0.55310  0.23964  1.0000
  H   H634      1.0  0.16813  0.95645  0.46428  1.0000
  C   C544      1.0  0.01061  0.88738  0.46853  1.0000
  H   H635      1.0  0.99122  0.49360  0.27543  1.0000
  C   C545      1.0  0.01272  0.88589  0.45763  1.0000
  C   C546      1.0  0.99507  0.95973  0.48142  1.0000
  C   C547      1.0  0.01434  0.83197  0.47459  1.0000
  C   C548      1.0  0.16759  0.95394  0.47304  1.0000
  C   C549      1.0  0.99673  0.85042  0.47332  1.0000
  H   H636      1.0  0.99869  0.50927  0.25508  1.0000
  H   H637      1.0  0.16239  0.97468  0.40717  1.0000
  C   C550      1.0  0.00150  0.90681  0.46243  1.0000
  C   C551      1.0  0.01190  0.74934  0.46547  1.0000
  H   H638      1.0  0.18341  0.95007  0.43804  1.0000
  Fe  Fe68      1.0  0.98722  0.61423  0.42127  1.0000
  H   H639      1.0  0.99899  0.96372  0.47302  1.0000
  N   N37       1.0  0.00927  0.63805  0.46215  1.0000
  C   C552      1.0  0.02750  0.52868  0.29485  1.0000
  H   H640      1.0  0.99459  0.84367  0.46052  1.0000
  H   H641      1.0  0.09306  0.97648  0.41603  1.0000
  C   C553      1.0  0.98822  0.55814  0.33207  1.0000
  C   C554      1.0  0.01847  0.48996  0.26634  1.0000
  C   C555      1.0  0.02702  0.53273  0.30386  1.0000
  C   C556      1.0  0.17277  0.97750  0.44759  1.0000
  H   H642      1.0  0.00397  0.50266  0.30016  1.0000
  C   C557      1.0  0.01939  0.86794  0.47387  1.0000
  N   N38       1.0  0.01648  0.56350  0.29353  1.0000
  C   C558      1.0  0.18514  0.97575  0.41387  1.0000
  C   C559      1.0  0.99929  0.49470  0.27413  1.0000
  C   C560      1.0  0.99924  0.84285  0.46645  1.0000
  C   C561      1.0  0.00245  0.77636  0.45100  1.0000
  C   C562      1.0  0.02432  0.56945  0.28514  1.0000
  H   H643      1.0  0.99771  0.51364  0.35585  1.0000
  H   H644      1.0  0.99220  0.75372  0.47805  1.0000
  C   C563      1.0  0.00266  0.79012  0.46017  1.0000
  H   H645      1.0  0.99325  0.52667  0.36791  1.0000
  C   C564      1.0  0.01782  0.87565  0.45506  1.0000
  H   H646      1.0  0.00194  0.62721  0.45814  1.0000
  H   H647      1.0  0.02924  0.52709  0.31120  1.0000
  H   H648      1.0  0.01901  0.63193  0.47431  1.0000
  Fe  Fe69      1.0  0.98817  0.90494  0.43134  1.0000
  C   C565      1.0  0.00137  0.54482  0.24002  1.0000
  Fe  Fe70      1.0  0.99352  0.56137  0.37872  1.0000
  H   H649      1.0  0.98921  0.89361  0.47703  1.0000
  Fe  Fe71      1.0  0.99197  0.87973  0.43576  1.0000
  H   H650      1.0  0.01079  0.68513  0.47810  1.0000
  S   S154      1.0  0.98845  0.79909  0.42668  1.0000
  C   C566      1.0  0.99373  0.71796  0.47663  1.0000
  C   C567      1.0  0.99910  0.57830  0.40454  1.0000
  H   H651      1.0  0.00985  0.54360  0.40602  1.0000
  C   C568      1.0  0.99945  0.49582  0.32820  1.0000
  H   H652      1.0  0.15814  0.97852  0.44275  1.0000
  C   C569      1.0  0.08730  0.97792  0.48161  1.0000
  Fe  Fe72      1.0  0.99607  0.55386  0.35744  1.0000
  C   C570      1.0  0.99263  0.61264  0.48231  1.0000
  H   H653      1.0  0.02979  0.97871  0.46358  1.0000
  C   C571      1.0  0.08283  0.97880  0.43628  1.0000
  S   S155      1.0  0.04192  0.98589  0.42268  1.0000
  C   C572      1.0  0.00454  0.51338  0.32072  1.0000
  S   S156      1.0  0.01321  0.51574  0.28014  1.0000
  C   C573      1.0  0.99912  0.94301  0.47476  1.0000
  H   H654      1.0  0.02265  0.92464  0.45734  1.0000
  H   H655      1.0  0.99404  0.50819  0.28228  1.0000
  H   H656      1.0  0.05907  0.94999  0.47117  1.0000
  H   H657      1.0  0.01261  0.74065  0.46533  1.0000
  C   C574      1.0  0.02479  0.53590  0.28537  1.0000
  C   C575      1.0  0.99969  0.51497  0.44135  1.0000
  H   H658      1.0  0.02035  0.71840  0.47143  1.0000
  C   C576      1.0  0.02365  0.54400  0.30352  1.0000
  H   H659      1.0  0.99388  0.64598  0.47888  1.0000
  C   C577      1.0  0.08908  0.96755  0.46815  1.0000
  C   C578      1.0  0.18047  0.95783  0.44055  1.0000
  H   H660      1.0  0.16147  0.97959  0.47098  1.0000
  H   H661      1.0  0.17766  0.98347  0.47472  1.0000
  C   C579      1.0  0.01854  0.63635  0.45269  1.0000
  H   H662      1.0  0.04860  0.93032  0.47627  1.0000
  H   H663      1.0  0.99712  0.87062  0.46132  1.0000
  H   H664      1.0  1.00000  0.56234  0.29592  1.0000
  H   H665      1.0  0.99899  0.54073  0.30976  1.0000
  C   C580      1.0  0.99020  0.51924  0.37086  1.0000
  C   C581      1.0  0.99972  0.67097  0.46779  1.0000
  C   C582      1.0  0.02143  0.54717  0.28493  1.0000
  H   H666      1.0  0.00470  0.54218  0.24729  1.0000
  C   C583      1.0  0.00525  0.51232  0.31016  1.0000
  H   H667      1.0  0.99000  0.54476  0.41071  1.0000
  H   H668      1.0  0.01500  0.62146  0.47077  1.0000
  H   H669      1.0  0.15447  0.93685  0.47154  1.0000
  H   H670      1.0  0.99724  0.67924  0.46920  1.0000
  H   H671      1.0  0.15699  0.94839  0.46049  1.0000
  H   H672      1.0  0.99788  0.58887  0.41528  1.0000
  C   C584      1.0  0.17667  0.95350  0.47681  1.0000
  Fe  Fe73      1.0  0.99509  0.62950  0.43011  1.0000
  S   S157      1.0  0.00088  0.56479  0.39091  1.0000
  H   H673      1.0  0.07968  0.98305  0.44323  1.0000
  C   C585      1.0  0.99989  0.63553  0.45996  1.0000
  S   S158      1.0  0.98922  0.89158  0.44643  1.0000
  H   H674      1.0  0.15093  0.96703  0.46373  1.0000
  Fe  Fe74      1.0  0.99781  0.52857  0.28122  1.0000
  C   C586      1.0  0.00172  0.54393  0.32414  1.0000
  H   H675      1.0  0.01275  0.52216  0.44059  1.0000
  C   C587      1.0  0.00051  0.49428  0.31753  1.0000
  C   C588      1.0  0.99762  0.94004  0.46565  1.0000
  H   H676      1.0  0.17741  0.96262  0.41550  1.0000
  H   H677      1.0  0.02527  0.56815  0.27679  1.0000
  H   H678      1.0  0.09640  0.97049  0.46294  1.0000
  N   N39       1.0  0.08156  0.97562  0.47447  1.0000
  H   H679      1.0  0.02520  0.53270  0.27835  1.0000
  C   C589      1.0  0.01178  0.90179  0.47631  1.0000
  H   H680      1.0  0.08290  0.98562  0.40903  1.0000
  H   H681      1.0  0.99534  0.75945  0.44759  1.0000
  C   C590      1.0  0.03526  0.98213  0.47615  1.0000
  C   C591      1.0  0.00745  0.52122  0.43603  1.0000
  H   H682      1.0  0.07498  0.93948  0.47354  1.0000
  C   C592      1.0  0.99002  0.59757  0.40191  1.0000
  C   C593      1.0  0.99163  0.65869  0.41838  1.0000
  H   H683      1.0  0.01097  0.94011  0.48466  1.0000
  H   H684      1.0  0.99029  0.90413  0.48285  1.0000
  H   H685      1.0  0.00375  0.57121  0.40917  1.0000
  H   H686      1.0  0.02549  0.92881  0.47364  1.0000
  H   H687      1.0  0.08505  0.96564  0.46267  1.0000
  C   C594      1.0  0.01309  0.71644  0.47092  1.0000
  C   C595      1.0  0.18324  0.97147  0.44837  1.0000
  C   C596      1.0  0.07441  0.93727  0.48230  1.0000
  H   H688      1.0  0.09175  0.97600  0.43534  1.0000
  C   C597      1.0  0.15103  0.94556  0.46802  1.0000
  H   H689      1.0  0.99230  0.54311  0.39702  1.0000
  H   H690      1.0  0.01142  0.67520  0.45297  1.0000
  H   H691      1.0  0.01453  0.53112  0.42133  1.0000
  C   C598      1.0  0.99421  0.67374  0.42868  1.0000
  C   C599      1.0  0.99064  0.60987  0.47343  1.0000
  C   C600      1.0  0.17719  0.97134  0.41255  1.0000
  C   C601      1.0  0.00686  0.59627  0.48409  1.0000
  H   H692      1.0  0.01145  0.51575  0.40165  1.0000
  H   H693      1.0  0.99705  0.48976  0.33550  1.0000
  H   H694      1.0  0.10136  0.98697  0.42018  1.0000
  H   H695      1.0  0.98848  0.58612  0.38181  1.0000
  H   H696      1.0  0.05787  0.92088  0.48427  1.0000
  H   H697      1.0  0.00287  0.79850  0.45979  1.0000
  C   C602      1.0  0.00601  0.93341  0.45956  1.0000
  C   C603      1.0  0.00775  0.66865  0.45865  1.0000
  H   H698      1.0  0.13188  0.95005  0.48148  1.0000
  C   C604      1.0  0.00402  0.52219  0.40050  1.0000
  Fe  Fe75      1.0  0.98997  0.70398  0.44773  1.0000
  C   C605      1.0  0.05250  0.94876  0.47858  1.0000
  H   H699      1.0  0.98690  0.85634  0.43630  1.0000
  C   C606      1.0  0.01108  0.53664  0.40207  1.0000
  C   C607      1.0  0.01425  0.87812  0.47653  1.0000
  H   H700      1.0  0.00193  0.76580  0.47831  1.0000
  C   C608      1.0  0.07271  0.97030  0.48180  1.0000
  H   H701      1.0  0.06809  0.96813  0.47705  1.0000
  H   H702      1.0  0.99659  0.48941  0.29933  1.0000
  H   H703      1.0  0.99600  0.87081  0.47534  1.0000
  C   C609      1.0  0.99479  0.89636  0.48020  1.0000
  S   S159      1.0  0.98696  0.53092  0.26984  1.0000
  H   H704      1.0  0.98671  0.50900  0.43972  1.0000
  C   C610      1.0  0.98639  0.55363  0.31579  1.0000
  Fe  Fe76      1.0  0.98648  0.54871  0.26742  1.0000
  C   C611      1.0  0.18493  0.98715  0.41032  1.0000
  C   C612      1.0  0.99251  0.48997  0.59468  1.0000
  Fe  Fe77      1.0  0.04589  0.95199  0.52193  1.0000
  S   S160      1.0  0.03656  0.96917  0.52285  1.0000
  S   S161      1.0  0.03940  0.93682  0.52400  1.0000
  Fe  Fe78      1.0  0.06793  0.95892  0.51433  1.0000
  S   S162      1.0  0.06039  0.97659  0.51422  1.0000
  S   S163      1.0  0.08578  0.95383  0.50732  1.0000
  Fe  Fe79      1.0  0.04978  0.97012  0.53017  1.0000
  C   C613      1.0  0.08382  0.93588  0.48594  1.0000
  Fe  Fe80      1.0  0.04806  0.97407  0.50694  1.0000
  C   C614      1.0  0.00597  0.49861  0.68973  1.0000
  S   S164      1.0  0.05819  0.95236  0.53087  1.0000
  S   S165      1.0  0.05649  0.95703  0.50545  1.0000
  H   H705      1.0  0.01323  0.59100  0.48812  1.0000
  Fe  Fe81      1.0  0.13360  0.96432  0.52310  1.0000
  S   S166      1.0  0.12493  0.98161  0.52392  1.0000
  S   S167      1.0  0.12452  0.95066  0.52859  1.0000
  Fe  Fe82      1.0  0.15584  0.97035  0.51374  1.0000
  H   H706      1.0  0.02384  0.95726  0.49541  1.0000
  S   S168      1.0  0.17371  0.96653  0.50596  1.0000
  H   H707      1.0  0.17021  0.98537  0.48808  1.0000
  S   S169      1.0  0.99022  0.79479  0.49728  1.0000
  H   H708      1.0  0.01551  0.67119  0.51645  1.0000
  H   H709      1.0  0.99869  0.51302  0.66453  1.0000
  S   S170      1.0  0.14690  0.96426  0.53088  1.0000
  S   S171      1.0  0.14344  0.96851  0.50595  1.0000
  H   H710      1.0  0.16919  0.98088  0.53420  1.0000
  H   H711      1.0  0.01262  0.52719  0.71777  1.0000
  H   H712      1.0  0.00244  0.70711  0.50331  1.0000
  H   H713      1.0  0.98724  0.91547  0.56518  1.0000
  H   H714      1.0  0.15581  0.98020  0.48513  1.0000
  H   H715      1.0  0.01869  0.53033  0.73116  1.0000
  H   H716      1.0  0.99230  0.60459  0.54654  1.0000
  H   H717      1.0  0.99236  0.48865  0.71660  1.0000
  Fe  Fe83      1.0  0.99098  0.61975  0.50852  1.0000
  C   C615      1.0  0.07424  0.93075  0.50468  1.0000
  H   H718      1.0  0.01311  0.87867  0.48495  1.0000
  C   C616      1.0  0.17694  0.98324  0.53097  1.0000
  C   C617      1.0  0.10132  0.96586  0.54689  1.0000
  S   S172      1.0  0.98820  0.65883  0.50733  1.0000
  H   H719      1.0  0.03115  0.69289  0.50141  1.0000
  S   S173      1.0  0.99692  0.54360  0.68997  1.0000
  H   H720      1.0  0.99699  0.90280  0.56506  1.0000
  C   C618      1.0  0.01374  0.66735  0.50233  1.0000
  N   N40       1.0  0.05456  0.93762  0.48573  1.0000
  H   H721      1.0  0.01099  0.68358  0.52617  1.0000
  Fe  Fe84      1.0  0.13898  0.98200  0.53027  1.0000
  H   H722      1.0  0.16701  0.94563  0.50422  1.0000
  H   H723      1.0  0.07594  0.95773  0.54316  1.0000
  C   C619      1.0  0.98687  0.67971  0.50845  1.0000
  H   H724      1.0  0.99901  0.50046  0.69624  1.0000
  H   H725      1.0  0.18338  0.95041  0.49095  1.0000
  H   H726      1.0  0.00846  0.49945  0.65383  1.0000
  N   N41       1.0  0.01446  0.69355  0.50959  1.0000
  Fe  Fe85      1.0  0.98720  0.83021  0.50858  1.0000
  S   S174      1.0  0.99428  0.57220  0.57712  1.0000
  H   H727      1.0  0.03100  0.49166  0.66655  1.0000
  H   H728      1.0  0.01625  0.70788  0.49638  1.0000
  C   C620      1.0  0.98970  0.57463  0.54517  1.0000
  S   S175      1.0  0.00412  0.60924  0.49829  1.0000
  Fe  Fe86      1.0  0.98802  0.92121  0.51585  1.0000
  S   S176      1.0  0.98786  0.82651  0.49249  1.0000
  Fe  Fe87      1.0  0.99731  0.52570  0.69351  1.0000
  C   C621      1.0  0.06451  0.93571  0.48979  1.0000
  Fe  Fe88      1.0  0.99276  0.89869  0.51056  1.0000
  C   C622      1.0  0.01248  0.67112  0.49152  1.0000
  H   H729      1.0  0.02905  0.68299  0.51412  1.0000
  S   S177      1.0  0.99597  0.91501  0.50045  1.0000
  C   C623      1.0  0.01086  0.70531  0.50448  1.0000
  C   C624      1.0  0.99228  0.85873  0.50989  1.0000
  H   H730      1.0  0.07417  0.92837  0.51339  1.0000
  C   C625      1.0  0.06480  0.93204  0.50112  1.0000
  H   H731      1.0  0.01192  0.66546  0.48708  1.0000
  H   H732      1.0  0.98756  0.91783  0.54468  1.0000
  C   C626      1.0  0.01030  0.53471  0.71156  1.0000
  C   C627      1.0  0.02694  0.96424  0.49004  1.0000
  H   H733      1.0  0.00132  0.49343  0.60455  1.0000
  C   C628      1.0  0.02678  0.54071  0.70871  1.0000
  C   C629      1.0  0.01175  0.68219  0.48653  1.0000
  H   H734      1.0  0.17162  0.95841  0.52965  1.0000
  C   C630      1.0  0.01215  0.68956  0.49237  1.0000
  H   H735      1.0  0.00213  0.85375  0.48624  1.0000
  C   C631      1.0  0.12115  0.98003  0.49352  1.0000
  C   C632      1.0  0.00084  0.60585  0.48760  1.0000
  S   S178      1.0  0.98756  0.72575  0.51718  1.0000
  H   H736      1.0  0.00342  0.48863  0.62485  1.0000
  H   H737      1.0  0.01423  0.55119  0.69457  1.0000
  H   H738      1.0  0.99398  0.94092  0.49668  1.0000
  H   H739      1.0  0.01461  0.56054  0.70217  1.0000
  H   H740      1.0  0.05778  0.93037  0.50743  1.0000
  C   C633      1.0  0.15808  0.94813  0.49181  1.0000
  C   C634      1.0  0.03196  0.91281  0.54498  1.0000
  C   C635      1.0  0.98771  0.59965  0.55342  1.0000
  H   H741      1.0  0.02731  0.69714  0.51426  1.0000
  H   H742      1.0  0.01696  0.83769  0.48743  1.0000
  Fe  Fe89      1.0  0.13553  0.98584  0.50727  1.0000
  C   C636      1.0  0.18301  0.96279  0.51451  1.0000
  C   C637      1.0  0.01165  0.85207  0.50775  1.0000
  H   H743      1.0  0.09093  0.93195  0.49996  1.0000
  C   C638      1.0  0.00379  0.87121  0.50817  1.0000
  C   C639      1.0  0.09062  0.98399  0.54866  1.0000
  C   C640      1.0  0.02344  0.50159  0.67862  1.0000
  H   H744      1.0  0.99982  0.91365  0.56905  1.0000
  H   H745      1.0  0.03790  0.91785  0.54274  1.0000
  S   S179      1.0  0.04346  0.98526  0.49180  1.0000
  C   C641      1.0  0.01335  0.68602  0.50346  1.0000
  H   H746      1.0  0.99690  0.55370  0.63863  1.0000
  H   H747      1.0  0.11787  0.96266  0.54828  1.0000
  H   H748      1.0  0.00152  0.93122  0.55562  1.0000
  C   C642      1.0  0.99312  0.59033  0.56001  1.0000
  H   H749      1.0  0.00806  0.69785  0.52550  1.0000
  C   C643      1.0  0.09120  0.97348  0.54699  1.0000
  H   H750      1.0  0.99294  0.59244  0.59884  1.0000
  H   H751      1.0  0.99937  0.69232  0.52127  1.0000
  C   C644      1.0  0.01563  0.48801  0.67585  1.0000
  H   H752      1.0  0.01409  0.65876  0.50624  1.0000
  C   C645      1.0  0.11771  0.97349  0.48886  1.0000
  Fe  Fe90      1.0  0.98681  0.72896  0.49947  1.0000
  C   C646      1.0  0.01435  0.50418  0.68690  1.0000
  C   C647      1.0  0.02600  0.69156  0.50988  1.0000
  H   H753      1.0  0.14109  0.94039  0.48925  1.0000
  S   S180      1.0  0.00613  0.88410  0.50752  1.0000
  H   H754      1.0  0.01318  0.53231  0.70347  1.0000
  H   H755      1.0  0.07474  0.96757  0.56280  1.0000
  N   N42       1.0  0.08158  0.97088  0.54541  1.0000
  H   H756      1.0  0.02978  0.53923  0.70021  1.0000
  C   C648      1.0  0.98828  0.55409  0.64128  1.0000
  S   S181      1.0  0.99315  0.93481  0.51976  1.0000
  H   H757      1.0  0.99353  0.49197  0.63684  1.0000
  C   C649      1.0  0.00143  0.85004  0.50918  1.0000
  C   C650      1.0  0.03194  0.96998  0.49408  1.0000
  H   H758      1.0  0.07140  0.97635  0.53366  1.0000
  C   C651      1.0  0.02780  0.89512  0.54830  1.0000
  H   H759      1.0  0.08523  0.97760  0.52802  1.0000
  C   C652      1.0  0.01369  0.50520  0.62221  1.0000
  C   C653      1.0  0.08335  0.95942  0.54427  1.0000
  H   H760      1.0  0.00187  0.58814  0.55814  1.0000
  H   H761      1.0  0.06962  0.98121  0.55565  1.0000
  Fe  Fe91      1.0  0.98696  0.53447  0.59862  1.0000
  H   H762      1.0  0.15116  0.94605  0.49809  1.0000
  N   N43       1.0  0.00714  0.49959  0.63240  1.0000
  C   C654      1.0  0.01294  0.91139  0.54960  1.0000
  C   C655      1.0  0.98726  0.58374  0.56888  1.0000
  C   C656      1.0  0.07841  0.97830  0.53532  1.0000
  H   H763      1.0  0.99190  0.57384  0.60875  1.0000
  C   C657      1.0  0.03540  0.90156  0.54562  1.0000
  H   H764      1.0  0.02561  0.49423  0.71104  1.0000
  H   H765      1.0  0.03051  0.88636  0.54876  1.0000
  H   H766      1.0  0.00126  0.95696  0.48649  1.0000
  H   H767      1.0  0.02081  0.86391  0.50618  1.0000
  H   H768      1.0  0.00864  0.51223  0.61748  1.0000
  C   C658      1.0  0.99609  0.91185  0.56324  1.0000
  S   S182      1.0  0.01349  0.51428  0.69382  1.0000
  H   H769      1.0  0.11622  0.98094  0.55155  1.0000
  H   H770      1.0  0.10271  0.95776  0.54540  1.0000
  C   C659      1.0  0.01431  0.67463  0.50819  1.0000
  C   C660      1.0  0.17988  0.95913  0.52590  1.0000
  S   S183      1.0  0.99304  0.62595  0.52220  1.0000
  C   C661      1.0  0.00672  0.49040  0.68435  1.0000
  C   C662      1.0  0.00798  0.69168  0.52108  1.0000
  H   H771      1.0  0.99176  0.51833  0.62762  1.0000
  N   N44       1.0  0.01479  0.54395  0.71161  1.0000
  H   H772      1.0  0.04515  0.92844  0.49996  1.0000
  C   C663      1.0  0.09954  0.98660  0.55033  1.0000
  C   C664      1.0  0.98794  0.52462  0.64201  1.0000
  C   C665      1.0  0.16720  0.94776  0.49548  1.0000
  C   C666      1.0  0.99346  0.86935  0.50941  1.0000
  H   H773      1.0  0.98969  0.93188  0.55112  1.0000
  H   H774      1.0  0.01874  0.84542  0.50721  1.0000
  C   C667      1.0  0.99350  0.51689  0.63563  1.0000
  C   C668      1.0  0.17645  0.95048  0.48801  1.0000
  C   C669      1.0  0.04467  0.93683  0.49462  1.0000
  C   C670      1.0  0.98811  0.77355  0.50225  1.0000
  H   H775      1.0  0.03728  0.93875  0.49128  1.0000
  H   H776      1.0  0.99834  0.57425  0.54284  1.0000
  H   H777      1.0  0.12167  0.97746  0.50203  1.0000
  S   S184      1.0  0.00087  0.83641  0.51018  1.0000
  C   C671      1.0  0.02696  0.93692  0.52117  1.0000
  C   C672      1.0  0.01845  0.94618  0.52099  1.0000
  C   C673      1.0  0.00828  0.94553  0.52000  1.0000
  C   C674      1.0  0.00655  0.93570  0.51900  1.0000
  C   C675      1.0  0.01523  0.92660  0.51860  1.0000
  C   C676      1.0  0.02534  0.92719  0.51978  1.0000
  H   H778      1.0  0.01958  0.95372  0.52203  1.0000
  H   H779      1.0  0.00164  0.95263  0.52033  1.0000
  H   H780      1.0  0.01405  0.91898  0.51781  1.0000
  H   H781      1.0  0.03186  0.91997  0.51992  1.0000
  C   C677      1.0  0.09524  0.95356  0.51469  1.0000
  C   C678      1.0  0.09882  0.96304  0.51377  1.0000
  C   C679      1.0  0.10763  0.96234  0.51826  1.0000
  C   C680      1.0  0.11301  0.95214  0.52348  1.0000
  C   C681      1.0  0.10916  0.94277  0.52470  1.0000
  C   C682      1.0  0.10039  0.94346  0.52025  1.0000
  H   H782      1.0  0.09507  0.97084  0.50924  1.0000
  H   H783      1.0  0.11036  0.96965  0.51755  1.0000
  H   H784      1.0  0.11322  0.93487  0.52878  1.0000
  H   H785      1.0  0.09784  0.93607  0.52081  1.0000
  C   C683      1.0  0.07243  0.97249  0.55497  1.0000
  C   C684      1.0  0.00119  0.50752  0.63946  1.0000
  C   C685      1.0  0.18394  0.98116  0.53792  1.0000
  H   H786      1.0  0.03049  0.54723  0.70918  1.0000
  S   S185      1.0  0.98779  0.52735  0.68113  1.0000
  C   C686      1.0  0.02406  0.49352  0.67307  1.0000
  H   H787      1.0  0.01807  0.49958  0.61653  1.0000
  H   H788      1.0  0.03259  0.96743  0.50256  1.0000
  H   H789      1.0  0.00054  0.91546  0.53558  1.0000
  H   H790      1.0  0.98871  0.96613  0.48513  1.0000
  S   S186      1.0  0.98998  0.54807  0.60412  1.0000
  C   C687      1.0  0.01134  0.55333  0.70279  1.0000
  H   H791      1.0  0.02109  0.49269  0.63970  1.0000
  S   S187      1.0  0.99046  0.55522  0.66124  1.0000
  S   S188      1.0  0.00234  0.72837  0.48660  1.0000
  C   C688      1.0  0.02092  0.91771  0.54692  1.0000
  C   C689      1.0  0.01409  0.53847  0.73194  1.0000
  H   H792      1.0  0.02992  0.50591  0.67641  1.0000
  C   C690      1.0  0.99931  0.49528  0.62940  1.0000
  C   C691      1.0  0.01119  0.54650  0.72267  1.0000
  C   C692      1.0  0.01283  0.86256  0.50719  1.0000
  C   C693      1.0  0.99574  0.49691  0.59913  1.0000
  H   H793      1.0  0.13613  0.95436  0.49110  1.0000
  C   C694      1.0  0.99192  0.50831  0.59644  1.0000
  H   H794      1.0  0.08560  0.95337  0.55167  1.0000
  H   H795      1.0  0.18503  0.95366  0.54129  1.0000
  H   H796      1.0  0.99073  0.68079  0.49982  1.0000
  C   C695      1.0  0.08369  0.93276  0.49712  1.0000
  S   S189      1.0  0.99630  0.51695  0.60180  1.0000
  H   H797      1.0  0.08980  0.95774  0.53694  1.0000
  H   H798      1.0  0.99395  0.77287  0.49464  1.0000
  H   H799      1.0  0.04398  0.89785  0.54397  1.0000
  C   C696      1.0  0.99856  0.92841  0.54988  1.0000
  C   C697      1.0  0.03625  0.97882  0.48709  1.0000
  H   H800      1.0  0.01892  0.92651  0.54603  1.0000
  C   C698      1.0  0.01673  0.89992  0.55031  1.0000
  H   H801      1.0  0.99440  0.50170  0.62398  1.0000
  S   S190      1.0  0.04648  0.97754  0.54479  1.0000
  H   H802      1.0  0.06697  0.97567  0.48723  1.0000
  C   C699      1.0  0.98984  0.52328  0.65237  1.0000
  C   C700      1.0  0.00286  0.50632  0.65013  1.0000
  H   H803      1.0  0.01972  0.50850  0.62410  1.0000
  C   C701      1.0  0.98715  0.94449  0.49242  1.0000
  C   C702      1.0  0.11018  0.96856  0.54857  1.0000
  N   N45       1.0  0.00117  0.91625  0.55168  1.0000
  H   H804      1.0  0.01149  0.69799  0.48799  1.0000
  H   H805      1.0  0.11572  0.96580  0.49376  1.0000
  H   H806      1.0  0.07592  0.96255  0.48736  1.0000
  H   H807      1.0  0.99650  0.89027  0.48778  1.0000
  H   H808      1.0  0.04322  0.94278  0.49986  1.0000
  C   C703      1.0  0.99615  0.91335  0.54429  1.0000
  H   H809      1.0  0.01116  0.89457  0.55235  1.0000
  H   H810      1.0  0.99615  0.90448  0.54625  1.0000
  H   H811      1.0  0.00131  0.53700  0.71323  1.0000
  H   H812      1.0  0.00215  0.93224  0.54131  1.0000
  C   C704      1.0  0.01466  0.49008  0.63770  1.0000
  H   H813      1.0  0.98698  0.53101  0.72713  1.0000
  H   H814      1.0  0.01093  0.71089  0.50957  1.0000
  H   H815      1.0  0.00234  0.55587  0.70418  1.0000
  H   H816      1.0  0.98795  0.62006  0.48498  1.0000
  H   H817      1.0  0.18167  0.97713  0.54647  1.0000
  C   C705      1.0  0.10928  0.97888  0.55035  1.0000
  H   H818      1.0  0.03000  0.53298  0.71422  1.0000
  H   H819      1.0  0.06522  0.97002  0.55437  1.0000
  H   H820      1.0  0.99106  0.56007  0.55800  1.0000
  C   C706      1.0  0.00485  0.55687  0.72461  1.0000
  H   H821      1.0  0.09073  0.97026  0.48716  1.0000
  C   C707      1.0  0.99724  0.51412  0.65644  1.0000
  H   H822      1.0  0.00187  0.56338  0.71821  1.0000
  H   H823      1.0  0.98662  0.55312  0.62559  1.0000
  H   H824      1.0  0.08179  0.98357  0.48685  1.0000
  H   H825      1.0  0.98643  0.87600  0.51016  1.0000
  C   C708      1.0  0.13901  0.94913  0.48493  1.0000
  H   H826      1.0  0.07595  0.98705  0.53592  1.0000
  Fe  Fe92      1.0  0.98632  0.54540  0.67853  1.0000
  H   H827      1.0  0.07086  0.50227  0.94565  1.0000
  H   H828      1.0  0.15549  0.49413  0.90771  1.0000
  C   C709      1.0  0.10951  0.52689  0.97885  1.0000
  Fe  Fe93      1.0  0.06192  0.56174  0.93076  1.0000
  S   S191      1.0  0.04924  0.57738  0.93002  1.0000
  S   S192      1.0  0.07913  0.56141  0.92153  1.0000
  Fe  Fe94      1.0  0.04601  0.54795  0.94491  1.0000
  S   S193      1.0  0.03209  0.56237  0.94559  1.0000
  S   S194      1.0  0.04326  0.53121  0.95391  1.0000
  Fe  Fe95      1.0  0.03886  0.56758  0.92756  1.0000
  S   S195      1.0  0.02692  0.57496  0.91656  1.0000
  Fe  Fe96      1.0  0.04372  0.57070  0.94800  1.0000
  S   S196      1.0  0.03749  0.58184  0.95988  1.0000
  S   S197      1.0  0.05207  0.55247  0.92665  1.0000
  S   S198      1.0  0.05716  0.55567  0.94901  1.0000
  S   S199      1.0  0.02239  0.51300  0.92675  1.0000
  C   C710      1.0  0.17670  0.58859  0.97226  1.0000
  S   S200      1.0  0.98761  0.54486  0.86709  1.0000
  Fe  Fe97      1.0  0.12729  0.56349  0.94123  1.0000
  S   S201      1.0  0.13316  0.54720  0.93677  1.0000
  S   S202      1.0  0.10937  0.56888  0.94788  1.0000
  Fe  Fe98      1.0  0.15014  0.56743  0.93600  1.0000
  S   S203      1.0  0.15792  0.55150  0.93077  1.0000
  S   S204      1.0  0.15999  0.57836  0.93766  1.0000
  Fe  Fe99      1.0  0.14421  0.55552  0.92233  1.0000
  S   S205      1.0  0.14639  0.55138  0.90608  1.0000
  Fe  Fe100     1.0  0.14632  0.54449  0.94549  1.0000
  S   S206      1.0  0.15245  0.52798  0.95538  1.0000
  S   S207      1.0  0.13732  0.57230  0.92609  1.0000
  S   S208      1.0  0.13949  0.55999  0.95156  1.0000
  Fe  Fe101     1.0  0.12136  0.50179  0.93250  1.0000
  S   S209      1.0  0.11848  0.51572  0.91809  1.0000
  H   H829      1.0  0.09424  0.58526  0.95853  1.0000
  H   H830      1.0  0.10206  0.53247  0.98233  1.0000
  H   H831      1.0  0.99473  0.53307  0.80329  1.0000
  H   H832      1.0  0.04140  0.55798  0.97099  1.0000
  H   H833      1.0  0.17837  0.58390  0.94066  1.0000
  C   C711      1.0  0.02731  0.51315  0.89149  1.0000
  C   C712      1.0  0.06339  0.57617  0.97331  1.0000
  C   C713      1.0  0.09463  0.53877  0.94470  1.0000
  Fe  Fe102     1.0  0.00259  0.53561  0.87301  1.0000
  S   S210      1.0  0.01309  0.54600  0.86037  1.0000
  S   S211      1.0  0.00723  0.51730  0.87688  1.0000
  Fe  Fe103     1.0  0.00926  0.55569  0.87340  1.0000
  S   S212      1.0  0.02471  0.55715  0.87688  1.0000
  Fe  Fe104     1.0  0.99776  0.55627  0.85546  1.0000
  S   S213      1.0  0.99637  0.56258  0.83764  1.0000
  H   H834      1.0  0.00220  0.55261  0.75222  1.0000
  H   H835      1.0  0.04996  0.50943  0.92032  1.0000
  C   C714      1.0  0.99749  0.51716  0.85019  1.0000
  C   C715      1.0  0.00184  0.52020  0.85728  1.0000
  C   C716      1.0  0.00354  0.51295  0.86717  1.0000
  C   C717      1.0  0.00136  0.50252  0.86973  1.0000
  C   C718      1.0  0.99664  0.49966  0.86284  1.0000
  H   H836      1.0  0.98737  0.54317  0.84701  1.0000
  H   H837      1.0  0.00380  0.52818  0.85510  1.0000
  S   S214      1.0  0.98749  0.53251  0.76431  1.0000
  C   C719      1.0  0.17714  0.57152  0.92140  1.0000
  C   C720      1.0  0.08133  0.50501  0.96552  1.0000
  H   H838      1.0  0.02875  0.50782  0.88560  1.0000
  H   H839      1.0  0.00113  0.50711  0.92826  1.0000
  H   H840      1.0  0.98722  0.50699  0.93005  1.0000
  H   H841      1.0  0.08808  0.49849  0.96340  1.0000
  H   H842      1.0  0.17139  0.56904  0.91860  1.0000
  H   H843      1.0  0.04643  0.56144  0.98062  1.0000
  C   C721      1.0  0.06379  0.59122  0.88840  1.0000
  C   C722      1.0  0.05865  0.49193  0.97178  1.0000
  H   H844      1.0  0.16376  0.51147  0.98319  1.0000
  C   C723      1.0  0.98645  0.54614  0.83869  1.0000
  H   H845      1.0  0.05169  0.57170  0.90708  1.0000
  H   H846      1.0  0.07321  0.50503  0.90887  1.0000
  H   H847      1.0  0.08349  0.58941  0.96936  1.0000
  H   H848      1.0  0.12906  0.59090  0.94452  1.0000
  C   C724      1.0  0.13947  0.54088  0.90876  1.0000
  C   C725      1.0  0.13965  0.53281  0.91845  1.0000
  C   C726      1.0  0.13305  0.52522  0.92144  1.0000
  C   C727      1.0  0.12667  0.52530  0.91448  1.0000
  C   C728      1.0  0.12684  0.53307  0.90451  1.0000
  C   C729      1.0  0.13325  0.54087  0.90164  1.0000
  H   H849      1.0  0.14481  0.53249  0.92372  1.0000
  H   H850      1.0  0.13282  0.51946  0.92920  1.0000
  H   H851      1.0  0.03284  0.52422  0.90304  1.0000
  H   H852      1.0  0.99786  0.51620  0.89991  1.0000
  H   H853      1.0  0.99623  0.52273  0.84253  1.0000
  C   C730      1.0  0.03123  0.58783  0.88212  1.0000
  N   N46       1.0  0.00358  0.50362  0.78614  1.0000
  H   H854      1.0  0.06107  0.59911  0.88276  1.0000
  C   C731      1.0  0.11847  0.57970  0.97552  1.0000
  H   H855      1.0  0.14725  0.50497  0.92126  1.0000
  H   H856      1.0  0.05289  0.59465  0.90801  1.0000
  C   C732      1.0  0.17530  0.53064  0.97445  1.0000
  H   H857      1.0  0.01848  0.51683  0.89308  1.0000
  C   C733      1.0  0.17113  0.52170  0.96259  1.0000
  C   C734      1.0  0.16129  0.52929  0.96246  1.0000
  C   C735      1.0  0.15847  0.53765  0.96824  1.0000
  C   C736      1.0  0.16547  0.53829  0.97428  1.0000
  H   H858      1.0  0.15758  0.49737  0.92829  1.0000
  C   C737      1.0  0.03056  0.52884  0.89510  1.0000
  H   H859      1.0  0.15079  0.54346  0.96825  1.0000
  H   H860      1.0  0.00272  0.50098  0.82327  1.0000
  C   C738      1.0  0.02595  0.56841  0.90678  1.0000
  C   C739      1.0  0.03494  0.56142  0.90174  1.0000
  C   C740      1.0  0.03437  0.55779  0.89274  1.0000
  C   C741      1.0  0.02471  0.56076  0.88900  1.0000
  C   C742      1.0  0.01556  0.56722  0.89444  1.0000
  C   C743      1.0  0.01624  0.57119  0.90319  1.0000
  H   H861      1.0  0.04246  0.55929  0.90439  1.0000
  H   H862      1.0  0.04153  0.55295  0.88844  1.0000
  H   H863      1.0  0.00811  0.56962  0.89158  1.0000
  H   H864      1.0  0.00927  0.57662  0.90704  1.0000
  C   C744      1.0  0.03593  0.52675  0.94731  1.0000
  C   C745      1.0  0.03228  0.53360  0.93804  1.0000
  C   C746      1.0  0.02763  0.52951  0.93199  1.0000
  C   C747      1.0  0.02661  0.51859  0.93522  1.0000
  C   C748      1.0  0.02973  0.51193  0.94481  1.0000
  C   C749      1.0  0.03437  0.51601  0.95087  1.0000
  H   H865      1.0  0.03320  0.54200  0.93541  1.0000
  H   H866      1.0  0.02509  0.53475  0.92466  1.0000
  H   H867      1.0  0.02857  0.50362  0.94757  1.0000
  H   H868      1.0  0.03693  0.51077  0.95818  1.0000
  C   C750      1.0  0.08742  0.56404  0.92863  1.0000
  C   C751      1.0  0.09869  0.56178  0.92477  1.0000
  C   C752      1.0  0.10546  0.56330  0.93059  1.0000
  C   C753      1.0  0.10101  0.56716  0.94029  1.0000
  C   C754      1.0  0.08972  0.56961  0.94405  1.0000
  C   C755      1.0  0.08294  0.56803  0.93825  1.0000
  H   H869      1.0  0.10222  0.55866  0.91735  1.0000
  H   H870      1.0  0.11414  0.56147  0.92755  1.0000
  H   H871      1.0  0.08619  0.57263  0.95152  1.0000
  H   H872      1.0  0.07426  0.56991  0.94123  1.0000
  H   H873      1.0  0.06045  0.48988  0.98008  1.0000
  C   C756      1.0  0.04562  0.51731  0.88495  1.0000
  C   C757      1.0  0.99866  0.51750  0.81419  1.0000
  H   H874      1.0  0.16607  0.49601  0.95635  1.0000
  C   C758      1.0  0.04643  0.58272  0.96722  1.0000
  C   C759      1.0  0.05696  0.57622  0.96630  1.0000
  C   C760      1.0  0.99563  0.50287  0.92665  1.0000
  H   H875      1.0  0.09209  0.51378  0.96751  1.0000
  H   H876      1.0  0.01119  0.49870  0.90188  1.0000
  H   H877      1.0  0.06001  0.57100  0.96046  1.0000
  H   H878      1.0  0.08933  0.57195  0.98108  1.0000
  H   H879      1.0  0.03208  0.58024  0.86909  1.0000
  H   H880      1.0  0.01017  0.48860  0.78019  1.0000
  H   H881      1.0  0.99652  0.50172  0.89444  1.0000
  H   H882      1.0  0.01789  0.50985  0.77751  1.0000
  S   S215      1.0  0.11299  0.49896  0.97326  1.0000
  H   H883      1.0  0.99709  0.52534  0.78751  1.0000
  H   H884      1.0  0.03458  0.53548  0.87303  1.0000
  H   H885      1.0  0.16381  0.51432  0.89466  1.0000
  C   C761      1.0  0.06234  0.51395  0.96875  1.0000
  H   H886      1.0  0.08984  0.48986  0.91355  1.0000
  C   C762      1.0  0.06408  0.52058  0.87883  1.0000
  C   C763      1.0  0.09520  0.58942  0.98281  1.0000
  C   C764      1.0  0.11085  0.58397  0.96871  1.0000
  H   H887      1.0  0.06944  0.52627  0.87562  1.0000
  C   C765      1.0  0.08375  0.51377  0.96793  1.0000
  N   N47       1.0  0.06292  0.51784  0.91702  1.0000
  H   H888      1.0  0.04114  0.59015  0.90868  1.0000
  H   H889      1.0  0.12231  0.54144  0.97381  1.0000
  H   H890      1.0  0.06089  0.53495  0.90900  1.0000
  H   H891      1.0  0.07373  0.51881  0.90105  1.0000
  H   H892      1.0  0.17849  0.59482  0.97548  1.0000
  C   C766      1.0  0.06483  0.52262  0.97121  1.0000
  C   C767      1.0  0.08872  0.51449  0.92676  1.0000
  H   H893      1.0  0.01174  0.50572  0.76899  1.0000
  C   C768      1.0  0.17804  0.52226  0.96875  1.0000
  C   C769      1.0  0.18281  0.50551  0.90215  1.0000
  C   C770      1.0  0.09734  0.54046  0.96176  1.0000
  S   S216      1.0  0.99482  0.56728  0.86716  1.0000
  H   H894      1.0  0.13052  0.52837  0.95680  1.0000
  N   N48       1.0  0.05442  0.58639  0.89515  1.0000
  C   C771      1.0  0.17746  0.50370  0.92188  1.0000
  Fe  Fe105     1.0  0.11913  0.49363  0.95718  1.0000
  H   H895      1.0  0.12187  0.53320  0.89911  1.0000
  C   C772      1.0  0.99730  0.52426  0.80404  1.0000
  H   H896      1.0  0.99311  0.50094  0.77745  1.0000
  H   H897      1.0  0.99681  0.56693  0.73648  1.0000
  H   H898      1.0  0.03423  0.53612  0.89201  1.0000
  H   H899      1.0  0.05733  0.50734  0.95271  1.0000
  H   H900      1.0  0.15970  0.52220  0.90509  1.0000
  H   H901      1.0  0.16900  0.49414  0.89973  1.0000
  C   C773      1.0  0.04216  0.55563  0.97969  1.0000
  H   H902      1.0  0.02165  0.53221  0.89694  1.0000
  C   C774      1.0  0.99884  0.51974  0.79501  1.0000
  H   H903      1.0  0.03449  0.59462  0.97545  1.0000
  S   S217      1.0  0.13241  0.49957  0.94367  1.0000
  H   H904      1.0  0.03241  0.49320  0.97297  1.0000
  H   H905      1.0  0.01452  0.50118  0.91331  1.0000
  C   C775      1.0  0.08184  0.51395  0.92057  1.0000
  H   H906      1.0  0.00082  0.51944  0.91103  1.0000
  H   H907      1.0  0.01725  0.49044  0.78932  1.0000
  H   H908      1.0  0.09682  0.59781  0.98032  1.0000
  C   C776      1.0  0.00880  0.49785  0.91096  1.0000
  C   C777      1.0  0.09796  0.57236  0.97746  1.0000
  C   C778      1.0  0.99446  0.50709  0.85319  1.0000
  C   C779      1.0  0.07369  0.52457  0.93809  1.0000
  H   H909      1.0  0.18190  0.53865  0.93849  1.0000
  H   H910      1.0  0.02284  0.56666  0.97535  1.0000
  H   H911      1.0  0.04551  0.49972  0.88933  1.0000
  C   C780      1.0  0.04911  0.58973  0.98150  1.0000
  H   H912      1.0  0.06830  0.59286  0.89363  1.0000
  H   H913      1.0  0.16692  0.57706  0.96717  1.0000
  H   H914      1.0  0.06126  0.49363  0.95048  1.0000
  C   C781      1.0  0.06842  0.50932  0.88074  1.0000
  H   H915      1.0  0.09275  0.59818  0.96208  1.0000
  C   C782      1.0  0.99088  0.49780  0.90109  1.0000
  H   H916      1.0  0.99069  0.52298  0.74578  1.0000
  C   C783      1.0  0.00374  0.50157  0.80621  1.0000
  C   C784      1.0  0.05942  0.58290  0.98096  1.0000
  C   C785      1.0  0.16371  0.49462  0.90798  1.0000
  H   H917      1.0  0.08263  0.54777  0.95585  1.0000
  H   H918      1.0  0.05170  0.57239  0.86681  1.0000
  H   H919      1.0  0.06394  0.56971  0.89676  1.0000
  H   H920      1.0  0.06236  0.51292  0.90270  1.0000
  C   C786      1.0  0.03659  0.58178  0.87411  1.0000
  C   C787      1.0  0.01003  0.50960  0.77609  1.0000
  C   C788      1.0  0.00185  0.55905  0.73513  1.0000
  H   H921      1.0  0.10084  0.56795  0.97063  1.0000
  C   C789      1.0  0.01094  0.54071  0.74243  1.0000
  C   C790      1.0  0.00183  0.50618  0.81528  1.0000
  Fe  Fe106     1.0  0.03061  0.49523  0.92861  1.0000
  H   H922      1.0  0.98746  0.50071  0.79176  1.0000
  H   H923      1.0  0.03290  0.52329  0.87036  1.0000
  C   C791      1.0  0.02641  0.54415  0.97813  1.0000
  C   C792      1.0  0.06673  0.52398  0.93201  1.0000
  H   H924      1.0  0.10992  0.59110  0.95144  1.0000
  H   H925      1.0  0.06981  0.58568  0.88335  1.0000
  S   S218      1.0  0.18418  0.53140  0.98184  1.0000
  H   H926      1.0  0.03208  0.59382  0.89528  1.0000
  C   C793      1.0  0.02377  0.56593  0.98379  1.0000
  H   H927      1.0  0.07051  0.52870  0.94489  1.0000
  N   N49       1.0  0.99739  0.50333  0.91473  1.0000
  H   H928      1.0  0.05023  0.53190  0.92070  1.0000
  H   H929      1.0  0.05826  0.52755  0.93451  1.0000
  C   C794      1.0  0.04796  0.59363  0.90282  1.0000
  C   C795      1.0  0.05593  0.52876  0.91361  1.0000
  H   H930      1.0  0.14178  0.58366  0.95692  1.0000
  C   C796      1.0  0.05597  0.51033  0.92439  1.0000
  H   H931      1.0  0.05131  0.51327  0.93196  1.0000
  C   C797      1.0  0.11499  0.58808  0.95736  1.0000
  C   C798      1.0  0.18158  0.55604  0.95529  1.0000
  H   H932      1.0  0.10920  0.54826  0.97126  1.0000
  C   C799      1.0  0.03071  0.52833  0.87664  1.0000
  H   H933      1.0  0.05070  0.52849  0.90834  1.0000
  H   H934      1.0  0.09008  0.52016  0.94021  1.0000
  C   C800      1.0  0.07550  0.52253  0.97082  1.0000
  H   H935      1.0  0.10722  0.51938  0.97867  1.0000
  H   H936      1.0  0.98712  0.51939  0.91130  1.0000
  C   C801      1.0  0.00231  0.50825  0.79574  1.0000
  H   H937      1.0  0.07712  0.50623  0.87915  1.0000
  C   C802      1.0  0.06155  0.50200  0.88468  1.0000
  H   H938      1.0  0.15173  0.49756  0.97310  1.0000
  C   C803      1.0  0.15362  0.48964  0.97908  1.0000
  H   H939      1.0  0.13074  0.52332  0.97094  1.0000
  H   H940      1.0  0.10258  0.56768  0.98388  1.0000
  C   C804      1.0  0.17418  0.57190  0.96344  1.0000
  H   H941      1.0  0.17335  0.51530  0.95804  1.0000
  C   C805      1.0  0.00488  0.55100  0.74401  1.0000
  H   H942      1.0  0.17177  0.50291  0.92972  1.0000
  H   H943      1.0  0.02184  0.53171  0.87796  1.0000
  C   C806      1.0  0.04259  0.58955  0.97474  1.0000
  C   C807      1.0  0.99035  0.55536  0.83218  1.0000
  C   C808      1.0  0.08467  0.51979  0.93548  1.0000
  H   H944      1.0  0.99454  0.49177  0.86513  1.0000
  H   H945      1.0  0.00295  0.49680  0.87720  1.0000
  H   H946      1.0  0.06332  0.57615  0.90740  1.0000
  C   C809      1.0  0.17449  0.50477  0.91186  1.0000
  C   C810      1.0  0.05286  0.52454  0.88095  1.0000
  H   H947      1.0  0.07140  0.57093  0.97279  1.0000
  H   H948      1.0  0.08560  0.50973  0.91393  1.0000
  S   S219      1.0  0.04075  0.49092  0.91299  1.0000
  H   H949      1.0  0.99705  0.52103  0.82129  1.0000
  H   H950      1.0  0.06190  0.57502  0.87859  1.0000
  C   C811      1.0  0.99020  0.49791  0.91215  1.0000
  H   H951      1.0  0.04458  0.60197  0.89832  1.0000
  C   C812      1.0  0.03688  0.58943  0.88897  1.0000
  C   C813      1.0  0.02302  0.53488  0.97816  1.0000
  H   H952      1.0  0.02255  0.59093  0.88331  1.0000
  C   C814      1.0  0.17363  0.57642  0.93046  1.0000
  C   C815      1.0  0.18110  0.57992  0.93380  1.0000
  C   C816      1.0  0.06835  0.51352  0.90695  1.0000
  C   C817      1.0  0.05339  0.57886  0.87970  1.0000
  H   H953      1.0  0.15064  0.51514  0.90330  1.0000
  H   H954      1.0  0.01294  0.53437  0.74946  1.0000
  C   C818      1.0  0.15928  0.51448  0.90324  1.0000
  H   H955      1.0  0.09730  0.51083  0.92471  1.0000
  H   H956      1.0  0.02905  0.50799  0.89942  1.0000
  C   C819      1.0  0.04765  0.57730  0.87290  1.0000
  H   H957      1.0  0.13308  0.54712  0.89413  1.0000
  N   N50       1.0  0.11498  0.53207  0.96774  1.0000
  C   C820      1.0  0.11683  0.54264  0.96822  1.0000
  H   H958      1.0  0.09407  0.54403  0.96890  1.0000
  H   H959      1.0  0.18034  0.54918  0.95299  1.0000
  C   C821      1.0  0.10808  0.53411  0.95982  1.0000
  C   C822      1.0  0.11179  0.53017  0.94993  1.0000
  C   C823      1.0  0.10514  0.53256  0.94250  1.0000
  C   C824      1.0  0.15548  0.50487  0.92199  1.0000
  C   C825      1.0  0.12602  0.58799  0.95324  1.0000
  H   H960      1.0  0.12053  0.54702  0.95993  1.0000
  C   C826      1.0  0.12572  0.52474  0.96485  1.0000
  H   H961      1.0  0.02244  0.53352  0.97050  1.0000
  H   H962      1.0  0.18533  0.51599  0.96930  1.0000
  N   N51       1.0  0.06763  0.49587  0.96309  1.0000
  C   C827      1.0  0.00912  0.49183  0.78760  1.0000
  H   H963      1.0  0.11987  0.52542  0.94760  1.0000
  H   H964      1.0  0.10825  0.52981  0.93482  1.0000
  C   C828      1.0  0.11988  0.49060  0.98346  1.0000
  C   C829      1.0  0.04819  0.58502  0.88793  1.0000
  S   S220      1.0  0.10748  0.49777  0.94629  1.0000
  C   C830      1.0  0.07058  0.51871  0.92301  1.0000
  C   C831      1.0  0.99572  0.51507  0.90900  1.0000
  H   H965      1.0  0.98847  0.51348  0.78216  1.0000
  C   C832      1.0  0.98938  0.55890  0.82117  1.0000
  S   S221      1.0  0.99934  0.54465  0.88626  1.0000
  N   N52       1.0  0.16342  0.50471  0.91134  1.0000
  H   H966      1.0  0.06091  0.50197  0.92699  1.0000
  C   C833      1.0  0.09071  0.54266  0.95435  1.0000
  C   C834      1.0  0.09218  0.58946  0.96547  1.0000
  C   C835      1.0  0.05853  0.57552  0.90185  1.0000
  H   H967      1.0  0.18272  0.54523  0.92432  1.0000
  H   H968      1.0  0.08963  0.54088  0.93875  1.0000
  C   C836      1.0  0.05032  0.50588  0.88660  1.0000
  H   H969      1.0  0.16462  0.56201  0.96123  1.0000
  H   H970      1.0  0.07733  0.52928  0.97281  1.0000
  H   H971      1.0  0.16965  0.49991  0.97189  1.0000
  H   H972      1.0  0.12493  0.51655  0.96452  1.0000
  C   C837      1.0  0.17272  0.56319  0.96012  1.0000
  C   C838      1.0  0.99270  0.50475  0.78428  1.0000
  N   N53       1.0  0.03377  0.52173  0.88704  1.0000
  C   C839      1.0  0.07049  0.50484  0.96586  1.0000
  H   H973      1.0  0.04984  0.53335  0.87927  1.0000
  N   N54       1.0  0.09925  0.58386  0.97343  1.0000
  C   C840      1.0  0.13322  0.58386  0.96022  1.0000
  H   H974      1.0  0.15489  0.51218  0.92515  1.0000
  H   H975      1.0  0.99739  0.49426  0.93143  1.0000
  H   H976      1.0  0.02835  0.54973  0.97030  1.0000
  H   H977      1.0  0.08349  0.48829  0.95485  1.0000
  H   H978      1.0  0.02654  0.57341  0.98341  1.0000
  H   H979      1.0  0.05394  0.51452  0.96905  1.0000
  H   H980      1.0  0.00573  0.51818  0.77328  1.0000
  S   S222      1.0  0.98716  0.50415  0.84543  1.0000
  C   C841      1.0  0.17093  0.49255  0.97860  1.0000
  H   H981      1.0  0.18122  0.50608  0.89427  1.0000
  H   H982      1.0  0.17639  0.49358  0.98319  1.0000
  H   H983      1.0  0.18332  0.60531  0.88840  1.0000
  H   H984      1.0  0.17271  0.58309  0.97961  1.0000
  C   C842      1.0  0.18470  0.57365  0.96204  1.0000
  H   H985      1.0  0.13509  0.57626  0.97676  1.0000
  C   C843      1.0  0.12946  0.57968  0.97134  1.0000
  H   H986      1.0  0.00622  0.49274  0.80767  1.0000
  H   H987      1.0  0.16324  0.54472  0.97879  1.0000
  H   H988      1.0  0.99244  0.56599  0.81605  1.0000
  H   H989      1.0  0.17079  0.59309  0.96699  1.0000
  C   C844      1.0  0.98695  0.53158  0.74358  1.0000
  H   H990      1.0  0.05840  0.52946  0.97342  1.0000
  C   C845      1.0  0.16882  0.48972  0.95164  1.0000
  H   H991      1.0  0.06493  0.49322  0.88623  1.0000
  H   H992      1.0  0.05083  0.49805  0.97200  1.0000
  H   H993      1.0  0.01018  0.48888  0.91463  1.0000
  C   C846      1.0  0.06409  0.49997  0.95254  1.0000
  H   H994      1.0  0.15267  0.48935  0.95132  1.0000
  H   H995      1.0  0.04759  0.54737  0.98092  1.0000
  H   H996      1.0  0.11599  0.57624  0.98415  1.0000
  H   H997      1.0  0.14575  0.48782  0.98411  1.0000
  C   C847      1.0  0.26472  0.47842  0.02018  1.0000
  C   C848      1.0  0.38243  0.18273  0.00894  1.0000
  C   C849      1.0  0.36373  0.10293  0.02300  1.0000
  C   C850      1.0  0.34421  0.43275  0.99164  1.0000
  H   H998      1.0  0.36262  0.44004  0.98844  1.0000
  C   C851      1.0  0.23452  0.45775  0.00176  1.0000
  C   C852      1.0  0.22925  0.46150  0.99307  1.0000
  H   H999      1.0  0.25359  0.48596  0.03302  1.0000
  C   C853      1.0  0.38412  0.01699  0.07703  1.0000
  H   H1000     1.0  0.37937  0.25631  0.00511  1.0000
  S   S223      1.0  0.37951  0.05269  0.11756  1.0000
  H   H1001     1.0  0.29213  0.47620  0.01385  1.0000
  C   C854      1.0  0.18689  0.45526  0.04502  1.0000
  H   H1002     1.0  0.27712  0.45589  0.99412  1.0000
  Fe  Fe107     1.0  0.32469  0.47541  0.00249  1.0000
  C   C855      1.0  0.37777  0.27345  0.00466  1.0000
  C   C856      1.0  0.36209  0.07310  0.10123  1.0000
  H   H1003     1.0  0.27785  0.47143  0.00817  1.0000
  H   H1004     1.0  0.38301  0.09927  0.11216  1.0000
  H   H1005     1.0  0.34431  0.43915  0.01570  1.0000
  N   N55       1.0  0.38077  0.00094  0.21444  1.0000
  S   S224      1.0  0.38496  0.32165  0.99300  1.0000
  H   H1006     1.0  0.37289  0.00753  0.22894  1.0000
  H   H1007     1.0  0.36498  0.01602  0.14003  1.0000
  N   N56       1.0  0.37071  0.99851  0.11110  1.0000
  C   C857      1.0  0.37524  0.02550  0.11302  1.0000
  S   S225      1.0  0.22437  0.47942  0.01553  1.0000
  C   C858      1.0  0.38009  0.98934  0.21938  1.0000
  Fe  Fe108     1.0  0.21464  0.47602  0.03278  1.0000
  H   H1008     1.0  0.37836  0.43758  0.04429  1.0000
  S   S226      1.0  0.38086  0.99722  0.07642  1.0000
  Fe  Fe109     1.0  0.33198  0.47636  0.02192  1.0000
  S   S227      1.0  0.31939  0.46860  0.02048  1.0000
  S   S228      1.0  0.34360  0.46753  0.03305  1.0000
  C   C859      1.0  0.27010  0.48639  0.03210  1.0000
  H   H1009     1.0  0.36913  0.11144  0.00641  1.0000
  H   H1010     1.0  0.36300  0.42110  0.99836  1.0000
  C   C860      1.0  0.19239  0.46625  0.01458  1.0000
  H   H1011     1.0  0.22079  0.46139  0.99448  1.0000
  N   N57       1.0  0.26299  0.46226  0.98704  1.0000
  Fe  Fe110     1.0  0.23703  0.48167  0.02273  1.0000
  C   C861      1.0  0.37384  0.16839  0.00888  1.0000
  C   C862      1.0  0.34057  0.43820  0.00943  1.0000
  C   C863      1.0  0.36934  0.00191  0.18024  1.0000
  H   H1012     1.0  0.35717  0.16999  0.01753  1.0000
  H   H1013     1.0  0.24891  0.45531  0.00713  1.0000
  C   C864      1.0  0.38239  0.10018  0.01299  1.0000
  C   C865      1.0  0.37871  0.28099  0.01006  1.0000
  H   H1014     1.0  0.35883  0.35460  0.00096  1.0000
  H   H1015     1.0  0.36783  0.46184  0.03559  1.0000
  C   C866      1.0  0.37465  0.01824  0.18042  1.0000
  C   C867      1.0  0.28376  0.47826  0.01809  1.0000
  C   C868      1.0  0.36746  0.00747  0.12720  1.0000
  C   C869      1.0  0.37151  0.10540  0.01347  1.0000
  H   H1016     1.0  0.36877  0.43785  0.01599  1.0000
  H   H1017     1.0  0.19638  0.45766  0.01536  1.0000
  C   C870      1.0  0.38055  0.00719  0.22250  1.0000
  C   C871      1.0  0.37332  0.08981  0.12553  1.0000
  H   H1018     1.0  0.23007  0.45483  0.01001  1.0000
  H   H1019     1.0  0.34571  0.09785  0.10425  1.0000
  H   H1020     1.0  0.37788  0.20365  0.99237  1.0000
  S   S229      1.0  0.38248  0.40394  0.01199  1.0000
  H   H1021     1.0  0.35912  0.42481  0.01131  1.0000
  H   H1022     1.0  0.18879  0.46335  0.06347  1.0000
  H   H1023     1.0  0.35813  0.33565  0.00169  1.0000
  H   H1024     1.0  0.37874  0.38414  0.98744  1.0000
  C   C872      1.0  0.25146  0.46180  0.98926  1.0000
  C   C873      1.0  0.35585  0.42397  0.00463  1.0000
  C   C874      1.0  0.38315  0.26597  0.02518  1.0000
  H   H1025     1.0  0.33543  0.44639  0.00672  1.0000
  C   C875      1.0  0.19165  0.46437  0.04129  1.0000
  H   H1026     1.0  0.38561  0.99973  0.09881  1.0000
  N   N58       1.0  0.38317  0.45312  0.03988  1.0000
  H   H1027     1.0  0.35555  0.07662  0.12340  1.0000
  H   H1028     1.0  0.36306  0.99775  0.18090  1.0000
  H   H1029     1.0  0.37680  0.09081  0.13174  1.0000
  S   S230      1.0  0.37081  0.03178  0.18191  1.0000
  H   H1030     1.0  0.26759  0.44713  0.99846  1.0000
  S   S231      1.0  0.32861  0.46472  0.99049  1.0000
  H   H1031     1.0  0.30579  0.47461  0.99680  1.0000
  C   C876      1.0  0.19086  0.46404  0.07095  1.0000
  H   H1032     1.0  0.36441  0.00076  0.13316  1.0000
  C   C877      1.0  0.36452  0.43295  0.03364  1.0000
  C   C878      1.0  0.35799  0.43604  0.04328  1.0000
  C   C879      1.0  0.35116  0.44646  0.04288  1.0000
  C   C880      1.0  0.35043  0.45382  0.03282  1.0000
  C   C881      1.0  0.35650  0.45056  0.02304  1.0000
  C   C882      1.0  0.36364  0.44013  0.02346  1.0000
  H   H1033     1.0  0.35857  0.43053  0.05117  1.0000
  H   H1034     1.0  0.34657  0.44893  0.05046  1.0000
  H   H1035     1.0  0.35617  0.45633  0.01525  1.0000
  H   H1036     1.0  0.18856  0.48198  0.03797  1.0000
  H   H1037     1.0  0.38255  0.02065  0.15676  1.0000
  H   H1038     1.0  0.20670  0.48265  0.05937  1.0000
  C   C883      1.0  0.38184  0.10046  0.05030  1.0000
  H   H1039     1.0  0.37550  0.02000  0.07766  1.0000
  H   H1040     1.0  0.37269  0.08780  0.08685  1.0000
  C   C884      1.0  0.37629  0.45820  0.03171  1.0000
  H   H1041     1.0  0.37010  0.44716  0.05234  1.0000
  C   C885      1.0  0.36031  0.34109  0.99379  1.0000
  H   H1042     1.0  0.19951  0.48235  0.07873  1.0000
  C   C886      1.0  0.38583  0.09233  0.02210  1.0000
  H   H1043     1.0  0.25845  0.47761  0.99205  1.0000
  Fe  Fe111     1.0  0.38293  0.21098  0.01385  1.0000
  H   H1044     1.0  0.35554  0.00694  0.10649  1.0000
  H   H1045     1.0  0.37571  0.09684  0.09806  1.0000
  H   H1046     1.0  0.38107  0.01586  0.21852  1.0000
  H   H1047     1.0  0.37959  0.46482  0.02522  1.0000
  H   H1048     1.0  0.36072  0.09331  0.03951  1.0000
  H   H1049     1.0  0.20102  0.47642  0.05230  1.0000
  C   C887      1.0  0.36561  0.08346  0.12858  1.0000
  H   H1050     1.0  0.36201  0.09977  0.08878  1.0000
  C   C888      1.0  0.36775  0.01623  0.13130  1.0000
  H   H1051     1.0  0.35530  0.10704  0.02336  1.0000
  H   H1052     1.0  0.38383  0.11848  0.98523  1.0000
  N   N59       1.0  0.19354  0.47482  0.06940  1.0000
  H   H1053     1.0  0.35907  0.07149  0.09477  1.0000
  C   C889      1.0  0.36679  0.09519  0.03207  1.0000
  H   H1054     1.0  0.37397  0.46489  0.04979  1.0000
  H   H1055     1.0  0.36322  0.99619  0.09934  1.0000
  H   H1056     1.0  0.36366  0.00635  0.21516  1.0000
  S   S232      1.0  0.33812  0.48201  0.00384  1.0000
  H   H1057     1.0  0.38200  0.28300  0.02459  1.0000
  C   C890      1.0  0.27565  0.47560  0.01487  1.0000
  S   S233      1.0  0.37986  0.08129  0.06565  1.0000
  H   H1058     1.0  0.35818  0.01716  0.18242  1.0000
  H   H1059     1.0  0.37828  0.03251  0.10754  1.0000
  C   C891      1.0  0.37255  0.09303  0.10645  1.0000
  C   C892      1.0  0.36381  0.09073  0.08963  1.0000
  C   C893      1.0  0.38312  0.05806  0.12668  1.0000
  C   C894      1.0  0.26833  0.45582  0.99624  1.0000
  H   H1060     1.0  0.34393  0.08834  0.09750  1.0000
  C   C895      1.0  0.34781  0.08906  0.10378  1.0000
  H   H1061     1.0  0.35844  0.06823  0.10924  1.0000
  S   S234      1.0  0.38173  0.34487  0.00684  1.0000
  H   H1062     1.0  0.37094  0.06963  0.09979  1.0000
  H   H1063     1.0  0.37752  0.15874  0.03486  1.0000
  H   H1064     1.0  0.35648  0.18647  0.02383  1.0000
  H   H1065     1.0  0.38256  0.05863  0.23042  1.0000
  H   H1066     1.0  0.32698  0.43869  0.99865  1.0000
  H   H1067     1.0  0.37168  0.01542  0.20529  1.0000
  S   S235      1.0  0.37379  0.15683  0.00437  1.0000
  H   H1068     1.0  0.26492  0.45935  0.00367  1.0000
  H   H1069     1.0  0.35062  0.45058  0.99081  1.0000
  H   H1070     1.0  0.35126  0.41732  0.00808  1.0000
  C   C896      1.0  0.36631  0.98944  0.11940  1.0000
  C   C897      1.0  0.37157  0.02525  0.12421  1.0000
  C   C898      1.0  0.36132  0.08184  0.12062  1.0000
  H   H1071     1.0  0.34391  0.08440  0.11180  1.0000
  H   H1072     1.0  0.19782  0.45707  0.07248  1.0000
  C   C899      1.0  0.36457  0.08666  0.10930  1.0000
  H   H1073     1.0  0.35914  0.20062  0.98612  1.0000
  N   N60       1.0  0.35972  0.08497  0.10107  1.0000
  S   S236      1.0  0.20594  0.46206  0.03816  1.0000
  H   H1074     1.0  0.36013  0.08923  0.08361  1.0000
  H   H1075     1.0  0.37172  0.03206  0.12738  1.0000
  S   S237      1.0  0.37183  0.19912  0.02076  1.0000
  S   S238      1.0  0.37702  0.22901  0.00710  1.0000
  C   C900      1.0  0.36388  0.18282  0.01871  1.0000
  C   C901      1.0  0.37288  0.18757  0.01557  1.0000
  H   H1076     1.0  0.37367  0.10101  0.04977  1.0000
  H   H1077     1.0  0.37943  0.08412  0.03907  1.0000
  N   N61       1.0  0.34886  0.43442  0.00004  1.0000
  H   H1078     1.0  0.38376  0.11509  0.03763  1.0000
  S   S239      1.0  0.37437  0.42056  0.03502  1.0000
  H   H1079     1.0  0.35873  0.44473  0.00093  1.0000
  C   C902      1.0  0.38016  0.99632  0.17864  1.0000
  S   S240      1.0  0.37556  0.29514  0.00433  1.0000
  C   C903      1.0  0.38089  0.06012  0.14527  1.0000
  H   H1080     1.0  0.38263  0.39910  0.99277  1.0000
  H   H1081     1.0  0.20298  0.46773  0.08181  1.0000
  H   H1082     1.0  0.19197  0.44708  0.04553  1.0000
  C   C904      1.0  0.36428  0.17344  0.01520  1.0000
  S   S241      1.0  0.38560  0.24428  0.02575  1.0000
  H   H1083     1.0  0.33525  0.43228  0.01371  1.0000
  S   S242      1.0  0.37872  0.05766  0.18131  1.0000
  H   H1084     1.0  0.20980  0.46810  0.06118  1.0000
  C   C905      1.0  0.36070  0.35177  0.99340  1.0000
  H   H1085     1.0  0.36728  0.00882  0.09565  1.0000
  C   C906      1.0  0.28100  0.48376  0.02666  1.0000
  C   C907      1.0  0.33289  0.43524  0.99217  1.0000
  C   C908      1.0  0.36659  0.01287  0.18110  1.0000
  C   C909      1.0  0.37683  0.09453  0.11449  1.0000
  C   C910      1.0  0.20317  0.47555  0.06021  1.0000
  H   H1086     1.0  0.37790  0.01739  0.10008  1.0000
  H   H1087     1.0  0.20723  0.47191  0.00827  1.0000
  C   C911      1.0  0.26198  0.48379  0.02884  1.0000
  H   H1088     1.0  0.37692  0.05849  0.15389  1.0000
  C   C912      1.0  0.36387  0.00283  0.10284  1.0000
  H   H1089     1.0  0.37610  0.36781  0.00658  1.0000
  H   H1090     1.0  0.38349  0.44016  0.05442  1.0000
  C   C913      1.0  0.38551  0.01271  0.17871  1.0000
  C   C914      1.0  0.37103  0.00752  0.11579  1.0000
  C   C915      1.0  0.24543  0.45798  0.99997  1.0000
  H   H1091     1.0  0.38616  0.03360  0.15292  1.0000
  C   C916      1.0  0.37152  0.00663  0.20911  1.0000
  S   S243      1.0  0.22802  0.47655  0.04011  1.0000
  Fe  Fe112     1.0  0.38413  0.04008  0.18007  1.0000
  C   C917      1.0  0.37859  0.44414  0.04808  1.0000
  H   H1092     1.0  0.29067  0.47771  0.98767  1.0000
  S   S244      1.0  0.25472  0.47544  0.01554  1.0000
  H   H1093     1.0  0.36316  0.07954  0.13716  1.0000
  C   C918      1.0  0.38403  0.36456  0.00846  1.0000
  H   H1094     1.0  0.38327  0.17556  0.03287  1.0000
  C   C919      1.0  0.37499  0.01680  0.10884  1.0000
  H   H1095     1.0  0.37148  0.00288  0.20242  1.0000
  C   C920      1.0  0.37766  0.08992  0.03168  1.0000
  H   H1096     1.0  0.18931  0.47480  0.08663  1.0000
  H   H1097     1.0  0.37955  0.03012  0.14445  1.0000
  C   C921      1.0  0.38298  0.17299  0.00584  1.0000
  C   C922      1.0  0.37815  0.05585  0.13787  1.0000
  C   C923      1.0  0.38573  0.02678  0.14956  1.0000
  C   C924      1.0  0.36652  0.19394  0.98518  1.0000
  C   C925      1.0  0.19849  0.47427  0.01062  1.0000
  H   H1098     1.0  0.37209  0.05095  0.14083  1.0000
  S   S245      1.0  0.38468  0.05251  0.08669  1.0000
  H   H1099     1.0  0.37549  0.27641  0.99681  1.0000
  C   C926      1.0  0.19341  0.48532  0.01006  1.0000
  C   C927      1.0  0.38250  0.46165  0.04576  1.0000
  C   C928      1.0  0.35551  0.44278  0.99483  1.0000
  H   H1100     1.0  0.37562  0.45217  0.02751  1.0000
  C   C929      1.0  0.19645  0.47494  0.07959  1.0000
  C   C930      1.0  0.30707  0.47114  0.98978  1.0000
  H   H1101     1.0  0.36753  0.18936  0.99359  1.0000
  H   H1102     1.0  0.36827  0.26165  0.99084  1.0000
  C   C931      1.0  0.38151  0.27721  0.02028  1.0000
  H   H1103     1.0  0.38505  0.26313  0.03323  1.0000
  H   H1104     1.0  0.35778  0.99231  0.12360  1.0000
  C   C932      1.0  0.37988  0.26213  0.00937  1.0000
  Fe  Fe113     1.0  0.30822  0.48519  0.02054  1.0000
  C   C933      1.0  0.38178  0.99368  0.10557  1.0000
  C   C934      1.0  0.38556  0.15825  0.03584  1.0000
  C   C935      1.0  0.38253  0.25838  0.01968  1.0000
  C   C936      1.0  0.31739  0.46540  0.98549  1.0000
  H   H1105     1.0  0.36002  0.25638  0.98566  1.0000
  H   H1106     1.0  0.38555  0.46882  0.04001  1.0000
  H   H1107     1.0  0.37407  0.24966  0.98540  1.0000
  H   H1108     1.0  0.38594  0.38029  0.00913  1.0000
  Fe  Fe114     1.0  0.38625  0.41475  0.02051  1.0000
  C   C937      1.0  0.26365  0.47385  0.98508  1.0000
  H   H1109     1.0  0.36271  0.32883  0.98508  1.0000
  C   C938      1.0  0.38044  0.40067  0.98503  1.0000
  C   C939      1.0  0.28113  0.01536  0.41200  1.0000
  H   H1110     1.0  0.34608  0.09333  0.41601  1.0000
  S   S246      1.0  0.37039  0.07702  0.37708  1.0000
  C   C940      1.0  0.27542  0.99890  0.46160  1.0000
  S   S247      1.0  0.31974  0.01191  0.42625  1.0000
  H   H1111     1.0  0.36194  0.02096  0.36836  1.0000
  S   S248      1.0  0.22181  0.00078  0.46592  1.0000
  H   H1112     1.0  0.31055  0.05405  0.47197  1.0000
  C   C941      1.0  0.31591  0.01877  0.43701  1.0000
  H   H1113     1.0  0.25569  0.10423  0.46522  1.0000
  Fe  Fe115     1.0  0.32629  0.06194  0.42890  1.0000
  S   S249      1.0  0.30990  0.05853  0.43139  1.0000
  S   S250      1.0  0.34160  0.05259  0.41963  1.0000
  Fe  Fe116     1.0  0.31816  0.07672  0.44530  1.0000
  S   S251      1.0  0.30121  0.07413  0.44970  1.0000
  S   S252      1.0  0.32281  0.08959  0.45034  1.0000
  Fe  Fe117     1.0  0.30923  0.05656  0.44930  1.0000
  S   S253      1.0  0.30396  0.04159  0.46077  1.0000
  Fe  Fe118     1.0  0.30328  0.07627  0.43154  1.0000
  S   S254      1.0  0.29101  0.08804  0.42240  1.0000
  S   S255      1.0  0.32600  0.05891  0.44686  1.0000
  S   S256      1.0  0.31980  0.08003  0.42711  1.0000
  Fe  Fe119     1.0  0.24571  0.04588  0.44719  1.0000
  S   S257      1.0  0.23267  0.06074  0.45022  1.0000
  S   S258      1.0  0.20635  0.99742  0.44449  1.0000
  Fe  Fe120     1.0  0.24046  0.04651  0.42568  1.0000
  S   S259      1.0  0.22745  0.06181  0.42641  1.0000
  S   S260      1.0  0.24632  0.03838  0.41133  1.0000
  Fe  Fe121     1.0  0.23903  0.06747  0.43236  1.0000
  S   S261      1.0  0.24318  0.08402  0.42647  1.0000
  Fe  Fe122     1.0  0.22238  0.05359  0.44414  1.0000
  S   S262      1.0  0.20547  0.05141  0.45295  1.0000
  S   S263      1.0  0.25246  0.05300  0.42973  1.0000
  S   S264      1.0  0.23481  0.03791  0.44306  1.0000
  C   C942      1.0  0.19572  0.05578  0.44485  1.0000
  H   H1114     1.0  0.34634  0.08500  0.44628  1.0000
  H   H1115     1.0  0.32627  0.10442  0.46053  1.0000
  C   C943      1.0  0.24125  0.02367  0.40327  1.0000
  C   C944      1.0  0.23891  0.02885  0.41202  1.0000
  C   C945      1.0  0.23070  0.02636  0.42121  1.0000
  H   H1116     1.0  0.26922  0.01444  0.45238  1.0000
  H   H1117     1.0  0.24763  0.02555  0.39616  1.0000
  H   H1118     1.0  0.22872  0.03043  0.42791  1.0000
  C   C946      1.0  0.27807  0.08604  0.42339  1.0000
  C   C947      1.0  0.27085  0.09478  0.41838  1.0000
  C   C948      1.0  0.26023  0.09399  0.41940  1.0000
  C   C949      1.0  0.25673  0.08439  0.42533  1.0000
  C   C950      1.0  0.26397  0.07553  0.43032  1.0000
  C   C951      1.0  0.27466  0.07635  0.42935  1.0000
  H   H1119     1.0  0.27343  0.10229  0.41375  1.0000
  H   H1120     1.0  0.25471  0.10086  0.41553  1.0000
  H   H1121     1.0  0.26128  0.06817  0.43514  1.0000
  H   H1122     1.0  0.28016  0.06961  0.43338  1.0000
  H   H1123     1.0  0.18900  0.05860  0.41185  1.0000
  C   C952      1.0  0.30738  0.01673  0.44607  1.0000
  C   C953      1.0  0.30375  0.02349  0.45374  1.0000
  C   C954      1.0  0.30892  0.03197  0.45246  1.0000
  C   C955      1.0  0.31786  0.03339  0.44385  1.0000
  C   C956      1.0  0.32107  0.02711  0.43596  1.0000
  H   H1124     1.0  0.30323  0.01039  0.44683  1.0000
  H   H1125     1.0  0.29668  0.02251  0.46030  1.0000
  H   H1126     1.0  0.32219  0.03958  0.44303  1.0000
  C   C957      1.0  0.23518  0.01626  0.40356  1.0000
  C   C958      1.0  0.32616  0.02271  0.47137  1.0000
  H   H1127     1.0  0.19783  0.04577  0.42669  1.0000
  C   C959      1.0  0.33038  0.07663  0.46870  1.0000
  H   H1128     1.0  0.23693  0.01235  0.39674  1.0000
  C   C960      1.0  0.22417  0.04238  0.39091  1.0000
  S   S265      1.0  0.21977  0.00408  0.41351  1.0000
  C   C961      1.0  0.36228  0.07020  0.38878  1.0000
  C   C962      1.0  0.35154  0.07538  0.39267  1.0000
  C   C963      1.0  0.34507  0.07007  0.40214  1.0000
  C   C964      1.0  0.34934  0.05955  0.40771  1.0000
  C   C965      1.0  0.36004  0.05437  0.40379  1.0000
  C   C966      1.0  0.36650  0.05969  0.39439  1.0000
  H   H1129     1.0  0.34822  0.08349  0.38833  1.0000
  H   H1130     1.0  0.33677  0.07407  0.40503  1.0000
  H   H1131     1.0  0.36338  0.04623  0.40807  1.0000
  H   H1132     1.0  0.37480  0.05568  0.39153  1.0000
  H   H1133     1.0  0.37149  0.00146  0.32084  1.0000
  C   C967      1.0  0.29404  0.09740  0.46800  1.0000
  H   H1134     1.0  0.20381  0.03188  0.42577  1.0000
  H   H1135     1.0  0.28725  0.04730  0.43542  1.0000
  C   C968      1.0  0.28545  0.03279  0.41809  1.0000
  H   H1136     1.0  0.36554  0.02348  0.24937  1.0000
  C   C969      1.0  0.25647  0.06440  0.46732  1.0000
  H   H1137     1.0  0.25491  0.02461  0.43017  1.0000
  H   H1138     1.0  0.20638  0.05749  0.41376  1.0000
  H   H1139     1.0  0.30262  0.04801  0.41837  1.0000
  C   C970      1.0  0.25598  0.05741  0.46109  1.0000
  C   C971      1.0  0.33940  0.01379  0.45764  1.0000
  H   H1140     1.0  0.28489  0.05412  0.40653  1.0000
  H   H1141     1.0  0.24297  0.01392  0.45325  1.0000
  H   H1142     1.0  0.32986  0.06958  0.46618  1.0000
  C   C972      1.0  0.28302  0.05290  0.41564  1.0000
  H   H1143     1.0  0.24623  0.00945  0.47168  1.0000
  H   H1144     1.0  0.38544  0.06827  0.44277  1.0000
  C   C973      1.0  0.37967  0.99987  0.31537  1.0000
  N   N62       1.0  0.19721  0.04169  0.41186  1.0000
  S   S266      1.0  0.38013  0.00234  0.25104  1.0000
  H   H1145     1.0  0.32695  0.00137  0.47547  1.0000
  C   C974      1.0  0.18827  0.05125  0.40958  1.0000
  C   C975      1.0  0.20765  0.04455  0.40545  1.0000
  H   H1146     1.0  0.20060  0.03519  0.48101  1.0000
  C   C976      1.0  0.23189  0.02123  0.47712  1.0000
  H   H1147     1.0  0.26819  0.00088  0.42844  1.0000
  H   H1148     1.0  0.27064  0.08864  0.47652  1.0000
  H   H1149     1.0  0.36250  0.00703  0.37576  1.0000
  C   C977      1.0  0.37643  0.03511  0.32171  1.0000
  H   H1150     1.0  0.32369  0.02354  0.48009  1.0000
  C   C978      1.0  0.36999  0.02251  0.25554  1.0000
  C   C979      1.0  0.34812  0.03367  0.39920  1.0000
  C   C980      1.0  0.33396  0.00358  0.47683  1.0000
  H   H1151     1.0  0.33540  0.99808  0.45900  1.0000
  C   C981      1.0  0.19626  0.06470  0.43586  1.0000
  H   H1152     1.0  0.20152  0.02471  0.41086  1.0000
  H   H1153     1.0  0.37999  0.00752  0.39354  1.0000
  H   H1154     1.0  0.21796  0.04874  0.47085  1.0000
  C   C982      1.0  0.22748  0.05054  0.39334  1.0000
  C   C983      1.0  0.20932  0.03097  0.47957  1.0000
  C   C984      1.0  0.22097  0.05586  0.40160  1.0000
  C   C985      1.0  0.33235  0.09486  0.47480  1.0000
  N   N63       1.0  0.35562  0.08014  0.42601  1.0000
  C   C986      1.0  0.34779  0.07293  0.42950  1.0000
  C   C987      1.0  0.34964  0.09171  0.42329  1.0000
  C   C988      1.0  0.36324  0.07757  0.41573  1.0000
  C   C989      1.0  0.36100  0.07850  0.43511  1.0000
  C   C990      1.0  0.36717  0.01360  0.37256  1.0000
  C   C991      1.0  0.36831  0.03114  0.26076  1.0000
  C   C992      1.0  0.34427  0.01575  0.40309  1.0000
  H   H1155     1.0  0.33899  0.01010  0.40747  1.0000
  H   H1156     1.0  0.34342  0.02996  0.45189  1.0000
  H   H1157     1.0  0.34138  0.07483  0.43680  1.0000
  H   H1158     1.0  0.34358  0.07388  0.42288  1.0000
  H   H1159     1.0  0.35187  0.06412  0.43160  1.0000
  H   H1160     1.0  0.35507  0.09749  0.42144  1.0000
  H   H1161     1.0  0.34267  0.09392  0.43005  1.0000
  C   C993      1.0  0.37434  0.03007  0.26845  1.0000
  H   H1162     1.0  0.36726  0.06870  0.41680  1.0000
  H   H1163     1.0  0.35901  0.07935  0.40893  1.0000
  H   H1164     1.0  0.36952  0.08257  0.41274  1.0000
  H   H1165     1.0  0.26920  0.03329  0.47461  1.0000
  H   H1166     1.0  0.37591  0.00975  0.29572  1.0000
  N   N64       1.0  0.38280  0.01030  0.30880  1.0000
  C   C994      1.0  0.24527  0.00972  0.44631  1.0000
  H   H1167     1.0  0.30052  0.00822  0.47616  1.0000
  H   H1168     1.0  0.23523  0.05255  0.38900  1.0000
  C   C995      1.0  0.26574  0.04198  0.47248  1.0000
  C   C996      1.0  0.28533  0.09315  0.47499  1.0000
  C   C997      1.0  0.19504  0.03220  0.40926  1.0000
  H   H1169     1.0  0.38180  0.03591  0.33558  1.0000
  H   H1170     1.0  0.27254  0.04275  0.40951  1.0000
  H   H1171     1.0  0.22939  0.03811  0.38462  1.0000
  C   C998      1.0  0.29081  0.02170  0.42143  1.0000
  H   H1172     1.0  0.18931  0.03661  0.42887  1.0000
  C   C999      1.0  0.30021  0.04097  0.41717  1.0000
  C   C1000     1.0  0.26921  0.00582  0.45418  1.0000
  C   C1001     1.0  0.25761  0.09639  0.46249  1.0000
  H   H1173     1.0  0.32712  0.03091  0.46614  1.0000
  H   H1174     1.0  0.30304  0.04074  0.40830  1.0000
  S   S267      1.0  0.25838  0.03718  0.45702  1.0000
  C   C1002     1.0  0.32845  0.09626  0.46545  1.0000
  H   H1175     1.0  0.28576  0.05943  0.41745  1.0000
  H   H1176     1.0  0.27633  0.04123  0.43609  1.0000
  C   C1003     1.0  0.28874  0.01317  0.41832  1.0000
  C   C1004     1.0  0.37557  0.01540  0.30092  1.0000
  H   H1177     1.0  0.29676  0.01955  0.42637  1.0000
  H   H1178     1.0  0.27966  0.00870  0.40953  1.0000
  H   H1179     1.0  0.21233  0.03232  0.47047  1.0000
  N   N65       1.0  0.37056  0.01610  0.38138  1.0000
  H   H1180     1.0  0.25101  0.09650  0.45864  1.0000
  C   C1005     1.0  0.33425  0.07523  0.47818  1.0000
  H   H1181     1.0  0.35566  0.00413  0.39458  1.0000
  H   H1182     1.0  0.32759  0.02881  0.42898  1.0000
  H   H1183     1.0  0.21262  0.03268  0.39482  1.0000
  C   C1006     1.0  0.34618  0.01341  0.43494  1.0000
  S   S268      1.0  0.37309  0.04114  0.27421  1.0000
  C   C1007     1.0  0.34138  0.02639  0.40476  1.0000
  N   N66       1.0  0.26841  0.09478  0.45484  1.0000
  C   C1008     1.0  0.27132  0.08350  0.45305  1.0000
  C   C1009     1.0  0.28520  0.04072  0.43296  1.0000
  C   C1010     1.0  0.26728  0.10257  0.44418  1.0000
  C   C1011     1.0  0.27695  0.09619  0.45937  1.0000
  C   C1012     1.0  0.28607  0.10030  0.45247  1.0000
  C   C1013     1.0  0.27695  0.09242  0.47076  1.0000
  C   C1014     1.0  0.29440  0.10097  0.45678  1.0000
  C   C1015     1.0  0.24959  0.01962  0.48017  1.0000
  H   H1184     1.0  0.28002  0.00227  0.46506  1.0000
  H   H1185     1.0  0.27906  0.08211  0.44689  1.0000
  H   H1186     1.0  0.27236  0.07726  0.46076  1.0000
  H   H1187     1.0  0.26501  0.08182  0.44996  1.0000
  N   N67       1.0  0.28834  0.04174  0.42088  1.0000
  H   H1188     1.0  0.28939  0.03279  0.43745  1.0000
  H   H1189     1.0  0.25210  0.06075  0.45424  1.0000
  H   H1190     1.0  0.26035  0.10193  0.44124  1.0000
  H   H1191     1.0  0.26603  0.11120  0.44483  1.0000
  H   H1192     1.0  0.27441  0.10083  0.43742  1.0000
  H   H1193     1.0  0.28713  0.10275  0.44364  1.0000
  H   H1194     1.0  0.30877  0.06821  0.47192  1.0000
  H   H1195     1.0  0.30132  0.10404  0.45132  1.0000
  H   H1196     1.0  0.28840  0.06949  0.47697  1.0000
  C   C1016     1.0  0.19703  0.03886  0.42379  1.0000
  C   C1017     1.0  0.38175  0.02027  0.27117  1.0000
  C   C1018     1.0  0.26030  0.04614  0.46386  1.0000
  C   C1019     1.0  0.25924  0.01973  0.43681  1.0000
  C   C1020     1.0  0.33519  0.08439  0.48124  1.0000
  C   C1021     1.0  0.32738  0.08719  0.46241  1.0000
  C   C1022     1.0  0.36083  0.01968  0.38968  1.0000
  C   C1023     1.0  0.26153  0.06018  0.47621  1.0000
  C   C1024     1.0  0.35385  0.01242  0.39569  1.0000
  H   H1197     1.0  0.19837  0.00676  0.40939  1.0000
  H   H1198     1.0  0.20566  0.05150  0.48101  1.0000
  C   C1025     1.0  0.38183  0.03076  0.33028  1.0000
  H   H1199     1.0  0.35271  0.01099  0.47072  1.0000
  C   C1026     1.0  0.34205  0.00479  0.44249  1.0000
  H   H1200     1.0  0.25256  0.07298  0.46551  1.0000
  C   C1027     1.0  0.25931  0.00351  0.43155  1.0000
  C   C1028     1.0  0.27738  0.03469  0.41204  1.0000
  C   C1029     1.0  0.38229  0.01743  0.31613  1.0000
  C   C1030     1.0  0.35775  0.03043  0.39178  1.0000
  C   C1031     1.0  0.37662  0.02860  0.31469  1.0000
  C   C1032     1.0  0.22499  0.01855  0.42174  1.0000
  H   H1201     1.0  0.21887  0.01642  0.42900  1.0000
  C   C1033     1.0  0.34669  0.02236  0.43849  1.0000
  H   H1202     1.0  0.35477  0.08203  0.46160  1.0000
  H   H1203     1.0  0.26802  0.01931  0.43332  1.0000
  C   C1034     1.0  0.22708  0.01368  0.41282  1.0000
  H   H1204     1.0  0.25698  0.08958  0.46989  1.0000
  H   H1205     1.0  0.33385  0.02900  0.41036  1.0000
  C   C1035     1.0  0.33868  0.00494  0.45368  1.0000
  H   H1206     1.0  0.26924  0.02771  0.40430  1.0000
  H   H1207     1.0  0.30491  0.03354  0.42179  1.0000
  H   H1208     1.0  0.37237  0.03258  0.30814  1.0000
  H   H1209     1.0  0.30064  0.09778  0.47122  1.0000
  H   H1210     1.0  0.24302  0.00162  0.44969  1.0000
  H   H1211     1.0  0.34118  0.99674  0.47580  1.0000
  H   H1212     1.0  0.34598  0.02527  0.46884  1.0000
  C   C1036     1.0  0.34484  0.01680  0.47277  1.0000
  H   H1213     1.0  0.27410  0.05456  0.41870  1.0000
  C   C1037     1.0  0.37689  0.07198  0.44340  1.0000
  H   H1214     1.0  0.22721  0.01822  0.47346  1.0000
  H   H1215     1.0  0.36260  0.03874  0.25860  1.0000
  C   C1038     1.0  0.37744  0.01271  0.25826  1.0000
  C   C1039     1.0  0.27535  0.02606  0.40901  1.0000
  H   H1216     1.0  0.37367  0.99896  0.38973  1.0000
  C   C1040     1.0  0.37721  0.02447  0.37610  1.0000
  H   H1217     1.0  0.25656  0.02453  0.44330  1.0000
  C   C1041     1.0  0.21446  0.03932  0.39691  1.0000
  N   N68       1.0  0.25694  0.00858  0.44112  1.0000
  C   C1042     1.0  0.38311  0.01154  0.26627  1.0000
  C   C1043     1.0  0.26627  0.04897  0.47871  1.0000
  H   H1218     1.0  0.36697  0.01768  0.30526  1.0000
  H   H1219     1.0  0.34582  0.04193  0.40060  1.0000
  C   C1044     1.0  0.37763  0.00608  0.38657  1.0000
  C   C1045     1.0  0.35490  0.08144  0.44515  1.0000
  H   H1220     1.0  0.36255  0.03653  0.38776  1.0000
  H   H1221     1.0  0.20294  0.06877  0.43357  1.0000
  C   C1046     1.0  0.34325  0.02264  0.44964  1.0000
  H   H1222     1.0  0.29312  0.00479  0.42075  1.0000
  C   C1047     1.0  0.21434  0.04718  0.47984  1.0000
  H   H1223     1.0  0.25814  0.01582  0.47907  1.0000
  H   H1224     1.0  0.38032  0.02653  0.38224  1.0000
  H   H1225     1.0  0.19223  0.00619  0.39903  1.0000
  H   H1226     1.0  0.34941  0.02931  0.43251  1.0000
  N   N69       1.0  0.33615  0.01413  0.46945  1.0000
  H   H1227     1.0  0.37431  0.07369  0.46002  1.0000
  H   H1228     1.0  0.37220  0.04366  0.32038  1.0000
  C   C1048     1.0  0.26332  0.00159  0.44928  1.0000
  H   H1229     1.0  0.37426  0.01061  0.36625  1.0000
  H   H1230     1.0  0.24014  0.01448  0.44033  1.0000
  C   C1049     1.0  0.19188  0.00370  0.40802  1.0000
  C   C1050     1.0  0.35967  0.07974  0.45400  1.0000
  H   H1231     1.0  0.34854  0.01336  0.42626  1.0000
  C   C1051     1.0  0.21116  0.05302  0.40751  1.0000
  H   H1232     1.0  0.37794  0.02288  0.29509  1.0000
  H   H1233     1.0  0.25581  0.00919  0.42461  1.0000
  H   H1234     1.0  0.31930  0.02074  0.46945  1.0000
  C   C1052     1.0  0.24288  0.01614  0.47592  1.0000
  H   H1235     1.0  0.19146  0.06480  0.46914  1.0000
  H   H1236     1.0  0.29183  0.05540  0.47601  1.0000
  C   C1053     1.0  0.30951  0.05981  0.47729  1.0000
  H   H1237     1.0  0.22365  0.06211  0.40353  1.0000
  H   H1238     1.0  0.37746  0.07098  0.42727  1.0000
  H   H1239     1.0  0.34120  0.99810  0.43958  1.0000
  C   C1054     1.0  0.37065  0.07503  0.45312  1.0000
  H   H1240     1.0  0.37258  0.03213  0.37162  1.0000
  C   C1055     1.0  0.37218  0.07363  0.43450  1.0000
  H   H1241     1.0  0.33313  0.10195  0.47709  1.0000
  C   C1056     1.0  0.18792  0.06865  0.43007  1.0000
  H   H1242     1.0  0.31713  0.05756  0.48030  1.0000
  C   C1057     1.0  0.29041  0.06092  0.48170  1.0000
  H   H1243     1.0  0.19439  0.03394  0.40056  1.0000
  H   H1244     1.0  0.25577  0.99620  0.43359  1.0000
  Fe  Fe123     1.0  0.31632  0.99519  0.43058  1.0000
  C   C1058     1.0  0.29631  0.00197  0.48154  1.0000
  H   H1245     1.0  0.18829  0.07567  0.42323  1.0000
  H   H1246     1.0  0.18811  0.05364  0.40069  1.0000
  C   C1059     1.0  0.27582  0.98766  0.46445  1.0000
  H   H1247     1.0  0.37958  0.99453  0.31004  1.0000
  Fe  Fe124     1.0  0.21960  0.99326  0.43022  1.0000
  N   N70       1.0  0.19334  0.99163  0.41204  1.0000
  H   H1248     1.0  0.34300  0.01642  0.48174  1.0000
  H   H1249     1.0  0.20970  0.02206  0.48296  1.0000
  H   H1250     1.0  0.38440  0.02153  0.36986  1.0000
  H   H1251     1.0  0.19897  0.99292  0.42562  1.0000
  Fe  Fe125     1.0  0.21967  0.99306  0.45352  1.0000
  S   S269      1.0  0.38610  0.04913  0.37005  1.0000
  S   S270      1.0  0.30167  0.98957  0.44183  1.0000
  Fe  Fe126     1.0  0.38622  0.06605  0.37090  1.0000
  H   H1252     1.0  0.38543  0.99482  0.32062  1.0000
  H   H1253     1.0  0.33662  0.06708  0.48303  1.0000
  C   C1060     1.0  0.22727  0.02984  0.48290  1.0000
  C   C1061     1.0  0.23195  0.99244  0.48306  1.0000
  H   H1254     1.0  0.21828  0.05123  0.48363  1.0000
  H   H1255     1.0  0.20450  0.98787  0.39726  1.0000
  H   H1256     1.0  0.35217  0.99191  0.38536  1.0000
  S   S271      1.0  0.31681  0.98743  0.41707  1.0000
  C   C1062     1.0  0.29755  0.99221  0.47842  1.0000
  S   S272      1.0  0.23290  0.99094  0.43872  1.0000
  C   C1063     1.0  0.23167  0.99153  0.47271  1.0000
  H   H1257     1.0  0.21069  0.98991  0.40700  1.0000
  H   H1258     1.0  0.28511  0.09026  0.48371  1.0000
  H   H1259     1.0  0.38518  0.00337  0.38059  1.0000
  H   H1260     1.0  0.30275  0.99085  0.47058  1.0000
  H   H1261     1.0  0.37859  0.98944  0.23667  1.0000
  C   C1064     1.0  0.19318  0.98912  0.42395  1.0000
  C   C1065     1.0  0.26352  0.99019  0.45280  1.0000
  C   C1066     1.0  0.18691  0.05070  0.44787  1.0000
  H   H1262     1.0  0.18720  0.03020  0.41436  1.0000
  H   H1263     1.0  0.18642  0.04381  0.45485  1.0000
  S   S273      1.0  0.26125  0.06873  0.48466  1.0000
  N   N71       1.0  0.21563  0.03524  0.48465  1.0000
  Fe  Fe127     1.0  0.33989  0.06669  0.50440  1.0000
  S   S274      1.0  0.33987  0.06445  0.52217  1.0000
  H   H1264     1.0  0.35130  0.00315  0.55652  1.0000
  Fe  Fe128     1.0  0.33978  0.04329  0.50652  1.0000
  S   S275      1.0  0.33999  0.03879  0.52437  1.0000
  S   S276      1.0  0.33911  0.03055  0.49836  1.0000
  Fe  Fe129     1.0  0.32759  0.05438  0.52518  1.0000
  S   S277      1.0  0.31390  0.05446  0.53998  1.0000
  Fe  Fe130     1.0  0.35231  0.04904  0.51991  1.0000
  S   S278      1.0  0.36742  0.04254  0.52687  1.0000
  S   S279      1.0  0.32635  0.05818  0.50764  1.0000
  S   S280      1.0  0.35334  0.05209  0.50176  1.0000
  Fe  Fe131     1.0  0.26091  0.05083  0.52465  1.0000
  S   S281      1.0  0.27063  0.04616  0.50884  1.0000
  S   S282      1.0  0.26711  0.05152  0.53883  1.0000
  S   S283      1.0  0.24705  0.04676  0.50387  1.0000
  C   C1067     1.0  0.28963  0.00369  0.49159  1.0000
  Fe  Fe132     1.0  0.25953  0.03484  0.51236  1.0000
  S   S284      1.0  0.26458  0.01798  0.50928  1.0000
  S   S285      1.0  0.37632  0.00438  0.60273  1.0000
  C   C1068     1.0  0.28856  0.06793  0.50218  1.0000
  H   H1265     1.0  0.35309  0.01297  0.65338  1.0000
  S   S286      1.0  0.37614  0.07016  0.55553  1.0000
  H   H1266     1.0  0.28445  0.99663  0.54247  1.0000
  C   C1069     1.0  0.36720  0.01481  0.57510  1.0000
  C   C1070     1.0  0.21457  0.05811  0.50956  1.0000
  H   H1267     1.0  0.35830  0.98978  0.54626  1.0000
  H   H1268     1.0  0.27761  0.02393  0.54801  1.0000
  H   H1269     1.0  0.21375  0.99671  0.55086  1.0000
  C   C1071     1.0  0.24534  0.02808  0.48579  1.0000
  C   C1072     1.0  0.37660  0.02940  0.56542  1.0000
  H   H1270     1.0  0.35809  0.01750  0.52715  1.0000
  H   H1271     1.0  0.28740  0.00569  0.54862  1.0000
  H   H1272     1.0  0.36450  0.02350  0.55298  1.0000
  N   N72       1.0  0.36618  0.02688  0.57234  1.0000
  H   H1273     1.0  0.28259  0.06316  0.50368  1.0000
  Fe  Fe133     1.0  0.23917  0.05104  0.52018  1.0000
  H   H1274     1.0  0.36406  0.03933  0.58126  1.0000
  H   H1275     1.0  0.37437  0.08305  0.52602  1.0000
  H   H1276     1.0  0.27627  0.99907  0.55557  1.0000
  C   C1073     1.0  0.38245  0.06366  0.51102  1.0000
  H   H1277     1.0  0.36149  0.00757  0.51878  1.0000
  C   C1074     1.0  0.25280  0.01349  0.54603  1.0000
  H   H1278     1.0  0.36355  0.10649  0.63589  1.0000
  C   C1075     1.0  0.33632  0.01390  0.56098  1.0000
  N   N73       1.0  0.35616  0.09122  0.51737  1.0000
  C   C1076     1.0  0.20562  0.99536  0.55344  1.0000
  H   H1279     1.0  0.36503  0.00117  0.54128  1.0000
  C   C1077     1.0  0.38491  0.05353  0.62675  1.0000
  C   C1078     1.0  0.37255  0.01492  0.67156  1.0000
  C   C1079     1.0  0.37220  0.02216  0.67789  1.0000
  C   C1080     1.0  0.31368  0.02213  0.52229  1.0000
  C   C1081     1.0  0.34952  0.03421  0.55066  1.0000
  H   H1280     1.0  0.37036  0.00714  0.67558  1.0000
  H   H1281     1.0  0.36979  0.01990  0.68674  1.0000
  H   H1282     1.0  0.37615  0.03839  0.56331  1.0000
  H   H1283     1.0  0.34840  0.01632  0.52043  1.0000
  C   C1082     1.0  0.37383  0.02324  0.73090  1.0000
  H   H1284     1.0  0.35034  0.99443  0.66051  1.0000
  S   S287      1.0  0.25104  0.03821  0.52886  1.0000
  H   H1285     1.0  0.38474  0.98947  0.62334  1.0000
  C   C1083     1.0  0.28685  0.07479  0.50935  1.0000
  H   H1286     1.0  0.36834  0.08560  0.63875  1.0000
  C   C1084     1.0  0.32531  0.02171  0.54753  1.0000
  H   H1287     1.0  0.31803  0.02708  0.54511  1.0000
  C   C1085     1.0  0.37581  0.01772  0.66011  1.0000
  C   C1086     1.0  0.24263  0.00365  0.50600  1.0000
  H   H1288     1.0  0.27929  0.99751  0.50631  1.0000
  H   H1289     1.0  0.19563  0.02382  0.52727  1.0000
  H   H1290     1.0  0.30787  0.02545  0.52894  1.0000
  H   H1291     1.0  0.37361  0.06128  0.50064  1.0000
  C   C1087     1.0  0.30534  0.07353  0.49239  1.0000
  N   N74       1.0  0.19754  0.01453  0.54347  1.0000
  C   C1088     1.0  0.36432  0.03041  0.58277  1.0000
  S   S288      1.0  0.37733  0.00810  0.65244  1.0000
  C   C1089     1.0  0.35077  0.08883  0.52918  1.0000
  C   C1090     1.0  0.36947  0.10539  0.64096  1.0000
  H   H1292     1.0  0.20798  0.06543  0.49507  1.0000
  H   H1293     1.0  0.18933  0.99998  0.48789  1.0000
  C   C1091     1.0  0.36801  0.01454  0.71965  1.0000
  H   H1294     1.0  0.25981  0.00254  0.50035  1.0000
  H   H1295     1.0  0.22216  0.06068  0.50585  1.0000
  H   H1296     1.0  0.36630  0.00736  0.71835  1.0000
  H   H1297     1.0  0.35387  0.10861  0.51609  1.0000
  C   C1092     1.0  0.23436  0.03308  0.48723  1.0000
  H   H1298     1.0  0.33146  0.01697  0.53220  1.0000
  C   C1093     1.0  0.35492  0.01154  0.52488  1.0000
  H   H1299     1.0  0.21461  0.01084  0.53610  1.0000
  C   C1094     1.0  0.30167  0.04775  0.49336  1.0000
  H   H1300     1.0  0.25060  0.03072  0.48914  1.0000
  C   C1095     1.0  0.19360  0.00774  0.50300  1.0000
  C   C1096     1.0  0.34844  0.04056  0.56981  1.0000
  H   H1301     1.0  0.22538  0.02157  0.52106  1.0000
  H   H1302     1.0  0.37295  0.04082  0.72396  1.0000
  H   H1303     1.0  0.34781  0.08110  0.53142  1.0000
  H   H1304     1.0  0.22666  0.99922  0.48653  1.0000
  C   C1097     1.0  0.19478  0.05172  0.51918  1.0000
  C   C1098     1.0  0.25239  0.01456  0.51022  1.0000
  H   H1305     1.0  0.24245  0.02655  0.51956  1.0000
  H   H1306     1.0  0.20902  0.02501  0.53587  1.0000
  C   C1099     1.0  0.37363  0.06179  0.54834  1.0000
  C   C1100     1.0  0.38171  0.05322  0.54464  1.0000
  C   C1101     1.0  0.37964  0.04719  0.53827  1.0000
  C   C1102     1.0  0.36955  0.04976  0.53547  1.0000
  C   C1103     1.0  0.36140  0.05812  0.53945  1.0000
  C   C1104     1.0  0.36343  0.06409  0.54586  1.0000
  S   S289      1.0  0.18667  0.06104  0.50059  1.0000
  H   H1307     1.0  0.38598  0.04071  0.53526  1.0000
  H   H1308     1.0  0.35352  0.05997  0.53760  1.0000
  H   H1309     1.0  0.35709  0.07053  0.54892  1.0000
  C   C1105     1.0  0.30119  0.05338  0.53899  1.0000
  C   C1106     1.0  0.29269  0.05408  0.54821  1.0000
  C   C1107     1.0  0.28238  0.05343  0.54793  1.0000
  C   C1108     1.0  0.28041  0.05204  0.53844  1.0000
  C   C1109     1.0  0.28893  0.05110  0.52919  1.0000
  C   C1110     1.0  0.29934  0.05185  0.52944  1.0000
  H   H1310     1.0  0.29404  0.05524  0.55560  1.0000
  H   H1311     1.0  0.27585  0.05411  0.55511  1.0000
  H   H1312     1.0  0.28749  0.04984  0.52190  1.0000
  H   H1313     1.0  0.30588  0.05127  0.52229  1.0000
  C   C1111     1.0  0.27031  0.02128  0.54792  1.0000
  C   C1112     1.0  0.25628  0.99630  0.53566  1.0000
  C   C1113     1.0  0.33307  0.01592  0.54016  1.0000
  H   H1314     1.0  0.37891  0.02665  0.55756  1.0000
  H   H1315     1.0  0.26614  0.01867  0.55663  1.0000
  C   C1114     1.0  0.25237  0.00644  0.50517  1.0000
  S   S290      1.0  0.33997  0.08309  0.49295  1.0000
  C   C1115     1.0  0.20860  0.01660  0.54095  1.0000
  H   H1316     1.0  0.28850  0.01137  0.49396  1.0000
  N   N75       1.0  0.35104  0.00337  0.53473  1.0000
  C   C1116     1.0  0.35242  0.99112  0.64468  1.0000
  C   C1117     1.0  0.32921  0.01328  0.50557  1.0000
  C   C1118     1.0  0.32904  0.02365  0.50678  1.0000
  C   C1119     1.0  0.32113  0.02818  0.51501  1.0000
  H   H1317     1.0  0.34364  0.08680  0.51286  1.0000
  H   H1318     1.0  0.33546  0.00958  0.49949  1.0000
  H   H1319     1.0  0.32095  0.03619  0.51602  1.0000
  N   N76       1.0  0.35740  0.02418  0.63109  1.0000
  C   C1120     1.0  0.36877  0.02368  0.62494  1.0000
  C   C1121     1.0  0.35017  0.03012  0.62336  1.0000
  C   C1122     1.0  0.35528  0.03084  0.63939  1.0000
  C   C1123     1.0  0.35566  0.01287  0.63593  1.0000
  H   H1320     1.0  0.31270  0.07337  0.48613  1.0000
  C   C1124     1.0  0.35636  0.00583  0.62902  1.0000
  C   C1125     1.0  0.28429  0.99560  0.49865  1.0000
  C   C1126     1.0  0.35473  0.99515  0.63336  1.0000
  H   H1321     1.0  0.20485  0.99103  0.51994  1.0000
  H   H1322     1.0  0.37092  0.01896  0.61843  1.0000
  H   H1323     1.0  0.37038  0.03201  0.62085  1.0000
  H   H1324     1.0  0.37445  0.01967  0.63053  1.0000
  H   H1325     1.0  0.35224  0.02656  0.61600  1.0000
  H   H1326     1.0  0.35080  0.03886  0.62014  1.0000
  H   H1327     1.0  0.34157  0.02995  0.62746  1.0000
  H   H1328     1.0  0.36096  0.02729  0.64503  1.0000
  H   H1329     1.0  0.35650  0.03932  0.63547  1.0000
  H   H1330     1.0  0.34684  0.03151  0.64437  1.0000
  H   H1331     1.0  0.25752  0.98961  0.53171  1.0000
  H   H1332     1.0  0.35823  0.00850  0.62019  1.0000
  H   H1333     1.0  0.30323  0.04151  0.48840  1.0000
  H   H1334     1.0  0.36512  0.10293  0.50621  1.0000
  H   H1335     1.0  0.26508  0.02879  0.54398  1.0000
  H   H1336     1.0  0.38341  0.02541  0.56970  1.0000
  H   H1337     1.0  0.27308  0.99595  0.53242  1.0000
  H   H1338     1.0  0.36979  0.01124  0.56771  1.0000
  C   C1127     1.0  0.35344  0.00843  0.64745  1.0000
  H   H1339     1.0  0.23899  0.99861  0.53938  1.0000
  C   C1128     1.0  0.34284  0.00912  0.54288  1.0000
  H   H1340     1.0  0.35673  0.02850  0.58853  1.0000
  C   C1129     1.0  0.18637  0.00053  0.55407  1.0000
  H   H1341     1.0  0.28231  0.01005  0.52566  1.0000
  C   C1130     1.0  0.36047  0.10125  0.51488  1.0000
  C   C1131     1.0  0.20264  0.04939  0.52536  1.0000
  C   C1132     1.0  0.36515  0.08182  0.51497  1.0000
  H   H1342     1.0  0.21124  0.01591  0.54857  1.0000
  C   C1133     1.0  0.21254  0.05256  0.52058  1.0000
  H   H1343     1.0  0.29455  0.04634  0.50015  1.0000
  C   C1134     1.0  0.34611  0.99629  0.53130  1.0000
  H   H1344     1.0  0.20701  0.99389  0.48963  1.0000
  C   C1135     1.0  0.32166  0.00735  0.51266  1.0000
  H   H1345     1.0  0.34126  0.10097  0.51264  1.0000
  H   H1346     1.0  0.37335  0.01047  0.58012  1.0000
  S   S291      1.0  0.22199  0.04980  0.52876  1.0000
  C   C1136     1.0  0.37381  0.06635  0.50589  1.0000
  N   N77       1.0  0.37850  0.09573  0.63946  1.0000
  C   C1137     1.0  0.24258  0.02017  0.51573  1.0000
  H   H1347     1.0  0.35003  0.03187  0.54314  1.0000
  H   H1348     1.0  0.35128  0.09549  0.50188  1.0000
  S   S292      1.0  0.24827  0.06426  0.51731  1.0000
  C   C1138     1.0  0.36063  0.99630  0.53897  1.0000
  H   H1349     1.0  0.33347  0.05165  0.56670  1.0000
  C   C1139     1.0  0.29791  0.06698  0.49353  1.0000
  C   C1140     1.0  0.38303  0.09687  0.62744  1.0000
  H   H1350     1.0  0.29316  0.08606  0.51385  1.0000
  H   H1351     1.0  0.32180  0.99939  0.51156  1.0000
  C   C1141     1.0  0.31418  0.01155  0.52130  1.0000
  H   H1352     1.0  0.28592  0.01979  0.53048  1.0000
  H   H1353     1.0  0.38047  0.04287  0.65736  1.0000
  C   C1142     1.0  0.27895  0.01653  0.53051  1.0000
  S   S293      1.0  0.38163  0.05056  0.60792  1.0000
  H   H1354     1.0  0.33751  0.01299  0.56914  1.0000
  C   C1143     1.0  0.37410  0.08565  0.64354  1.0000
  H   H1355     1.0  0.35938  0.01256  0.57989  1.0000
  N   N78       1.0  0.27313  0.01237  0.54185  1.0000
  H   H1356     1.0  0.37676  0.09757  0.62291  1.0000
  Fe  Fe134     1.0  0.25735  0.05859  0.50169  1.0000
  H   H1357     1.0  0.35214  0.99136  0.52562  1.0000
  C   C1144     1.0  0.37170  0.01390  0.72897  1.0000
  C   C1145     1.0  0.32692  0.02068  0.55793  1.0000
  C   C1146     1.0  0.19469  0.01575  0.53287  1.0000
  H   H1358     1.0  0.34756  0.04352  0.57704  1.0000
  H   H1359     1.0  0.38406  0.00161  0.62741  1.0000
  H   H1360     1.0  0.37633  0.98911  0.72517  1.0000
  C   C1147     1.0  0.23284  0.01731  0.51661  1.0000
  C   C1148     1.0  0.26510  0.99993  0.53622  1.0000
  C   C1149     1.0  0.30357  0.08039  0.49959  1.0000
  C   C1150     1.0  0.26364  0.00865  0.54142  1.0000
  C   C1151     1.0  0.20655  0.06078  0.50347  1.0000
  S   S294      1.0  0.30638  0.00307  0.53139  1.0000
  H   H1361     1.0  0.32087  0.02518  0.56361  1.0000
  C   C1152     1.0  0.24577  0.00133  0.54007  1.0000
  H   H1362     1.0  0.20099  0.04533  0.53394  1.0000
  C   C1153     1.0  0.36638  0.02445  0.71200  1.0000
  S   S295      1.0  0.37659  0.04020  0.68085  1.0000
  H   H1363     1.0  0.28304  0.05925  0.48798  1.0000
  Fe  Fe135     1.0  0.38165  0.99197  0.66381  1.0000
  C   C1154     1.0  0.35744  0.03233  0.56626  1.0000
  H   H1364     1.0  0.38072  0.07821  0.64290  1.0000
  C   C1155     1.0  0.29438  0.08096  0.50810  1.0000
  H   H1365     1.0  0.19995  0.00921  0.52857  1.0000
  H   H1366     1.0  0.27346  0.02324  0.52594  1.0000
  H   H1367     1.0  0.19076  0.03154  0.54421  1.0000
  C   C1156     1.0  0.37830  0.03506  0.66131  1.0000
  H   H1368     1.0  0.23147  0.03951  0.49179  1.0000
  H   H1369     1.0  0.37099  0.02613  0.58714  1.0000
  C   C1157     1.0  0.34025  0.04535  0.56392  1.0000
  C   C1158     1.0  0.36833  0.03376  0.71367  1.0000
  H   H1370     1.0  0.36352  0.02497  0.70477  1.0000
  H   H1371     1.0  0.33442  0.04589  0.54983  1.0000
  C   C1159     1.0  0.35777  0.02941  0.55642  1.0000
  C   C1160     1.0  0.34777  0.09371  0.51089  1.0000
  H   H1372     1.0  0.38090  0.03012  0.64608  1.0000
  H   H1373     1.0  0.37257  0.11305  0.63859  1.0000
  H   H1374     1.0  0.27978  0.07509  0.51611  1.0000
  H   H1375     1.0  0.36656  0.99197  0.53273  1.0000
  H   H1376     1.0  0.30872  0.04601  0.49720  1.0000
  H   H1377     1.0  0.36477  0.10466  0.64960  1.0000
  H   H1378     1.0  0.34369  0.09552  0.53129  1.0000
  H   H1379     1.0  0.25085  0.02023  0.55006  1.0000
  H   H1380     1.0  0.35632  0.08781  0.53462  1.0000
  H   H1381     1.0  0.21104  0.99229  0.50193  1.0000
  C   C1161     1.0  0.19002  0.02315  0.54909  1.0000
  C   C1162     1.0  0.38331  0.09450  0.65726  1.0000
  C   C1163     1.0  0.34076  0.04214  0.55440  1.0000
  C   C1164     1.0  0.23293  0.00872  0.51212  1.0000
  H   H1382     1.0  0.20193  0.03729  0.49827  1.0000
  C   C1165     1.0  0.34425  0.00827  0.55357  1.0000
  N   N79       1.0  0.19365  0.99621  0.50360  1.0000
  H   H1383     1.0  0.19161  0.02225  0.55730  1.0000
  C   C1166     1.0  0.37539  0.03207  0.67279  1.0000
  C   C1167     1.0  0.37843  0.02791  0.65494  1.0000
  H   H1384     1.0  0.33956  0.00108  0.52690  1.0000
  N   N80       1.0  0.29989  0.05906  0.48653  1.0000
  H   H1385     1.0  0.34251  0.99047  0.53854  1.0000
  H   H1386     1.0  0.30951  0.08509  0.49869  1.0000
  C   C1168     1.0  0.20477  0.99075  0.49870  1.0000
  H   H1387     1.0  0.19940  0.00840  0.50744  1.0000
  H   H1388     1.0  0.37503  0.09453  0.66164  1.0000
  H   H1389     1.0  0.33182  0.00392  0.48566  1.0000
  H   H1390     1.0  0.38485  0.02213  0.60323  1.0000
  H   H1391     1.0  0.23584  0.01399  0.54846  1.0000
  C   C1169     1.0  0.18642  0.99616  0.49669  1.0000
  C   C1170     1.0  0.36527  0.07530  0.50777  1.0000
  C   C1171     1.0  0.28059  0.00302  0.54738  1.0000
  S   S296      1.0  0.22136  0.00326  0.51546  1.0000
  C   C1172     1.0  0.19658  0.00350  0.55039  1.0000
  C   C1173     1.0  0.37189  0.03324  0.72302  1.0000
  H   H1392     1.0  0.37954  0.04803  0.63116  1.0000
  C   C1174     1.0  0.37405  0.07879  0.52011  1.0000
  H   H1393     1.0  0.36703  0.04147  0.70768  1.0000
  C   C1175     1.0  0.19665  0.05759  0.50828  1.0000
  H   H1394     1.0  0.36976  0.08465  0.65231  1.0000
  S   S297      1.0  0.38535  0.05804  0.73458  1.0000
  H   H1395     1.0  0.36595  0.10057  0.52027  1.0000
  C   C1176     1.0  0.38259  0.06991  0.51807  1.0000
  C   C1177     1.0  0.24404  0.00993  0.54521  1.0000
  H   H1396     1.0  0.35880  0.07679  0.50361  1.0000
  C   C1178     1.0  0.19028  0.99081  0.51529  1.0000
  H   H1397     1.0  0.21439  0.03749  0.50089  1.0000
  C   C1179     1.0  0.19707  0.98885  0.52269  1.0000
  H   H1398     1.0  0.38165  0.05461  0.71527  1.0000
  H   H1399     1.0  0.35527  0.98993  0.62791  1.0000
  C   C1180     1.0  0.21077  0.03359  0.49661  1.0000
  H   H1400     1.0  0.24265  0.99761  0.50183  1.0000
  H   H1401     1.0  0.21200  0.02470  0.50062  1.0000
  H   H1402     1.0  0.19581  0.01227  0.49434  1.0000
  H   H1403     1.0  0.38502  0.98888  0.63726  1.0000
  C   C1181     1.0  0.35189  0.99770  0.65170  1.0000
  H   H1404     1.0  0.33856  0.98830  0.56426  1.0000
  Fe  Fe136     1.0  0.37554  0.98866  0.59933  1.0000
  H   H1405     1.0  0.27019  0.04562  0.48558  1.0000
  H   H1406     1.0  0.18711  0.04934  0.52297  1.0000
  H   H1407     1.0  0.37273  0.00608  0.73475  1.0000
  H   H1408     1.0  0.36834  0.24688  0.91301  1.0000
  H   H1409     1.0  0.24958  0.46941  0.97243  1.0000
  C   C1182     1.0  0.37554  0.04693  0.90406  1.0000
  S   S298      1.0  0.29385  0.47845  0.93495  1.0000
  H   H1410     1.0  0.28066  0.48579  0.90365  1.0000
  C   C1183     1.0  0.31666  0.43616  0.92525  1.0000
  H   H1411     1.0  0.27781  0.44637  0.91354  1.0000
  H   H1412     1.0  0.35557  0.27501  0.97328  1.0000
  C   C1184     1.0  0.36369  0.35874  0.98333  1.0000
  H   H1413     1.0  0.32155  0.42363  0.94390  1.0000
  H   H1414     1.0  0.31690  0.43929  0.91632  1.0000
  C   C1185     1.0  0.37548  0.40425  0.96459  1.0000
  H   H1415     1.0  0.37963  0.17865  0.97277  1.0000
  C   C1186     1.0  0.37305  0.26198  0.94422  1.0000
  Fe  Fe137     1.0  0.31943  0.45509  0.93931  1.0000
  H   H1416     1.0  0.28246  0.48006  0.91757  1.0000
  S   S299      1.0  0.22009  0.47377  0.95352  1.0000
  S   S300      1.0  0.37235  0.41362  0.91652  1.0000
  S   S301      1.0  0.23764  0.48580  0.93358  1.0000
  C   C1187     1.0  0.23483  0.46561  0.98256  1.0000
  H   H1417     1.0  0.27227  0.47707  0.91329  1.0000
  H   H1418     1.0  0.36559  0.04079  0.86355  1.0000
  C   C1188     1.0  0.32790  0.41833  0.92335  1.0000
  C   C1189     1.0  0.26925  0.45788  0.97714  1.0000
  C   C1190     1.0  0.29850  0.47280  0.98467  1.0000
  H   H1419     1.0  0.36331  0.41023  0.93994  1.0000
  H   H1420     1.0  0.38303  0.26989  0.97830  1.0000
  C   C1191     1.0  0.38196  0.24110  0.92072  1.0000
  C   C1192     1.0  0.35113  0.42879  0.98237  1.0000
  H   H1421     1.0  0.26097  0.47889  0.97747  1.0000
  H   H1422     1.0  0.25215  0.46525  0.94200  1.0000
  S   S302      1.0  0.29070  0.47306  0.96711  1.0000
  S   S303      1.0  0.37037  0.38622  0.93787  1.0000
  H   H1423     1.0  0.33274  0.42894  0.96849  1.0000
  H   H1424     1.0  0.30876  0.41267  0.92806  1.0000
  H   H1425     1.0  0.37193  0.01912  0.75839  1.0000
  H   H1426     1.0  0.36816  0.02640  0.88024  1.0000
  N   N81       1.0  0.37779  0.02235  0.74078  1.0000
  S   S304      1.0  0.38134  0.99675  0.77004  1.0000
  C   C1193     1.0  0.37065  0.25175  0.94621  1.0000
  H   H1427     1.0  0.30029  0.42584  0.92999  1.0000
  S   S305      1.0  0.38295  0.11120  0.95039  1.0000
  C   C1194     1.0  0.36976  0.32844  0.96486  1.0000
  H   H1428     1.0  0.26732  0.46343  0.96938  1.0000
  H   H1429     1.0  0.32930  0.47904  0.96784  1.0000
  H   H1430     1.0  0.36466  0.18830  0.98130  1.0000
  C   C1195     1.0  0.24574  0.46582  0.98067  1.0000
  H   H1431     1.0  0.36268  0.35555  0.95352  1.0000
  S   S306      1.0  0.38579  0.29970  0.91993  1.0000
  S   S307      1.0  0.38575  0.07070  0.78219  1.0000
  S   S308      1.0  0.37806  0.35772  0.93149  1.0000
  C   C1196     1.0  0.34842  0.40799  0.91230  1.0000
  S   S309      1.0  0.30248  0.45290  0.94731  1.0000
  H   H1432     1.0  0.38145  0.35039  0.95493  1.0000
  S   S310      1.0  0.37909  0.22800  0.92614  1.0000
  C   C1197     1.0  0.38534  0.26258  0.91239  1.0000
  H   H1433     1.0  0.34328  0.41690  0.89739  1.0000
  H   H1434     1.0  0.37536  0.27404  0.95093  1.0000
  H   H1435     1.0  0.26069  0.48344  0.93027  1.0000
  Fe  Fe138     1.0  0.29949  0.46960  0.95052  1.0000
  H   H1436     1.0  0.19202  0.47449  0.93913  1.0000
  S   S311      1.0  0.38226  0.29301  0.95235  1.0000
  H   H1437     1.0  0.35982  0.42696  0.98129  1.0000
  Fe  Fe139     1.0  0.31137  0.47888  0.92784  1.0000
  C   C1198     1.0  0.36653  0.35498  0.97360  1.0000
  C   C1199     1.0  0.38348  0.33740  0.92696  1.0000
  H   H1438     1.0  0.33425  0.40918  0.93808  1.0000
  H   H1439     1.0  0.36713  0.23744  0.95833  1.0000
  N   N82       1.0  0.37630  0.19824  0.97877  1.0000
  H   H1440     1.0  0.38332  0.21135  0.97892  1.0000
  C   C1200     1.0  0.36906  0.24952  0.96570  1.0000
  C   C1201     1.0  0.37187  0.05215  0.86794  1.0000
  H   H1441     1.0  0.31185  0.48712  0.96641  1.0000
  C   C1202     1.0  0.25381  0.45657  0.92950  1.0000
  C   C1203     1.0  0.37507  0.24900  0.91455  1.0000
  C   C1204     1.0  0.38325  0.11488  0.97016  1.0000
  Fe  Fe140     1.0  0.22889  0.47269  0.93619  1.0000
  H   H1442     1.0  0.36628  0.28170  0.96518  1.0000
  C   C1205     1.0  0.34104  0.41514  0.90629  1.0000
  S   S312      1.0  0.31575  0.46285  0.92263  1.0000
  H   H1443     1.0  0.37465  0.26676  0.93584  1.0000
  H   H1444     1.0  0.38344  0.03171  0.74863  1.0000
  S   S313      1.0  0.21535  0.48406  0.92832  1.0000
  H   H1445     1.0  0.38488  0.29254  0.97375  1.0000
  C   C1206     1.0  0.35850  0.41764  0.93592  1.0000
  H   H1446     1.0  0.37782  0.01705  0.77680  1.0000
  C   C1207     1.0  0.31540  0.42138  0.94104  1.0000
  H   H1447     1.0  0.37659  0.42097  0.96247  1.0000
  C   C1208     1.0  0.37125  0.26005  0.96400  1.0000
  N   N83       1.0  0.36978  0.34020  0.96331  1.0000
  H   H1448     1.0  0.37484  0.11899  0.97055  1.0000
  H   H1449     1.0  0.36772  0.24416  0.97373  1.0000
  C   C1209     1.0  0.34590  0.43693  0.92567  1.0000
  C   C1210     1.0  0.37717  0.41291  0.96788  1.0000
  H   H1450     1.0  0.37296  0.03948  0.74171  1.0000
  H   H1451     1.0  0.36152  0.32680  0.96854  1.0000
  C   C1211     1.0  0.36886  0.04226  0.86966  1.0000
  C   C1212     1.0  0.36396  0.27558  0.97280  1.0000
  S   S314      1.0  0.37521  0.38266  0.96730  1.0000
  C   C1213     1.0  0.36647  0.34405  0.97370  1.0000
  C   C1214     1.0  0.36945  0.01939  0.75079  1.0000
  C   C1215     1.0  0.35494  0.43093  0.91939  1.0000
  C   C1216     1.0  0.34702  0.42735  0.97419  1.0000
  H   H1452     1.0  0.36787  0.21028  0.96700  1.0000
  C   C1217     1.0  0.36876  0.24550  0.95690  1.0000
  N   N84       1.0  0.37150  0.26468  0.97311  1.0000
  H   H1453     1.0  0.32346  0.43836  0.92703  1.0000
  Fe  Fe141     1.0  0.38052  0.39765  0.92611  1.0000
  C   C1218     1.0  0.33590  0.42983  0.97497  1.0000
  C   C1219     1.0  0.34313  0.43324  0.93709  1.0000
  H   H1454     1.0  0.35158  0.40048  0.92832  1.0000
  Fe  Fe142     1.0  0.38090  0.38488  0.94912  1.0000
  Fe  Fe143     1.0  0.38334  0.37287  0.93122  1.0000
  H   H1455     1.0  0.32552  0.42583  0.90668  1.0000
  C   C1220     1.0  0.36226  0.34675  0.95607  1.0000
  H   H1456     1.0  0.32690  0.45619  0.97327  1.0000
  C   C1221     1.0  0.26115  0.45104  0.92169  1.0000
  C   C1222     1.0  0.37339  0.26608  0.95294  1.0000
  H   H1457     1.0  0.25821  0.44734  0.91694  1.0000
  C   C1223     1.0  0.27623  0.45526  0.92581  1.0000
  H   H1458     1.0  0.38278  0.09423  0.88243  1.0000
  H   H1459     1.0  0.31555  0.41250  0.94440  1.0000
  H   H1460     1.0  0.36377  0.27922  0.97968  1.0000
  H   H1461     1.0  0.33066  0.48731  0.98231  1.0000
  H   H1462     1.0  0.27813  0.45689  0.97603  1.0000
  S   S315      1.0  0.29025  0.45479  0.92243  1.0000
  S   S316      1.0  0.23985  0.45743  0.93121  1.0000
  H   H1463     1.0  0.37080  0.05837  0.86053  1.0000
  C   C1224     1.0  0.27227  0.45047  0.91979  1.0000
  H   H1464     1.0  0.38556  0.27124  0.96384  1.0000
  H   H1465     1.0  0.38564  0.14741  0.95150  1.0000
  S   S317      1.0  0.31671  0.47130  0.94373  1.0000
  C   C1225     1.0  0.31039  0.46222  0.97160  1.0000
  C   C1226     1.0  0.37985  0.41106  0.97803  1.0000
  H   H1466     1.0  0.30858  0.42451  0.91687  1.0000
  H   H1467     1.0  0.37896  0.04836  0.91034  1.0000
  C   C1227     1.0  0.33090  0.42021  0.91170  1.0000
  H   H1468     1.0  0.35249  0.42446  0.96711  1.0000
  C   C1228     1.0  0.27636  0.48379  0.91240  1.0000
  H   H1469     1.0  0.37536  0.32304  0.97017  1.0000
  C   C1229     1.0  0.37035  0.03416  0.87905  1.0000
  S   S318      1.0  0.38311  0.42153  0.98164  1.0000
  H   H1470     1.0  0.35703  0.43376  0.91056  1.0000
  C   C1230     1.0  0.30033  0.46877  0.97523  1.0000
  C   C1231     1.0  0.36125  0.42127  0.92450  1.0000
  H   H1471     1.0  0.36795  0.01114  0.75178  1.0000
  C   C1232     1.0  0.37687  0.25963  0.91024  1.0000
  H   H1472     1.0  0.37975  0.07114  0.80506  1.0000
  N   N85       1.0  0.31730  0.42420  0.92885  1.0000
  H   H1473     1.0  0.37864  0.06182  0.87363  1.0000
  C   C1233     1.0  0.26898  0.46054  0.93390  1.0000
  H   H1474     1.0  0.34114  0.44442  0.92168  1.0000
  H   H1475     1.0  0.37030  0.24862  0.93945  1.0000
  C   C1234     1.0  0.30838  0.42166  0.92581  1.0000
  H   H1476     1.0  0.30739  0.42598  0.94490  1.0000
  C   C1235     1.0  0.25775  0.46125  0.93571  1.0000
  H   H1477     1.0  0.34099  0.48325  0.95874  1.0000
  H   H1478     1.0  0.27199  0.46415  0.93867  1.0000
  C   C1236     1.0  0.33561  0.41094  0.92924  1.0000
  C   C1237     1.0  0.31895  0.46069  0.97659  1.0000
  C   C1238     1.0  0.34946  0.42359  0.94216  1.0000
  H   H1479     1.0  0.37158  0.26562  0.90531  1.0000
  C   C1239     1.0  0.34567  0.40582  0.92372  1.0000
  H   H1480     1.0  0.31169  0.45855  0.96472  1.0000
  C   C1240     1.0  0.38092  0.34163  0.95764  1.0000
  H   H1481     1.0  0.38179  0.15560  0.93040  1.0000
  H   H1482     1.0  0.36161  0.02547  0.75065  1.0000
  Fe  Fe144     1.0  0.29852  0.46180  0.93103  1.0000
  H   H1483     1.0  0.37995  0.06505  0.88940  1.0000
  H   H1484     1.0  0.37252  0.32576  0.95691  1.0000
  H   H1485     1.0  0.37316  0.03889  0.90744  1.0000
  C   C1241     1.0  0.38262  0.26597  0.97189  1.0000
  H   H1486     1.0  0.34736  0.42067  0.95098  1.0000
  C   C1242     1.0  0.36831  0.25775  0.98421  1.0000
  N   N86       1.0  0.38336  0.04729  0.89331  1.0000
  S   S319      1.0  0.33180  0.44024  0.94542  1.0000
  C   C1243     1.0  0.36306  0.33725  0.98411  1.0000
  H   H1487     1.0  0.36420  0.34385  0.94830  1.0000
  C   C1244     1.0  0.37828  0.04580  0.88516  1.0000
  C   C1245     1.0  0.37645  0.05398  0.87557  1.0000
  C   C1246     1.0  0.37496  0.03588  0.88672  1.0000
  H   H1488     1.0  0.23067  0.46884  0.97583  1.0000
  H   H1489     1.0  0.35642  0.40432  0.90812  1.0000
  H   H1490     1.0  0.37356  0.40564  0.95668  1.0000
  H   H1491     1.0  0.36389  0.36707  0.98308  1.0000
  C   C1247     1.0  0.37673  0.20702  0.98380  1.0000
  H   H1492     1.0  0.36801  0.05336  0.90329  1.0000
  C   C1248     1.0  0.38028  0.03265  0.74123  1.0000
  H   H1493     1.0  0.26775  0.44972  0.97768  1.0000
  H   H1494     1.0  0.38387  0.33835  0.95002  1.0000
  H   H1495     1.0  0.37401  0.19734  0.96324  1.0000
  C   C1249     1.0  0.37504  0.20331  0.96734  1.0000
  C   C1250     1.0  0.37615  0.39385  0.97161  1.0000
  H   H1496     1.0  0.36881  0.36073  0.96599  1.0000
  H   H1497     1.0  0.37600  0.02930  0.89383  1.0000
  H   H1498     1.0  0.38230  0.20651  0.96225  1.0000
  H   H1499     1.0  0.30899  0.44084  0.92953  1.0000
  H   H1500     1.0  0.38344  0.03951  0.80386  1.0000
  H   H1501     1.0  0.35373  0.34630  0.96023  1.0000
  H   H1502     1.0  0.37689  0.33561  0.93382  1.0000
  C   C1251     1.0  0.38608  0.18921  0.97858  1.0000
  C   C1252     1.0  0.37832  0.39215  0.98195  1.0000
  H   H1503     1.0  0.36913  0.21348  0.98422  1.0000
  Fe  Fe145     1.0  0.20717  0.48621  0.94554  1.0000
  H   H1504     1.0  0.32021  0.43588  0.98439  1.0000
  H   H1505     1.0  0.38603  0.01720  0.84292  1.0000
  C   C1253     1.0  0.33208  0.48604  0.96150  1.0000
  C   C1254     1.0  0.38600  0.34777  0.92395  1.0000
  C   C1255     1.0  0.32886  0.43370  0.98397  1.0000
  H   H1506     1.0  0.27206  0.47461  0.98419  1.0000
  H   H1507     1.0  0.38611  0.03911  0.82169  1.0000
  H   H1508     1.0  0.20818  0.55328  0.99010  1.0000
  S   S320      1.0  0.23538  0.54992  0.01982  1.0000
  H   H1509     1.0  0.36638  0.79806  0.00399  1.0000
  S   S321      1.0  0.20619  0.49352  0.03267  1.0000
  C   C1256     1.0  0.26782  0.51472  0.02222  1.0000
  Fe  Fe146     1.0  0.33082  0.58185  0.99441  1.0000
  S   S322      1.0  0.32551  0.59124  0.00764  1.0000
  C   C1257     1.0  0.34633  0.88737  0.03462  1.0000
  Fe  Fe147     1.0  0.34228  0.56141  0.00840  1.0000
  S   S323      1.0  0.33843  0.56946  0.02272  1.0000
  S   S324      1.0  0.35081  0.54361  0.00913  1.0000
  Fe  Fe148     1.0  0.32188  0.57550  0.01884  1.0000
  S   S325      1.0  0.30647  0.57340  0.03139  1.0000
  Fe  Fe149     1.0  0.34252  0.58457  0.01014  1.0000
  S   S326      1.0  0.35145  0.59814  0.00713  1.0000
  S   S327      1.0  0.32563  0.56669  0.00525  1.0000
  S   S328      1.0  0.34797  0.57579  0.99620  1.0000
  H   H1510     1.0  0.34410  0.65697  0.03072  1.0000
  H   H1511     1.0  0.37023  0.87433  0.01837  1.0000
  S   S329      1.0  0.32728  0.51454  0.99558  1.0000
  S   S330      1.0  0.21716  0.50299  0.05212  1.0000
  Fe  Fe150     1.0  0.25723  0.56691  0.01458  1.0000
  S   S331      1.0  0.26165  0.54921  0.01376  1.0000
  S   S332      1.0  0.26960  0.57735  0.00731  1.0000
  Fe  Fe151     1.0  0.24840  0.54716  0.02889  1.0000
  S   S333      1.0  0.25033  0.53297  0.04326  1.0000
  C   C1258     1.0  0.38011  0.97122  0.21707  1.0000
  S   S334      1.0  0.24507  0.56459  0.03063  1.0000
  C   C1259     1.0  0.37475  0.67299  0.99479  1.0000
  H   H1512     1.0  0.30394  0.53701  0.99279  1.0000
  S   S335      1.0  0.37884  0.64476  0.01268  1.0000
  H   H1513     1.0  0.19367  0.49672  0.06497  1.0000
  C   C1260     1.0  0.37723  0.57426  0.99970  1.0000
  S   S336      1.0  0.29077  0.48847  0.02998  1.0000
  C   C1261     1.0  0.36477  0.64020  0.04221  1.0000
  H   H1514     1.0  0.23188  0.49780  0.99670  1.0000
  S   S337      1.0  0.37646  0.66691  0.02699  1.0000
  H   H1515     1.0  0.33024  0.90531  0.01797  1.0000
  H   H1516     1.0  0.35940  0.89112  0.01476  1.0000
  H   H1517     1.0  0.37948  0.84986  0.99799  1.0000
  Fe  Fe152     1.0  0.21683  0.49698  0.01598  1.0000
  H   H1518     1.0  0.37236  0.78892  0.99490  1.0000
  S   S338      1.0  0.36626  0.82130  0.03758  1.0000
  H   H1519     1.0  0.25709  0.53083  0.00879  1.0000
  C   C1262     1.0  0.20770  0.53415  0.98642  1.0000
  S   S339      1.0  0.37250  0.82705  0.01075  1.0000
  C   C1263     1.0  0.27797  0.53393  0.03943  1.0000
  S   S340      1.0  0.38051  0.93381  0.03881  1.0000
  S   S341      1.0  0.36871  0.85243  0.02136  1.0000
  Fe  Fe153     1.0  0.36682  0.81338  0.02409  1.0000
  S   S342      1.0  0.35301  0.80676  0.02346  1.0000
  C   C1264     1.0  0.30378  0.54782  0.01634  1.0000
  C   C1265     1.0  0.19947  0.56652  0.00988  1.0000
  Fe  Fe154     1.0  0.37029  0.74608  0.02263  1.0000
  C   C1266     1.0  0.27934  0.52259  0.00533  1.0000
  S   S343      1.0  0.35528  0.75585  0.03164  1.0000
  H   H1520     1.0  0.33523  0.64165  0.05936  1.0000
  H   H1521     1.0  0.19902  0.52376  0.04924  1.0000
  H   H1522     1.0  0.34649  0.85991  0.04459  1.0000
  H   H1523     1.0  0.30246  0.54418  0.01017  1.0000
  H   H1524     1.0  0.23402  0.56738  0.99114  1.0000
  C   C1267     1.0  0.37045  0.70528  0.00021  1.0000
  H   H1525     1.0  0.38144  0.77570  0.04234  1.0000
  H   H1526     1.0  0.30001  0.55091  0.03678  1.0000
  S   S344      1.0  0.37046  0.73131  0.01666  1.0000
  H   H1527     1.0  0.28479  0.54800  0.03409  1.0000
  C   C1268     1.0  0.34763  0.80611  0.99667  1.0000
  N   N87       1.0  0.30617  0.53928  0.02617  1.0000
  C   C1269     1.0  0.20993  0.54020  0.04562  1.0000
  H   H1528     1.0  0.28997  0.58346  0.99963  1.0000
  S   S345      1.0  0.38336  0.98257  0.17781  1.0000
  H   H1529     1.0  0.21304  0.53150  0.04643  1.0000
  H   H1530     1.0  0.31929  0.52555  0.02978  1.0000
  H   H1531     1.0  0.38127  0.98511  0.20385  1.0000
  H   H1532     1.0  0.32335  0.53670  0.01927  1.0000
  C   C1270     1.0  0.34630  0.90682  0.02515  1.0000
  C   C1271     1.0  0.38172  0.93536  0.05144  1.0000
  C   C1272     1.0  0.38054  0.98223  0.21264  1.0000
  H   H1533     1.0  0.30559  0.51964  0.00684  1.0000
  N   N88       1.0  0.19486  0.53924  0.03786  1.0000
  H   H1534     1.0  0.34284  0.81207  0.99085  1.0000
  H   H1535     1.0  0.18998  0.56193  0.03760  1.0000
  H   H1536     1.0  0.37805  0.66451  0.99338  1.0000
  H   H1537     1.0  0.34299  0.60517  0.98630  1.0000
  C   C1273     1.0  0.27365  0.50610  0.00668  1.0000
  C   C1274     1.0  0.21219  0.55730  0.04760  1.0000
  H   H1538     1.0  0.35732  0.65936  0.02906  1.0000
  C   C1275     1.0  0.38324  0.93861  0.07147  1.0000
  H   H1539     1.0  0.37050  0.62376  0.01060  1.0000
  H   H1540     1.0  0.35679  0.76455  0.00196  1.0000
  H   H1541     1.0  0.34952  0.89978  0.00734  1.0000
  C   C1276     1.0  0.37574  0.69212  0.98826  1.0000
  C   C1277     1.0  0.37258  0.85869  0.02956  1.0000
  C   C1278     1.0  0.29869  0.52191  0.03210  1.0000
  C   C1279     1.0  0.26015  0.52277  0.00641  1.0000
  H   H1542     1.0  0.36371  0.81663  0.99732  1.0000
  H   H1543     1.0  0.38310  0.91832  0.05955  1.0000
  C   C1280     1.0  0.36633  0.71357  0.99205  1.0000
  S   S346      1.0  0.37253  0.90734  0.03457  1.0000
  C   C1281     1.0  0.38147  0.94586  0.05256  1.0000
  H   H1544     1.0  0.28115  0.50097  0.00928  1.0000
  H   H1545     1.0  0.33073  0.76549  0.98800  1.0000
  H   H1546     1.0  0.26790  0.49062  0.03876  1.0000
  H   H1547     1.0  0.38038  0.95284  0.04578  1.0000
  H   H1548     1.0  0.26993  0.53858  0.04232  1.0000
  S   S347      1.0  0.38572  0.73845  0.02853  1.0000
  H   H1549     1.0  0.32510  0.62769  0.06252  1.0000
  H   H1550     1.0  0.37024  0.70712  0.00791  1.0000
  C   C1282     1.0  0.35412  0.79244  0.02649  1.0000
  C   C1283     1.0  0.34464  0.78855  0.02900  1.0000
  C   C1284     1.0  0.34512  0.77732  0.03076  1.0000
  C   C1285     1.0  0.35510  0.76985  0.02967  1.0000
  C   C1286     1.0  0.36467  0.77369  0.02700  1.0000
  C   C1287     1.0  0.36416  0.78496  0.02562  1.0000
  H   H1551     1.0  0.33686  0.79426  0.02967  1.0000
  H   H1552     1.0  0.33772  0.77441  0.03285  1.0000
  H   H1553     1.0  0.37241  0.76797  0.02607  1.0000
  H   H1554     1.0  0.37153  0.78788  0.02345  1.0000
  C   C1288     1.0  0.19183  0.52998  0.04692  1.0000
  H   H1555     1.0  0.27297  0.51858  0.04423  1.0000
  H   H1556     1.0  0.20881  0.52981  0.99481  1.0000
  H   H1557     1.0  0.33773  0.76434  0.00418  1.0000
  C   C1289     1.0  0.30733  0.54465  0.03433  1.0000
  H   H1558     1.0  0.26591  0.52253  0.02503  1.0000
  C   C1290     1.0  0.29710  0.53310  0.99631  1.0000
  Fe  Fe155     1.0  0.22032  0.49451  0.03836  1.0000
  H   H1559     1.0  0.32712  0.90049  0.03268  1.0000
  S   S348      1.0  0.20947  0.50801  0.00227  1.0000
  C   C1291     1.0  0.34302  0.76509  0.99606  1.0000
  C   C1292     1.0  0.37503  0.68810  0.02777  1.0000
  Fe  Fe156     1.0  0.38408  0.91728  0.03453  1.0000
  C   C1293     1.0  0.35086  0.86985  0.05263  1.0000
  H   H1560     1.0  0.34830  0.81061  0.00248  1.0000
  S   S349      1.0  0.31255  0.49141  0.00231  1.0000
  H   H1561     1.0  0.36636  0.68891  0.02947  1.0000
  H   H1562     1.0  0.37373  0.70478  0.02868  1.0000
  H   H1563     1.0  0.27458  0.50908  0.02584  1.0000
  C   C1294     1.0  0.37918  0.69713  0.02726  1.0000
  H   H1564     1.0  0.34121  0.91011  0.03243  1.0000
  Fe  Fe157     1.0  0.38184  0.90659  0.01736  1.0000
  C   C1295     1.0  0.20044  0.54553  0.04153  1.0000
  H   H1565     1.0  0.19823  0.53024  0.02517  1.0000
  H   H1566     1.0  0.38208  0.95561  0.06330  1.0000
  H   H1567     1.0  0.26118  0.52416  0.99736  1.0000
  H   H1568     1.0  0.21686  0.56188  0.04955  1.0000
  H   H1569     1.0  0.37830  0.68859  0.00488  1.0000
  H   H1570     1.0  0.34227  0.87483  0.02920  1.0000
  C   C1296     1.0  0.22679  0.51091  0.04953  1.0000
  C   C1297     1.0  0.23016  0.51222  0.05828  1.0000
  C   C1298     1.0  0.23765  0.51876  0.05628  1.0000
  C   C1299     1.0  0.24155  0.52424  0.04556  1.0000
  C   C1300     1.0  0.23816  0.52295  0.03682  1.0000
  C   C1301     1.0  0.23080  0.51630  0.03881  1.0000
  H   H1571     1.0  0.22706  0.50812  0.06660  1.0000
  H   H1572     1.0  0.24025  0.51975  0.06307  1.0000
  H   H1573     1.0  0.24125  0.52703  0.02852  1.0000
  H   H1574     1.0  0.22790  0.51575  0.03208  1.0000
  C   C1302     1.0  0.35832  0.60257  0.01439  1.0000
  C   C1303     1.0  0.36095  0.59640  0.02436  1.0000
  C   C1304     1.0  0.36706  0.60012  0.02934  1.0000
  C   C1305     1.0  0.37066  0.60994  0.02434  1.0000
  C   C1306     1.0  0.36790  0.61613  0.01446  1.0000
  C   C1307     1.0  0.36172  0.61249  0.00956  1.0000
  H   H1575     1.0  0.35836  0.58875  0.02817  1.0000
  H   H1576     1.0  0.36908  0.59533  0.03705  1.0000
  H   H1577     1.0  0.34165  0.61845  0.98856  1.0000
  H   H1578     1.0  0.35968  0.61733  0.00187  1.0000
  C   C1308     1.0  0.34431  0.53549  0.00535  1.0000
  C   C1309     1.0  0.34608  0.52412  0.00966  1.0000
  C   C1310     1.0  0.34084  0.51757  0.00683  1.0000
  C   C1311     1.0  0.33403  0.52233  0.99942  1.0000
  C   C1312     1.0  0.33237  0.53367  0.99501  1.0000
  C   C1313     1.0  0.33737  0.54023  0.99807  1.0000
  H   H1579     1.0  0.35142  0.52038  0.01531  1.0000
  H   H1580     1.0  0.34216  0.50883  0.01029  1.0000
  C   C1314     1.0  0.36453  0.79353  0.99891  1.0000
  H   H1581     1.0  0.33594  0.54893  0.99468  1.0000
  C   C1315     1.0  0.29592  0.57490  0.02493  1.0000
  C   C1316     1.0  0.29716  0.57925  0.01363  1.0000
  C   C1317     1.0  0.28898  0.57998  0.00836  1.0000
  C   C1318     1.0  0.27959  0.57623  0.01431  1.0000
  C   C1319     1.0  0.27829  0.57188  0.02563  1.0000
  C   C1320     1.0  0.28641  0.57136  0.03096  1.0000
  H   H1582     1.0  0.30434  0.58224  0.00897  1.0000
  C   C1321     1.0  0.38493  0.85247  0.98991  1.0000
  H   H1583     1.0  0.27097  0.56913  0.03029  1.0000
  H   H1584     1.0  0.28535  0.56814  0.03974  1.0000
  S   S350      1.0  0.21684  0.57896  0.02301  1.0000
  Fe  Fe158     1.0  0.23302  0.56748  0.02032  1.0000
  H   H1585     1.0  0.26729  0.50121  0.01034  1.0000
  C   C1322     1.0  0.35221  0.88023  0.05212  1.0000
  H   H1586     1.0  0.29130  0.50787  0.03767  1.0000
  H   H1587     1.0  0.34572  0.61614  0.03422  1.0000
  H   H1588     1.0  0.35295  0.86307  0.05930  1.0000
  C   C1323     1.0  0.35264  0.65286  0.03114  1.0000
  H   H1589     1.0  0.34886  0.88576  0.01337  1.0000
  H   H1590     1.0  0.27531  0.50727  0.99761  1.0000
  C   C1324     1.0  0.34683  0.63730  0.04455  1.0000
  H   H1591     1.0  0.35479  0.65904  0.04805  1.0000
  H   H1592     1.0  0.37477  0.88407  0.02965  1.0000
  C   C1325     1.0  0.19111  0.57562  0.00762  1.0000
  C   C1326     1.0  0.20716  0.57740  0.01696  1.0000
  H   H1593     1.0  0.19978  0.55890  0.00791  1.0000
  N   N89       1.0  0.35329  0.64568  0.04215  1.0000
  C   C1327     1.0  0.38202  0.67807  0.02614  1.0000
  N   N90       1.0  0.34399  0.89631  0.02505  1.0000
  C   C1328     1.0  0.21615  0.54768  0.98783  1.0000
  C   C1329     1.0  0.37511  0.69471  0.99836  1.0000
  C   C1330     1.0  0.20275  0.56276  0.04389  1.0000
  H   H1594     1.0  0.18650  0.55267  0.02698  1.0000
  H   H1595     1.0  0.37901  0.95837  0.23173  1.0000
  C   C1331     1.0  0.21574  0.54602  0.04854  1.0000
  Fe  Fe159     1.0  0.32551  0.49751  0.00545  1.0000
  H   H1596     1.0  0.33016  0.61485  0.05010  1.0000
  H   H1597     1.0  0.22314  0.54180  0.05137  1.0000
  C   C1332     1.0  0.37911  0.96697  0.22832  1.0000
  H   H1598     1.0  0.30645  0.51674  0.02945  1.0000
  Fe  Fe160     1.0  0.37931  0.74005  0.00077  1.0000
  C   C1333     1.0  0.33239  0.89840  0.02486  1.0000
  Fe  Fe161     1.0  0.37368  0.83400  0.02421  1.0000
  C   C1334     1.0  0.27968  0.52266  0.04050  1.0000
  H   H1599     1.0  0.35597  0.64823  0.02449  1.0000
  S   S351      1.0  0.32032  0.49250  0.02378  1.0000
  C   C1335     1.0  0.28740  0.53774  0.99286  1.0000
  C   C1336     1.0  0.29001  0.51667  0.03681  1.0000
  H   H1600     1.0  0.37517  0.67260  0.00332  1.0000
  H   H1601     1.0  0.36850  0.63549  0.03568  1.0000
  H   H1602     1.0  0.37550  0.56717  0.99782  1.0000
  N   N91       1.0  0.38080  0.68086  0.98653  1.0000
  C   C1337     1.0  0.33191  0.62832  0.05555  1.0000
  H   H1603     1.0  0.29643  0.55425  0.01836  1.0000
  H   H1604     1.0  0.31408  0.54909  0.03102  1.0000
  H   H1605     1.0  0.36557  0.63429  0.05016  1.0000
  C   C1338     1.0  0.36615  0.81717  0.98854  1.0000
  H   H1606     1.0  0.19828  0.59402  0.01684  1.0000
  S   S352      1.0  0.23028  0.49968  0.02147  1.0000
  C   C1339     1.0  0.34999  0.88890  0.04328  1.0000
  H   H1607     1.0  0.29059  0.51043  0.01459  1.0000
  H   H1608     1.0  0.31048  0.55221  0.01229  1.0000
  S   S353      1.0  0.37885  0.96835  0.09438  1.0000
  C   C1340     1.0  0.37903  0.98475  0.23085  1.0000
  H   H1609     1.0  0.35620  0.62996  0.03061  1.0000
  H   H1610     1.0  0.20956  0.52876  0.03083  1.0000
  H   H1611     1.0  0.36003  0.78733  0.00465  1.0000
  H   H1612     1.0  0.34283  0.79993  0.00183  1.0000
  C   C1341     1.0  0.34721  0.86809  0.04434  1.0000
  C   C1342     1.0  0.34492  0.87670  0.03549  1.0000
  C   C1343     1.0  0.33473  0.62108  0.04857  1.0000
  H   H1613     1.0  0.33023  0.89115  0.02380  1.0000
  C   C1344     1.0  0.38355  0.92809  0.07035  1.0000
  S   S354      1.0  0.38374  0.94041  0.08426  1.0000
  H   H1614     1.0  0.26073  0.51082  0.02605  1.0000
  H   H1615     1.0  0.38064  0.96592  0.21172  1.0000
  H   H1616     1.0  0.21845  0.54263  0.99561  1.0000
  H   H1617     1.0  0.36953  0.57828  0.00468  1.0000
  N   N92       1.0  0.38119  0.58206  0.98951  1.0000
  C   C1345     1.0  0.31680  0.53203  0.02273  1.0000
  S   S355      1.0  0.37823  0.61448  0.03080  1.0000
  H   H1618     1.0  0.22687  0.52456  0.99446  1.0000
  H   H1619     1.0  0.36302  0.72184  0.99339  1.0000
  H   H1620     1.0  0.27141  0.53658  0.99415  1.0000
  Fe  Fe162     1.0  0.24828  0.55360  0.00478  1.0000
  C   C1346     1.0  0.29721  0.53341  0.03098  1.0000
  H   H1621     1.0  0.28668  0.54540  0.98674  1.0000
  H   H1622     1.0  0.34476  0.91329  0.01772  1.0000
  H   H1623     1.0  0.25356  0.51816  0.01025  1.0000
  H   H1624     1.0  0.18995  0.50352  0.01823  1.0000
  C   C1347     1.0  0.29804  0.52331  0.00420  1.0000
  H   H1625     1.0  0.38529  0.63062  0.99564  1.0000
  H   H1626     1.0  0.34121  0.65762  0.05030  1.0000
  C   C1348     1.0  0.37546  0.85291  0.03953  1.0000
  N   N93       1.0  0.27034  0.51675  0.01003  1.0000
  C   C1349     1.0  0.20760  0.56746  0.01443  1.0000
  H   H1627     1.0  0.35499  0.90581  0.02506  1.0000
  S   S356      1.0  0.37792  0.75528  0.00628  1.0000
  H   H1628     1.0  0.31206  0.57783  0.99003  1.0000
  S   S357      1.0  0.24480  0.57142  0.00449  1.0000
  H   H1629     1.0  0.31668  0.52805  0.01624  1.0000
  H   H1630     1.0  0.37840  0.61696  0.99121  1.0000
  C   C1350     1.0  0.19696  0.55705  0.04081  1.0000
  C   C1351     1.0  0.28656  0.53925  0.03472  1.0000
  H   H1631     1.0  0.36986  0.64622  0.04083  1.0000
  H   H1632     1.0  0.35541  0.88145  0.05841  1.0000
  C   C1352     1.0  0.37815  0.85844  0.04596  1.0000
  H   H1633     1.0  0.21407  0.56048  0.01615  1.0000
  C   C1353     1.0  0.28935  0.51811  0.00862  1.0000
  C   C1354     1.0  0.19867  0.58635  0.01488  1.0000
  C   C1355     1.0  0.34347  0.62182  0.03962  1.0000
  C   C1356     1.0  0.37247  0.86989  0.02604  1.0000
  C   C1357     1.0  0.33784  0.63634  0.05362  1.0000
  H   H1634     1.0  0.30893  0.53855  0.04196  1.0000
  C   C1358     1.0  0.34967  0.65287  0.05018  1.0000
  H   H1635     1.0  0.35030  0.64805  0.05862  1.0000
  S   S358      1.0  0.37266  0.90627  0.00532  1.0000
  C   C1359     1.0  0.34943  0.62979  0.03762  1.0000
  C   C1360     1.0  0.37823  0.86964  0.04227  1.0000
  C   C1361     1.0  0.19079  0.58552  0.01006  1.0000
  H   H1636     1.0  0.24427  0.51212  0.98989  1.0000
  H   H1637     1.0  0.20511  0.54137  0.02166  1.0000
  H   H1638     1.0  0.35148  0.89663  0.04332  1.0000
  H   H1639     1.0  0.37132  0.98547  0.12566  1.0000
  C   C1362     1.0  0.35066  0.89307  0.01471  1.0000
  H   H1640     1.0  0.37193  0.89653  0.98829  1.0000
  S   S359      1.0  0.25074  0.54749  0.98954  1.0000
  H   H1641     1.0  0.37051  0.54723  0.99163  1.0000
  H   H1642     1.0  0.36470  0.59004  0.98839  1.0000
  C   C1363     1.0  0.37525  0.87535  0.03235  1.0000
  Fe  Fe163     1.0  0.38542  0.89263  0.03922  1.0000
  C   C1364     1.0  0.35382  0.76521  0.99477  1.0000
  H   H1643     1.0  0.36637  0.98273  0.11558  1.0000
  C   C1365     1.0  0.20225  0.53471  0.02846  1.0000
  C   C1366     1.0  0.27865  0.53255  0.99720  1.0000
  C   C1367     1.0  0.22823  0.49844  0.99001  1.0000
  H   H1644     1.0  0.32710  0.53742  0.98930  1.0000
  C   C1368     1.0  0.33912  0.76572  0.98694  1.0000
  N   N94       1.0  0.35837  0.80091  0.99072  1.0000
  S   S360      1.0  0.38211  0.87653  0.04995  1.0000
  H   H1645     1.0  0.18685  0.53298  0.05440  1.0000
  H   H1646     1.0  0.20018  0.57160  0.04293  1.0000
  C   C1369     1.0  0.38097  0.90581  0.99225  1.0000
  H   H1647     1.0  0.35175  0.78787  0.98985  1.0000
  H   H1648     1.0  0.18708  0.52549  0.04456  1.0000
  C   C1370     1.0  0.38529  0.63112  0.98721  1.0000
  H   H1649     1.0  0.19852  0.49120  0.00703  1.0000
  H   H1650     1.0  0.19931  0.53917  0.98752  1.0000
  H   H1651     1.0  0.38022  0.85403  0.05375  1.0000
  H   H1652     1.0  0.18840  0.50725  0.99921  1.0000
  H   H1653     1.0  0.26856  0.57078  0.98885  1.0000
  H   H1654     1.0  0.37540  0.59567  0.99760  1.0000
  C   C1371     1.0  0.38296  0.92643  0.06031  1.0000
  C   C1372     1.0  0.38300  0.59127  0.99289  1.0000
  C   C1373     1.0  0.21727  0.50329  0.99055  1.0000
  H   H1655     1.0  0.37543  0.84426  0.04237  1.0000
  H   H1656     1.0  0.36606  0.67527  0.99441  1.0000
  C   C1374     1.0  0.38320  0.87036  0.99267  1.0000
  H   H1657     1.0  0.37718  0.86880  0.00058  1.0000
  S   S361      1.0  0.38341  0.80301  0.02407  1.0000
  H   H1658     1.0  0.38413  0.92122  0.07732  1.0000
  H   H1659     1.0  0.38309  0.57121  0.00517  1.0000
  C   C1375     1.0  0.37882  0.90033  0.98548  1.0000
  C   C1376     1.0  0.23114  0.52560  0.98594  1.0000
  C   C1377     1.0  0.38242  0.94746  0.06248  1.0000
  H   H1660     1.0  0.25579  0.58942  0.98971  1.0000
  Fe  Fe164     1.0  0.38343  0.81175  0.03661  1.0000
  H   H1661     1.0  0.38603  0.59753  0.98578  1.0000
  H   H1662     1.0  0.37853  0.87403  0.98609  1.0000
  H   H1663     1.0  0.37246  0.83151  0.98592  1.0000
  H   H1664     1.0  0.38165  0.98709  0.10176  1.0000
  Fe  Fe165     1.0  0.32772  0.97292  0.42544  1.0000
  Fe  Fe166     1.0  0.31366  0.97475  0.44820  1.0000
  S   S362      1.0  0.34401  0.96293  0.41819  1.0000
  H   H1665     1.0  0.29333  0.97672  0.48256  1.0000
  C   C1378     1.0  0.35488  0.95200  0.47164  1.0000
  C   C1379     1.0  0.24551  0.97459  0.47450  1.0000
  Fe  Fe167     1.0  0.30287  0.98059  0.42894  1.0000
  C   C1380     1.0  0.33666  0.94322  0.47604  1.0000
  C   C1381     1.0  0.33785  0.95344  0.44747  1.0000
  C   C1382     1.0  0.34871  0.93507  0.45053  1.0000
  C   C1383     1.0  0.37003  0.96835  0.39314  1.0000
  Fe  Fe168     1.0  0.23170  0.97337  0.44393  1.0000
  C   C1384     1.0  0.34277  0.94523  0.46503  1.0000
  S   S363      1.0  0.24722  0.96131  0.44680  1.0000
  Fe  Fe169     1.0  0.20676  0.97938  0.44870  1.0000
  H   H1666     1.0  0.35069  0.92728  0.45660  1.0000
  S   S364      1.0  0.19033  0.97518  0.45593  1.0000
  H   H1667     1.0  0.37795  0.97030  0.24392  1.0000
  H   H1668     1.0  0.24178  0.93699  0.48394  1.0000
  C   C1385     1.0  0.32980  0.93869  0.45910  1.0000
  S   S365      1.0  0.21950  0.97535  0.43387  1.0000
  H   H1669     1.0  0.36620  0.95559  0.40744  1.0000
  H   H1670     1.0  0.32972  0.97711  0.46018  1.0000
  C   C1386     1.0  0.35202  0.94964  0.46311  1.0000
  H   H1671     1.0  0.34032  0.98374  0.40239  1.0000
  H   H1672     1.0  0.35622  0.93826  0.44681  1.0000
  H   H1673     1.0  0.33519  0.95227  0.44054  1.0000
  S   S366      1.0  0.37435  0.98518  0.37491  1.0000
  C   C1387     1.0  0.18718  0.96171  0.44462  1.0000
  H   H1674     1.0  0.21381  0.95198  0.47925  1.0000
  C   C1388     1.0  0.20416  0.98650  0.40619  1.0000
  H   H1675     1.0  0.25055  0.96760  0.47122  1.0000
  H   H1676     1.0  0.34657  0.93311  0.44369  1.0000
  H   H1677     1.0  0.19517  0.95688  0.44538  1.0000
  S   S367      1.0  0.28795  0.98278  0.42248  1.0000
  S   S368      1.0  0.38590  0.97124  0.26635  1.0000
  C   C1389     1.0  0.34870  0.94995  0.48232  1.0000
  H   H1678     1.0  0.19136  0.97016  0.41788  1.0000
  H   H1679     1.0  0.26818  0.98460  0.41669  1.0000
  C   C1390     1.0  0.25898  0.97437  0.42990  1.0000
  C   C1391     1.0  0.25880  0.96687  0.44001  1.0000
  C   C1392     1.0  0.26789  0.96388  0.44470  1.0000
  C   C1393     1.0  0.27697  0.96860  0.43943  1.0000
  C   C1394     1.0  0.26975  0.98335  0.46021  1.0000
  H   H1680     1.0  0.34518  0.95689  0.44362  1.0000
  H   H1681     1.0  0.26784  0.95804  0.45249  1.0000
  H   H1682     1.0  0.28386  0.96642  0.44317  1.0000
  C   C1395     1.0  0.34859  0.97944  0.39991  1.0000
  C   C1396     1.0  0.35244  0.96914  0.40616  1.0000
  S   S369      1.0  0.31382  0.96521  0.43614  1.0000
  C   C1397     1.0  0.27707  0.97617  0.42934  1.0000
  H   H1683     1.0  0.25892  0.98644  0.44978  1.0000
  H   H1684     1.0  0.35699  0.95149  0.45494  1.0000
  H   H1685     1.0  0.32934  0.94017  0.47830  1.0000
  C   C1398     1.0  0.31898  0.96926  0.47402  1.0000
  H   H1686     1.0  0.32265  0.94458  0.46270  1.0000
  S   S370      1.0  0.32823  0.98132  0.43810  1.0000
  H   H1687     1.0  0.22645  0.95194  0.46969  1.0000
  H   H1688     1.0  0.22379  0.93922  0.47841  1.0000
  C   C1399     1.0  0.26812  0.97887  0.42455  1.0000
  C   C1400     1.0  0.22260  0.94808  0.47819  1.0000
  C   C1401     1.0  0.36318  0.96360  0.40271  1.0000
  H   H1689     1.0  0.33145  0.95975  0.45125  1.0000
  H   H1690     1.0  0.25214  0.97658  0.42610  1.0000
  S   S371      1.0  0.31127  0.96673  0.46629  1.0000
  S   S372      1.0  0.21882  0.97544  0.45916  1.0000
  H   H1691     1.0  0.19554  0.98018  0.42737  1.0000
  C   C1402     1.0  0.36612  0.97863  0.38687  1.0000
  H   H1692     1.0  0.22753  0.96638  0.47818  1.0000
  H   H1693     1.0  0.32771  0.93730  0.45193  1.0000
  H   H1694     1.0  0.33072  0.93069  0.46513  1.0000
  H   H1695     1.0  0.23874  0.98205  0.46019  1.0000
  C   C1403     1.0  0.32757  0.97457  0.46900  1.0000
  H   H1696     1.0  0.34042  0.98018  0.47151  1.0000
  C   C1404     1.0  0.33356  0.97643  0.47544  1.0000
  N   N95       1.0  0.33978  0.94309  0.45578  1.0000
  C   C1405     1.0  0.23873  0.98278  0.46827  1.0000
  H   H1697     1.0  0.20636  0.97750  0.40945  1.0000
  H   H1698     1.0  0.37827  0.96403  0.39058  1.0000
  H   H1699     1.0  0.24244  0.94997  0.47439  1.0000
  C   C1406     1.0  0.23931  0.94604  0.48312  1.0000
  H   H1700     1.0  0.28088  0.98226  0.46992  1.0000
  C   C1407     1.0  0.35536  0.98409  0.39027  1.0000
  C   C1408     1.0  0.37855  0.97372  0.23518  1.0000
  H   H1701     1.0  0.26994  0.97463  0.46256  1.0000
  H   H1702     1.0  0.36181  0.95562  0.46995  1.0000
  C   C1409     1.0  0.33967  0.94551  0.48452  1.0000
  N   N96       1.0  0.31445  0.93884  0.56244  1.0000
  N   N97       1.0  0.36353  0.95241  0.70883  1.0000
  H   H1703     1.0  0.21576  0.96460  0.48897  1.0000
  Fe  Fe170     1.0  0.32948  0.97351  0.51282  1.0000
  S   S373      1.0  0.32961  0.95727  0.52467  1.0000
  S   S374      1.0  0.33806  0.97601  0.49493  1.0000
  H   H1704     1.0  0.37527  0.93718  0.70698  1.0000
  S   S375      1.0  0.31274  0.97081  0.54307  1.0000
  C   C1410     1.0  0.19378  0.96353  0.50974  1.0000
  Fe  Fe171     1.0  0.33077  0.96560  0.53721  1.0000
  S   S376      1.0  0.34201  0.95666  0.54886  1.0000
  Fe  Fe172     1.0  0.31170  0.96363  0.52964  1.0000
  S   S377      1.0  0.30142  0.95198  0.53089  1.0000
  H   H1705     1.0  0.22763  0.93808  0.52397  1.0000
  S   S378      1.0  0.31146  0.97928  0.51685  1.0000
  Fe  Fe173     1.0  0.22738  0.98503  0.52036  1.0000
  Fe  Fe174     1.0  0.22194  0.96251  0.52956  1.0000
  S   S379      1.0  0.22416  0.97322  0.51276  1.0000
  S   S380      1.0  0.20746  0.95465  0.53627  1.0000
  Fe  Fe175     1.0  0.24123  0.96713  0.53448  1.0000
  S   S381      1.0  0.24518  0.97811  0.51803  1.0000
  S   S382      1.0  0.25076  0.96716  0.54638  1.0000
  C   C1411     1.0  0.38155  0.97704  0.71523  1.0000
  H   H1706     1.0  0.26959  0.97253  0.51899  1.0000
  Fe  Fe176     1.0  0.24183  0.96570  0.51133  1.0000
  S   S383      1.0  0.25105  0.96370  0.49433  1.0000
  S   S384      1.0  0.22354  0.97511  0.53748  1.0000
  S   S385      1.0  0.23953  0.95369  0.52767  1.0000
  C   C1412     1.0  0.38034  0.98074  0.72474  1.0000
  C   C1413     1.0  0.20439  0.98500  0.55990  1.0000
  C   C1414     1.0  0.36402  0.95239  0.72009  1.0000
  S   S386      1.0  0.37412  0.96035  0.59630  1.0000
  Fe  Fe177     1.0  0.36719  0.97713  0.58691  1.0000
  N   N98       1.0  0.27971  0.97685  0.50291  1.0000
  Fe  Fe178     1.0  0.36771  0.96780  0.61118  1.0000
  S   S387      1.0  0.35894  0.95893  0.62721  1.0000
  H   H1707     1.0  0.21140  0.97887  0.56206  1.0000
  C   C1415     1.0  0.27184  0.97552  0.49742  1.0000
  C   C1416     1.0  0.36724  0.95745  0.65956  1.0000
  H   H1708     1.0  0.30276  0.95711  0.57174  1.0000
  H   H1709     1.0  0.29867  0.93307  0.55658  1.0000
  H   H1710     1.0  0.31721  0.94739  0.54556  1.0000
  H   H1711     1.0  0.35405  0.94711  0.70105  1.0000
  H   H1712     1.0  0.36158  0.96335  0.69320  1.0000
  H   H1713     1.0  0.26721  0.96922  0.50267  1.0000
  C   C1417     1.0  0.29804  0.95325  0.56900  1.0000
  C   C1418     1.0  0.36242  0.95847  0.63946  1.0000
  C   C1419     1.0  0.20131  0.96107  0.51634  1.0000
  C   C1420     1.0  0.36152  0.95020  0.65886  1.0000
  H   H1714     1.0  0.38091  0.94903  0.70380  1.0000
  C   C1421     1.0  0.35904  0.95078  0.64888  1.0000
  C   C1422     1.0  0.36821  0.96573  0.64009  1.0000
  H   H1715     1.0  0.22846  0.96333  0.49218  1.0000
  C   C1423     1.0  0.22399  0.93819  0.51741  1.0000
  H   H1716     1.0  0.26714  0.98676  0.51299  1.0000
  H   H1717     1.0  0.35894  0.94413  0.66605  1.0000
  C   C1424     1.0  0.36714  0.94235  0.72749  1.0000
  C   C1425     1.0  0.20975  0.93449  0.51170  1.0000
  S   S388      1.0  0.38255  0.98307  0.58346  1.0000
  H   H1718     1.0  0.32811  0.93616  0.54883  1.0000
  H   H1719     1.0  0.24377  0.94832  0.48791  1.0000
  H   H1720     1.0  0.31810  0.94418  0.57508  1.0000
  H   H1721     1.0  0.19629  0.96611  0.50092  1.0000
  H   H1722     1.0  0.27939  0.94142  0.55919  1.0000
  C   C1426     1.0  0.28023  0.95356  0.56701  1.0000
  H   H1723     1.0  0.32033  0.95306  0.56153  1.0000
  H   H1724     1.0  0.34675  0.95158  0.71357  1.0000
  H   H1725     1.0  0.37068  0.97182  0.63289  1.0000
  H   H1726     1.0  0.23839  0.98475  0.49741  1.0000
  H   H1727     1.0  0.29413  0.96707  0.50840  1.0000
  C   C1427     1.0  0.35470  0.94716  0.70942  1.0000
  N   N99       1.0  0.22737  0.94965  0.48658  1.0000
  C   C1428     1.0  0.23860  0.98423  0.48926  1.0000
  S   S389      1.0  0.36932  0.98464  0.67746  1.0000
  C   C1429     1.0  0.19397  0.98398  0.53379  1.0000
  C   C1430     1.0  0.37051  0.96530  0.65017  1.0000
  C   C1431     1.0  0.34563  0.96389  0.55651  1.0000
  C   C1432     1.0  0.35444  0.95895  0.56160  1.0000
  C   C1433     1.0  0.35770  0.96468  0.56742  1.0000
  C   C1434     1.0  0.35213  0.97538  0.56823  1.0000
  C   C1435     1.0  0.34310  0.98014  0.56345  1.0000
  C   C1436     1.0  0.33986  0.97444  0.55762  1.0000
  H   H1728     1.0  0.35890  0.95074  0.56086  1.0000
  H   H1729     1.0  0.36467  0.96090  0.57105  1.0000
  Fe  Fe179     1.0  0.31443  0.98586  0.52963  1.0000
  H   H1730     1.0  0.33288  0.97822  0.55400  1.0000
  C   C1437     1.0  0.22818  0.94308  0.50656  1.0000
  C   C1438     1.0  0.29567  0.93987  0.56065  1.0000
  C   C1439     1.0  0.30275  0.94404  0.56406  1.0000
  C   C1440     1.0  0.28738  0.95655  0.53496  1.0000
  C   C1441     1.0  0.28296  0.96560  0.53984  1.0000
  C   C1442     1.0  0.27169  0.96874  0.54349  1.0000
  C   C1443     1.0  0.26482  0.96312  0.54186  1.0000
  C   C1444     1.0  0.26924  0.95425  0.53673  1.0000
  C   C1445     1.0  0.28051  0.95085  0.53348  1.0000
  H   H1731     1.0  0.28824  0.96995  0.54111  1.0000
  H   H1732     1.0  0.26829  0.97552  0.54757  1.0000
  H   H1733     1.0  0.26397  0.94984  0.53552  1.0000
  H   H1734     1.0  0.28391  0.94381  0.52977  1.0000
  C   C1446     1.0  0.36150  0.96359  0.70173  1.0000
  H   H1735     1.0  0.37473  0.97108  0.65064  1.0000
  C   C1447     1.0  0.32220  0.96796  0.49194  1.0000
  H   H1736     1.0  0.27917  0.98015  0.51844  1.0000
  C   C1448     1.0  0.21479  0.93394  0.51999  1.0000
  H   H1737     1.0  0.27166  0.95729  0.56792  1.0000
  H   H1738     1.0  0.31213  0.92230  0.56582  1.0000
  H   H1739     1.0  0.32018  0.96522  0.50077  1.0000
  S   S390      1.0  0.35975  0.98401  0.60211  1.0000
  C   C1449     1.0  0.31913  0.93897  0.55061  1.0000
  H   H1740     1.0  0.35454  0.94518  0.64845  1.0000
  C   C1450     1.0  0.28694  0.95790  0.57042  1.0000
  C   C1451     1.0  0.27368  0.97923  0.51379  1.0000
  H   H1741     1.0  0.31223  0.92683  0.57761  1.0000
  H   H1742     1.0  0.20559  0.98175  0.50027  1.0000
  C   C1452     1.0  0.38406  0.97354  0.73386  1.0000
  C   C1453     1.0  0.19818  0.95764  0.52776  1.0000
  C   C1454     1.0  0.31592  0.92729  0.56871  1.0000
  S   S391      1.0  0.37021  0.95637  0.67227  1.0000
  C   C1455     1.0  0.28459  0.94456  0.56214  1.0000
  H   H1743     1.0  0.37427  0.94691  0.69446  1.0000
  C   C1456     1.0  0.32081  0.94438  0.56613  1.0000
  C   C1457     1.0  0.19422  0.98242  0.56346  1.0000
  H   H1744     1.0  0.20959  0.96155  0.51257  1.0000
  Fe  Fe180     1.0  0.37873  0.96887  0.67261  1.0000
  H   H1745     1.0  0.27583  0.97281  0.48959  1.0000
  H   H1746     1.0  0.32465  0.92319  0.56788  1.0000
  Fe  Fe181     1.0  0.38140  0.98143  0.68780  1.0000
  C   C1458     1.0  0.37393  0.94612  0.70332  1.0000
  H   H1747     1.0  0.19334  0.97434  0.56838  1.0000
  H   H1748     1.0  0.28352  0.96499  0.57409  1.0000
  H   H1749     1.0  0.28369  0.95973  0.51088  1.0000
  H   H1750     1.0  0.35341  0.96857  0.70484  1.0000
  H   H1751     1.0  0.32960  0.94041  0.56463  1.0000
  C   C1459     1.0  0.28762  0.96626  0.50495  1.0000
  H   H1752     1.0  0.35600  0.93848  0.71406  1.0000
  H   H1753     1.0  0.33474  0.94420  0.49280  1.0000
  H   H1754     1.0  0.36780  0.96806  0.70110  1.0000
  H   H1755     1.0  0.31592  0.93371  0.54745  1.0000
  H   H1756     1.0  0.20239  0.93146  0.51383  1.0000
  S   S392      1.0  0.37620  0.98612  0.70425  1.0000
  C   C1460     1.0  0.33074  0.97333  0.48693  1.0000
  H   H1757     1.0  0.19945  0.98219  0.53921  1.0000
  S   S393      1.0  0.38279  0.97312  0.60982  1.0000
  S   S394      1.0  0.33256  0.98121  0.52477  1.0000
  H   H1758     1.0  0.36899  0.93458  0.72516  1.0000
  C   C1461     1.0  0.31646  0.96579  0.48548  1.0000
  H   H1759     1.0  0.35899  0.97021  0.71910  1.0000
  C   C1462     1.0  0.18750  0.95643  0.53248  1.0000
  C   C1463     1.0  0.22331  0.94370  0.49787  1.0000
  C   C1464     1.0  0.21389  0.93930  0.50079  1.0000
  H   H1760     1.0  0.29151  0.96303  0.49740  1.0000
  H   H1761     1.0  0.26585  0.98335  0.49553  1.0000
  S   S395      1.0  0.35669  0.98350  0.57418  1.0000
  H   H1762     1.0  0.23501  0.94674  0.50511  1.0000
  C   C1465     1.0  0.28539  0.98553  0.49574  1.0000
  H   H1763     1.0  0.20941  0.93972  0.49486  1.0000
  C   C1466     1.0  0.36142  0.96216  0.72407  1.0000
  H   H1764     1.0  0.35073  0.95209  0.48887  1.0000
  H   H1765     1.0  0.35111  0.98284  0.64802  1.0000
  H   H1766     1.0  0.21134  0.93059  0.52849  1.0000
  C   C1467     1.0  0.22465  0.96150  0.48648  1.0000
  H   H1767     1.0  0.31007  0.96138  0.48939  1.0000
  C   C1468     1.0  0.36231  0.96184  0.73463  1.0000
  C   C1469     1.0  0.29213  0.98413  0.48537  1.0000
  C   C1470     1.0  0.24506  0.97509  0.48524  1.0000
  Fe  Fe182     1.0  0.30978  0.56770  0.92232  1.0000
  S   S396      1.0  0.30096  0.55788  0.93753  1.0000
  S   S397      1.0  0.30370  0.57742  0.90711  1.0000
  Fe  Fe183     1.0  0.33011  0.56301  0.93100  1.0000
  S   S398      1.0  0.32314  0.55260  0.94692  1.0000
  S   S399      1.0  0.34738  0.56512  0.92728  1.0000
  Fe  Fe184     1.0  0.31673  0.54549  0.93685  1.0000
  S   S400      1.0  0.31595  0.52772  0.94362  1.0000
  Fe  Fe185     1.0  0.30796  0.56557  0.94648  1.0000
  S   S401      1.0  0.29848  0.56978  0.96249  1.0000
  S   S402      1.0  0.32514  0.55463  0.92079  1.0000
  S   S403      1.0  0.31532  0.57672  0.93136  1.0000
  H   H1768     1.0  0.34292  0.50176  0.95437  1.0000
  H   H1769     1.0  0.34889  0.58121  0.96543  1.0000
  H   H1770     1.0  0.25791  0.49757  0.93084  1.0000
  H   H1771     1.0  0.37139  0.69958  0.97225  1.0000
  H   H1772     1.0  0.19521  0.58338  0.97764  1.0000
  H   H1773     1.0  0.25846  0.51544  0.91455  1.0000
  C   C1471     1.0  0.35594  0.64292  0.96628  1.0000
  N   N100      1.0  0.22520  0.60009  0.88934  1.0000
  C   C1472     1.0  0.34604  0.76640  0.97652  1.0000
  C   C1473     1.0  0.37451  0.82685  0.97075  1.0000
  C   C1474     1.0  0.20521  0.52360  0.95600  1.0000
  Fe  Fe186     1.0  0.24289  0.57831  0.91768  1.0000
  S   S404      1.0  0.24617  0.56793  0.93378  1.0000
  S   S405      1.0  0.25403  0.58854  0.90545  1.0000
  Fe  Fe187     1.0  0.22190  0.57104  0.92083  1.0000
  S   S406      1.0  0.22335  0.56011  0.93727  1.0000
  S   S407      1.0  0.20924  0.57101  0.91231  1.0000
  Fe  Fe188     1.0  0.22843  0.57385  0.94020  1.0000
  S   S408      1.0  0.22217  0.57848  0.95650  1.0000
  Fe  Fe189     1.0  0.24083  0.55521  0.92932  1.0000
  S   S409      1.0  0.24913  0.53758  0.93262  1.0000
  S   S410      1.0  0.22541  0.58545  0.92442  1.0000
  S   S411      1.0  0.23913  0.56498  0.91259  1.0000
  H   H1774     1.0  0.36770  0.80486  0.96789  1.0000
  N   N101      1.0  0.32923  0.49607  0.96597  1.0000
  H   H1775     1.0  0.28641  0.52843  0.90849  1.0000
  S   S412      1.0  0.22625  0.51222  0.91428  1.0000
  H   H1776     1.0  0.37209  0.56804  0.95309  1.0000
  H   H1777     1.0  0.29179  0.59142  0.89139  1.0000
  C   C1475     1.0  0.26432  0.49075  0.92786  1.0000
  C   C1476     1.0  0.37242  0.58624  0.98333  1.0000
  H   H1778     1.0  0.19962  0.50583  0.89493  1.0000
  H   H1779     1.0  0.27113  0.55102  0.94487  1.0000
  C   C1477     1.0  0.18805  0.57009  0.91578  1.0000
  H   H1780     1.0  0.26651  0.53101  0.91142  1.0000
  C   C1478     1.0  0.21482  0.52681  0.95440  1.0000
  C   C1479     1.0  0.24678  0.51902  0.97253  1.0000
  H   H1781     1.0  0.22146  0.60333  0.90561  1.0000
  H   H1782     1.0  0.25637  0.48874  0.91115  1.0000
  C   C1480     1.0  0.37707  0.75190  0.92406  1.0000
  H   H1783     1.0  0.29276  0.49480  0.97167  1.0000
  H   H1784     1.0  0.19783  0.58063  0.93121  1.0000
  H   H1785     1.0  0.34317  0.48991  0.97331  1.0000
  H   H1786     1.0  0.20474  0.54916  0.91775  1.0000
  S   S413      1.0  0.35657  0.60777  0.93426  1.0000
  H   H1787     1.0  0.34186  0.59000  0.88431  1.0000
  H   H1788     1.0  0.34738  0.61309  0.95613  1.0000
  C   C1481     1.0  0.33384  0.59455  0.88814  1.0000
  C   C1482     1.0  0.34683  0.62871  0.96656  1.0000
  H   H1789     1.0  0.36660  0.94554  0.85837  1.0000
  H   H1790     1.0  0.33335  0.50077  0.97875  1.0000
  H   H1791     1.0  0.31881  0.51446  0.97432  1.0000
  S   S414      1.0  0.37029  0.62511  0.94159  1.0000
  C   C1483     1.0  0.37563  0.76704  0.96342  1.0000
  C   C1484     1.0  0.38352  0.74255  0.92931  1.0000
  H   H1792     1.0  0.19241  0.52366  0.94907  1.0000
  H   H1793     1.0  0.27316  0.59756  0.97122  1.0000
  H   H1794     1.0  0.33393  0.58002  0.91418  1.0000
  C   C1485     1.0  0.35991  0.59729  0.90061  1.0000
  N   N102      1.0  0.27913  0.53582  0.93977  1.0000
  H   H1795     1.0  0.37791  0.64372  0.94238  1.0000
  C   C1486     1.0  0.19901  0.60797  0.87894  1.0000
  H   H1796     1.0  0.34054  0.63193  0.95185  1.0000
  C   C1487     1.0  0.28495  0.50194  0.91191  1.0000
  H   H1797     1.0  0.22286  0.61504  0.89457  1.0000
  Fe  Fe190     1.0  0.22804  0.48784  0.95025  1.0000
  H   H1798     1.0  0.35965  0.78454  0.95893  1.0000
  H   H1799     1.0  0.33306  0.60335  0.88385  1.0000
  C   C1488     1.0  0.28944  0.51102  0.91011  1.0000
  H   H1800     1.0  0.29948  0.52177  0.97950  1.0000
  H   H1801     1.0  0.37742  0.95209  0.85054  1.0000
  C   C1489     1.0  0.25947  0.49616  0.91024  1.0000
  H   H1802     1.0  0.34629  0.64923  0.94318  1.0000
  C   C1490     1.0  0.19170  0.60447  0.88854  1.0000
  H   H1803     1.0  0.19303  0.59699  0.95942  1.0000
  H   H1804     1.0  0.34235  0.55323  0.97470  1.0000
  H   H1805     1.0  0.19961  0.58634  0.95217  1.0000
  H   H1806     1.0  0.20805  0.52789  0.98190  1.0000
  C   C1491     1.0  0.18809  0.50339  0.92208  1.0000
  H   H1807     1.0  0.23461  0.60477  0.89777  1.0000
  H   H1808     1.0  0.37090  0.57954  0.98060  1.0000
  H   H1809     1.0  0.19073  0.52118  0.93353  1.0000
  S   S415      1.0  0.23789  0.48994  0.96073  1.0000
  C   C1492     1.0  0.30228  0.51421  0.97662  1.0000
  H   H1810     1.0  0.21723  0.55432  0.96631  1.0000
  H   H1811     1.0  0.20220  0.51855  0.96383  1.0000
  C   C1493     1.0  0.35649  0.79398  0.98440  1.0000
  H   H1812     1.0  0.35472  0.58627  0.89489  1.0000
  C   C1494     1.0  0.27362  0.50314  0.91333  1.0000
  H   H1813     1.0  0.29055  0.49407  0.91222  1.0000
  C   C1495     1.0  0.19633  0.52522  0.92642  1.0000
  H   H1814     1.0  0.28348  0.52007  0.93556  1.0000
  H   H1815     1.0  0.38381  0.73536  0.96322  1.0000
  C   C1496     1.0  0.21328  0.53650  0.93585  1.0000
  H   H1816     1.0  0.34194  0.57983  0.95602  1.0000
  N   N103      1.0  0.19793  0.53545  0.92808  1.0000
  C   C1497     1.0  0.21255  0.50402  0.98193  1.0000
  C   C1498     1.0  0.31233  0.57913  0.98140  1.0000
  C   C1499     1.0  0.22985  0.49512  0.97213  1.0000
  H   H1817     1.0  0.21690  0.54147  0.92828  1.0000
  C   C1500     1.0  0.25511  0.58949  0.98131  1.0000
  H   H1818     1.0  0.18952  0.59692  0.90577  1.0000
  H   H1819     1.0  0.36064  0.64590  0.97001  1.0000
  C   C1501     1.0  0.27316  0.58758  0.95431  1.0000
  C   C1502     1.0  0.29452  0.54199  0.92437  1.0000
  C   C1503     1.0  0.38527  0.63218  0.96546  1.0000
  H   H1820     1.0  0.36535  0.77774  0.94770  1.0000
  N   N104      1.0  0.36429  0.76697  0.96379  1.0000
  C   C1504     1.0  0.32124  0.59853  0.90461  1.0000
  H   H1821     1.0  0.37179  0.75107  0.91944  1.0000
  H   H1822     1.0  0.33037  0.50680  0.94996  1.0000
  C   C1505     1.0  0.34788  0.64478  0.95118  1.0000
  C   C1506     1.0  0.19970  0.52657  0.94751  1.0000
  H   H1823     1.0  0.36382  0.71786  0.97562  1.0000
  C   C1507     1.0  0.21869  0.53348  0.94446  1.0000
  C   C1508     1.0  0.33404  0.50459  0.95723  1.0000
  C   C1509     1.0  0.19352  0.56656  0.95654  1.0000
  C   C1510     1.0  0.33164  0.61974  0.97274  1.0000
  C   C1511     1.0  0.18719  0.54271  0.93105  1.0000
  H   H1824     1.0  0.27484  0.55644  0.90485  1.0000
  C   C1512     1.0  0.22605  0.60607  0.89714  1.0000
  Fe  Fe191     1.0  0.37268  0.60991  0.93544  1.0000
  C   C1513     1.0  0.35694  0.60611  0.90570  1.0000
  H   H1825     1.0  0.35529  0.55007  0.95732  1.0000
  N   N105      1.0  0.35164  0.56473  0.96345  1.0000
  H   H1826     1.0  0.22522  0.58490  0.90157  1.0000
  C   C1514     1.0  0.22955  0.58820  0.89316  1.0000
  C   C1515     1.0  0.38342  0.93069  0.85066  1.0000
  C   C1516     1.0  0.20372  0.53285  0.93706  1.0000
  H   H1827     1.0  0.26211  0.58790  0.93346  1.0000
  H   H1828     1.0  0.35661  0.75727  0.95843  1.0000
  S   S416      1.0  0.38251  0.72977  0.92804  1.0000
  H   H1829     1.0  0.27875  0.59048  0.93667  1.0000
  C   C1517     1.0  0.19602  0.50425  0.91239  1.0000
  H   H1830     1.0  0.34610  0.56138  0.95086  1.0000
  H   H1831     1.0  0.37985  0.85634  0.98370  1.0000
  H   H1832     1.0  0.30677  0.54802  0.91086  1.0000
  C   C1518     1.0  0.19210  0.57810  0.92845  1.0000
  H   H1833     1.0  0.36688  0.95173  0.74954  1.0000
  S   S417      1.0  0.38108  0.67714  0.95004  1.0000
  H   H1834     1.0  0.26126  0.56808  0.98054  1.0000
  H   H1835     1.0  0.18802  0.55033  0.93272  1.0000
  C   C1519     1.0  0.28285  0.52147  0.90986  1.0000
  C   C1520     1.0  0.21371  0.60190  0.88891  1.0000
  C   C1521     1.0  0.38428  0.76359  0.93045  1.0000
  C   C1522     1.0  0.24360  0.53032  0.92694  1.0000
  C   C1523     1.0  0.24173  0.52005  0.93286  1.0000
  C   C1524     1.0  0.23626  0.51463  0.92902  1.0000
  C   C1525     1.0  0.23308  0.51917  0.91900  1.0000
  C   C1526     1.0  0.23535  0.52928  0.91284  1.0000
  C   C1527     1.0  0.24047  0.53494  0.91689  1.0000
  H   H1836     1.0  0.24399  0.51648  0.94071  1.0000
  H   H1837     1.0  0.23436  0.50704  0.93403  1.0000
  H   H1838     1.0  0.23300  0.53282  0.90503  1.0000
  H   H1839     1.0  0.24208  0.54278  0.91216  1.0000
  C   C1528     1.0  0.33433  0.49343  0.97547  1.0000
  C   C1529     1.0  0.19559  0.57318  0.91941  1.0000
  H   H1840     1.0  0.25267  0.59820  0.97708  1.0000
  C   C1530     1.0  0.24291  0.55635  0.98040  1.0000
  H   H1841     1.0  0.20168  0.56773  0.95474  1.0000
  C   C1531     1.0  0.22900  0.57251  0.97579  1.0000
  C   C1532     1.0  0.23020  0.57004  0.96565  1.0000
  C   C1533     1.0  0.23763  0.56062  0.96299  1.0000
  C   C1534     1.0  0.24404  0.55385  0.97030  1.0000
  H   H1842     1.0  0.37824  0.83358  0.96577  1.0000
  H   H1843     1.0  0.22310  0.57967  0.97800  1.0000
  H   H1844     1.0  0.23826  0.55836  0.95543  1.0000
  H   H1845     1.0  0.24971  0.54654  0.96824  1.0000
  H   H1846     1.0  0.37957  0.75941  0.96856  1.0000
  S   S418      1.0  0.38255  0.90778  0.91663  1.0000
  H   H1847     1.0  0.35184  0.79901  0.97808  1.0000
  H   H1848     1.0  0.19624  0.61156  0.87134  1.0000
  H   H1849     1.0  0.22613  0.53604  0.94330  1.0000
  H   H1850     1.0  0.31969  0.59761  0.91367  1.0000
  C   C1535     1.0  0.34167  0.56222  0.97153  1.0000
  C   C1536     1.0  0.34458  0.63488  0.95624  1.0000
  H   H1851     1.0  0.19022  0.50226  0.92987  1.0000
  C   C1537     1.0  0.29852  0.49905  0.97223  1.0000
  H   H1852     1.0  0.27082  0.48885  0.93244  1.0000
  H   H1853     1.0  0.37246  0.76949  0.92044  1.0000
  C   C1538     1.0  0.34988  0.57702  0.92920  1.0000
  C   C1539     1.0  0.34139  0.58535  0.93273  1.0000
  C   C1540     1.0  0.34360  0.59469  0.93428  1.0000
  C   C1541     1.0  0.35431  0.59572  0.93247  1.0000
  C   C1542     1.0  0.36284  0.58733  0.92908  1.0000
  C   C1543     1.0  0.36061  0.57804  0.92738  1.0000
  H   H1854     1.0  0.33311  0.58462  0.93429  1.0000
  H   H1855     1.0  0.33697  0.60116  0.93692  1.0000
  H   H1856     1.0  0.37111  0.58810  0.92759  1.0000
  H   H1857     1.0  0.36722  0.57161  0.92464  1.0000
  C   C1544     1.0  0.30608  0.57616  0.96683  1.0000
  C   C1545     1.0  0.31281  0.58263  0.95906  1.0000
  C   C1546     1.0  0.31926  0.58738  0.96244  1.0000
  C   C1547     1.0  0.31924  0.58539  0.97358  1.0000
  C   C1548     1.0  0.37115  0.82574  0.98209  1.0000
  C   C1549     1.0  0.37901  0.65868  0.94560  1.0000
  H   H1858     1.0  0.31297  0.58410  0.95044  1.0000
  H   H1859     1.0  0.32442  0.59241  0.95639  1.0000
  C   C1550     1.0  0.19159  0.59025  0.95667  1.0000
  H   H1860     1.0  0.21510  0.60948  0.87131  1.0000
  C   C1551     1.0  0.31577  0.51899  0.93553  1.0000
  C   C1552     1.0  0.31936  0.52119  0.92409  1.0000
  C   C1553     1.0  0.31927  0.51366  0.91817  1.0000
  C   C1554     1.0  0.31556  0.50401  0.92370  1.0000
  C   C1555     1.0  0.31163  0.50208  0.93506  1.0000
  C   C1556     1.0  0.31180  0.50952  0.94092  1.0000
  H   H1861     1.0  0.32241  0.52852  0.91985  1.0000
  H   H1862     1.0  0.32226  0.51521  0.90935  1.0000
  C   C1557     1.0  0.38127  0.62395  0.97387  1.0000
  H   H1863     1.0  0.30869  0.50802  0.94967  1.0000
  C   C1558     1.0  0.28977  0.58037  0.90726  1.0000
  C   C1559     1.0  0.28235  0.57552  0.91600  1.0000
  C   C1560     1.0  0.27138  0.57779  0.91548  1.0000
  C   C1561     1.0  0.26774  0.58517  0.90641  1.0000
  C   C1562     1.0  0.27517  0.59011  0.89780  1.0000
  C   C1563     1.0  0.28612  0.58765  0.89818  1.0000
  H   H1864     1.0  0.28509  0.56982  0.92301  1.0000
  H   H1865     1.0  0.26579  0.57384  0.92213  1.0000
  H   H1866     1.0  0.27247  0.59581  0.89076  1.0000
  H   H1867     1.0  0.30044  0.53820  0.92934  1.0000
  N   N106      1.0  0.26544  0.58394  0.97497  1.0000
  C   C1564     1.0  0.27407  0.58884  0.97572  1.0000
  H   H1868     1.0  0.28627  0.51216  0.97822  1.0000
  C   C1565     1.0  0.35258  0.63307  0.97148  1.0000
  C   C1566     1.0  0.26469  0.58505  0.96353  1.0000
  C   C1567     1.0  0.25559  0.58291  0.96137  1.0000
  C   C1568     1.0  0.34927  0.61023  0.96443  1.0000
  C   C1569     1.0  0.25466  0.58401  0.95065  1.0000
  C   C1570     1.0  0.22658  0.53372  0.97763  1.0000
  C   C1571     1.0  0.26290  0.58695  0.94177  1.0000
  H   H1869     1.0  0.20364  0.55350  0.97338  1.0000
  C   C1572     1.0  0.30962  0.49469  0.96919  1.0000
  H   H1870     1.0  0.28227  0.58426  0.97253  1.0000
  H   H1871     1.0  0.28066  0.58871  0.95517  1.0000
  C   C1573     1.0  0.34604  0.61088  0.90897  1.0000
  H   H1872     1.0  0.36711  0.74953  0.96556  1.0000
  H   H1873     1.0  0.27551  0.56773  0.97570  1.0000
  H   H1874     1.0  0.38071  0.76750  0.95492  1.0000
  C   C1574     1.0  0.37745  0.76234  0.92463  1.0000
  H   H1875     1.0  0.24914  0.58026  0.96796  1.0000
  C   C1575     1.0  0.29486  0.50880  0.97591  1.0000
  H   H1876     1.0  0.24749  0.58256  0.94924  1.0000
  H   H1877     1.0  0.32851  0.48748  0.95427  1.0000
  C   C1576     1.0  0.20598  0.59861  0.89856  1.0000
  C   C1577     1.0  0.26776  0.57212  0.98025  1.0000
  C   C1578     1.0  0.38269  0.66844  0.94127  1.0000
  C   C1579     1.0  0.27170  0.52290  0.91145  1.0000
  C   C1580     1.0  0.35713  0.76649  0.97490  1.0000
  H   H1878     1.0  0.37613  0.77420  0.96618  1.0000
  H   H1879     1.0  0.23009  0.54036  0.95976  1.0000
  C   C1581     1.0  0.37140  0.56365  0.96158  1.0000
  H   H1880     1.0  0.19880  0.55239  0.94929  1.0000
  H   H1881     1.0  0.37830  0.92995  0.90368  1.0000
  H   H1882     1.0  0.28991  0.53944  0.94743  1.0000
  H   H1883     1.0  0.20417  0.51916  0.92511  1.0000
  C   C1582     1.0  0.38044  0.55445  0.97658  1.0000
  H   H1884     1.0  0.28338  0.52854  0.95559  1.0000
  H   H1885     1.0  0.29406  0.52609  0.94418  1.0000
  C   C1583     1.0  0.28036  0.55227  0.91028  1.0000
  H   H1886     1.0  0.35940  0.92525  0.89410  1.0000
  C   C1584     1.0  0.36140  0.56120  0.96813  1.0000
  C   C1585     1.0  0.19518  0.59981  0.89833  1.0000
  H   H1887     1.0  0.26801  0.54654  0.92333  1.0000
  C   C1586     1.0  0.36681  0.71132  0.98204  1.0000
  H   H1888     1.0  0.32869  0.61212  0.97728  1.0000
  H   H1889     1.0  0.37037  0.75701  0.95161  1.0000
  H   H1890     1.0  0.36306  0.60908  0.90742  1.0000
  C   C1587     1.0  0.27622  0.52581  0.93923  1.0000
  H   H1891     1.0  0.37620  0.81992  0.95704  1.0000
  Fe  Fe192     1.0  0.38067  0.61448  0.95308  1.0000
  H   H1892     1.0  0.26244  0.54488  0.94120  1.0000
  C   C1588     1.0  0.29124  0.55275  0.90666  1.0000
  H   H1893     1.0  0.30847  0.49485  0.93936  1.0000
  C   C1589     1.0  0.20988  0.60671  0.87906  1.0000
  C   C1590     1.0  0.27649  0.54673  0.92098  1.0000
  C   C1591     1.0  0.26937  0.54304  0.94513  1.0000
  H   H1894     1.0  0.36016  0.56135  0.94747  1.0000
  H   H1895     1.0  0.36363  0.93817  0.87683  1.0000
  C   C1592     1.0  0.31339  0.50997  0.97355  1.0000
  H   H1896     1.0  0.20248  0.57381  0.96932  1.0000
  C   C1593     1.0  0.37321  0.81921  0.96584  1.0000
  H   H1897     1.0  0.35603  0.57929  0.95195  1.0000
  C   C1594     1.0  0.36945  0.93051  0.87820  1.0000
  H   H1898     1.0  0.35630  0.65633  0.95212  1.0000
  H   H1899     1.0  0.21514  0.50001  0.96625  1.0000
  S   S419      1.0  0.37631  0.61418  0.97100  1.0000
  C   C1595     1.0  0.33804  0.60683  0.90722  1.0000
  C   C1596     1.0  0.28342  0.54160  0.92845  1.0000
  H   H1900     1.0  0.34705  0.60211  0.96798  1.0000
  H   H1901     1.0  0.24834  0.58544  0.98268  1.0000
  C   C1597     1.0  0.35356  0.64878  0.95618  1.0000
  C   C1598     1.0  0.33406  0.58135  0.90534  1.0000
  H   H1902     1.0  0.37504  0.65674  0.95418  1.0000
  H   H1903     1.0  0.36917  0.76569  0.98404  1.0000
  C   C1599     1.0  0.23456  0.49455  0.98071  1.0000
  Fe  Fe193     1.0  0.22349  0.49734  0.92755  1.0000
  C   C1600     1.0  0.21882  0.49974  0.97279  1.0000
  H   H1904     1.0  0.32758  0.57775  0.90471  1.0000
  C   C1601     1.0  0.36458  0.75731  0.95969  1.0000
  C   C1602     1.0  0.34079  0.59780  0.90207  1.0000
  S   S420      1.0  0.18910  0.49008  0.95272  1.0000
  H   H1905     1.0  0.25226  0.50196  0.91377  1.0000
  C   C1603     1.0  0.30564  0.57462  0.97803  1.0000
  C   C1604     1.0  0.23275  0.53435  0.96664  1.0000
  H   H1906     1.0  0.37564  0.92867  0.85106  1.0000
  C   C1605     1.0  0.24264  0.52699  0.96418  1.0000
  N   N107      1.0  0.26858  0.49361  0.91584  1.0000
  H   H1907     1.0  0.20427  0.50395  0.91261  1.0000
  C   C1606     1.0  0.21187  0.54848  0.97085  1.0000
  H   H1908     1.0  0.34187  0.57639  0.90165  1.0000
  H   H1909     1.0  0.25431  0.51318  0.97056  1.0000
  H   H1910     1.0  0.32761  0.59139  0.88638  1.0000
  H   H1911     1.0  0.20826  0.59482  0.90635  1.0000
  C   C1607     1.0  0.20379  0.54106  0.91737  1.0000
  H   H1912     1.0  0.32704  0.62627  0.97733  1.0000
  C   C1608     1.0  0.36007  0.77708  0.95612  1.0000
  H   H1913     1.0  0.26199  0.49965  0.90130  1.0000
  H   H1914     1.0  0.21194  0.53593  0.91468  1.0000
  C   C1609     1.0  0.31742  0.50018  0.96953  1.0000
  H   H1915     1.0  0.24704  0.52739  0.95571  1.0000
  C   C1610     1.0  0.19338  0.50532  0.90244  1.0000
  H   H1916     1.0  0.27027  0.52771  0.93403  1.0000
  N   N108      1.0  0.33257  0.59321  0.90012  1.0000
  H   H1917     1.0  0.26637  0.53922  0.95389  1.0000
  H   H1918     1.0  0.24306  0.49094  0.98024  1.0000
  Fe  Fe194     1.0  0.38592  0.62750  0.92984  1.0000
  S   S421      1.0  0.31586  0.49432  0.91647  1.0000
  H   H1919     1.0  0.19938  0.54275  0.91072  1.0000
  C   C1611     1.0  0.35340  0.55914  0.95440  1.0000
  C   C1612     1.0  0.26713  0.51389  0.91319  1.0000
  N   N109      1.0  0.18667  0.58233  0.96609  1.0000
  C   C1613     1.0  0.38074  0.56039  0.96580  1.0000
  C   C1614     1.0  0.28696  0.53238  0.94702  1.0000
  H   H1920     1.0  0.23826  0.58643  0.89342  1.0000
  H   H1921     1.0  0.35820  0.60898  0.96320  1.0000
  H   H1922     1.0  0.21115  0.54389  0.96515  1.0000
  H   H1923     1.0  0.34382  0.61753  0.91324  1.0000
  H   H1924     1.0  0.21930  0.52401  0.96086  1.0000
  C   C1615     1.0  0.35199  0.59320  0.89877  1.0000
  H   H1925     1.0  0.29812  0.50991  0.90895  1.0000
  H   H1926     1.0  0.37384  0.95076  0.86507  1.0000
  C   C1616     1.0  0.27220  0.58854  0.94360  1.0000
  C   C1617     1.0  0.34957  0.57675  0.95903  1.0000
  S   S422      1.0  0.38199  0.59904  0.94799  1.0000
  H   H1927     1.0  0.29417  0.55733  0.89849  1.0000
  H   H1928     1.0  0.35191  0.77734  0.95514  1.0000
  H   H1929     1.0  0.38281  0.97637  0.74128  1.0000
  H   H1930     1.0  0.19276  0.52679  0.91917  1.0000
  S   S423      1.0  0.21441  0.50039  0.94407  1.0000
  H   H1931     1.0  0.32977  0.61080  0.91018  1.0000
  H   H1932     1.0  0.31527  0.59475  0.90320  1.0000
  C   C1618     1.0  0.29831  0.54756  0.91367  1.0000
  N   N110      1.0  0.34347  0.61812  0.97158  1.0000
  H   H1933     1.0  0.27262  0.52133  0.94750  1.0000
  H   H1934     1.0  0.31930  0.60739  0.90064  1.0000
  H   H1935     1.0  0.36840  0.59346  0.89830  1.0000
  C   C1619     1.0  0.23232  0.60381  0.87858  1.0000
  H   H1936     1.0  0.22873  0.58334  0.88774  1.0000
  H   H1937     1.0  0.23244  0.59931  0.87240  1.0000
  H   H1938     1.0  0.24088  0.60229  0.87929  1.0000
  H   H1939     1.0  0.22976  0.61278  0.87533  1.0000
  N   N111      1.0  0.38251  0.93568  0.85992  1.0000
  S   S424      1.0  0.38481  0.96444  0.77346  1.0000
  C   C1620     1.0  0.36825  0.81058  0.97221  1.0000
  S   S425      1.0  0.38407  0.77704  0.93088  1.0000
  H   H1940     1.0  0.38412  0.89531  0.96995  1.0000
  C   C1621     1.0  0.38069  0.65127  0.93895  1.0000
  H   H1941     1.0  0.33444  0.56524  0.96778  1.0000
  H   H1942     1.0  0.37426  0.59273  0.97592  1.0000
  H   H1943     1.0  0.19066  0.56647  0.90866  1.0000
  H   H1944     1.0  0.38590  0.68482  0.96886  1.0000
  H   H1945     1.0  0.34268  0.76666  0.96974  1.0000
  C   C1622     1.0  0.37471  0.94645  0.85848  1.0000
  C   C1623     1.0  0.36685  0.92312  0.88819  1.0000
  H   H1946     1.0  0.20403  0.50764  0.98244  1.0000
  H   H1947     1.0  0.32934  0.62198  0.96468  1.0000
  C   C1624     1.0  0.19423  0.57731  0.97361  1.0000
  H   H1948     1.0  0.38051  0.97438  0.81602  1.0000
  H   H1949     1.0  0.37275  0.68134  0.97394  1.0000
  C   C1625     1.0  0.38569  0.89965  0.97512  1.0000
  H   H1950     1.0  0.33281  0.51230  0.95997  1.0000
  C   C1626     1.0  0.38102  0.67953  0.97548  1.0000
  C   C1627     1.0  0.38500  0.72890  0.98014  1.0000
  H   H1951     1.0  0.36430  0.78921  0.98034  1.0000
  C   C1628     1.0  0.37936  0.92802  0.87049  1.0000
  H   H1952     1.0  0.37086  0.93443  0.74339  1.0000
  H   H1953     1.0  0.33976  0.56628  0.97855  1.0000
  H   H1954     1.0  0.36064  0.96940  0.73738  1.0000
  C   C1629     1.0  0.19196  0.55780  0.95335  1.0000
  C   C1630     1.0  0.36136  0.55521  0.97912  1.0000
  S   S426      1.0  0.32841  0.59025  0.97745  1.0000
  H   H1955     1.0  0.37208  0.90757  0.89868  1.0000
  C   C1631     1.0  0.37396  0.91311  0.89078  1.0000
  H   H1956     1.0  0.38523  0.63261  0.95707  1.0000
  C   C1632     1.0  0.36579  0.95188  0.74152  1.0000
  C   C1633     1.0  0.37077  0.55190  0.98323  1.0000
  N   N112      1.0  0.21580  0.54092  0.98052  1.0000
  C   C1634     1.0  0.37134  0.70075  0.98016  1.0000
  C   C1635     1.0  0.36431  0.80947  0.98377  1.0000
  H   H1957     1.0  0.19124  0.57063  0.98026  1.0000
  H   H1958     1.0  0.35491  0.62887  0.97918  1.0000
  H   H1959     1.0  0.35419  0.55290  0.98474  1.0000
  C   C1636     1.0  0.23532  0.56564  0.98318  1.0000
  C   C1637     1.0  0.36813  0.94215  0.73799  1.0000
  C   C1638     1.0  0.38369  0.91040  0.88339  1.0000
  H   H1960     1.0  0.38479  0.67099  0.97440  1.0000
  H   H1961     1.0  0.22217  0.55281  0.98375  1.0000
  C   C1639     1.0  0.34580  0.61301  0.98267  1.0000
  H   H1962     1.0  0.35463  0.61092  0.98241  1.0000
  S   S427      1.0  0.37625  0.74035  0.98464  1.0000
  H   H1963     1.0  0.30032  0.56973  0.98408  1.0000
  C   C1640     1.0  0.38593  0.65364  0.92789  1.0000
  C   C1641     1.0  0.36082  0.76594  0.98437  1.0000
  C   C1642     1.0  0.24111  0.51842  0.98340  1.0000
  H   H1964     1.0  0.27398  0.58855  0.98440  1.0000
  C   C1643     1.0  0.38131  0.62342  0.98473  1.0000
  H   H1965     1.0  0.38620  0.96523  0.80032  1.0000
  S   S428      1.0  0.38573  0.89037  0.94664  1.0000
  H   H1966     1.0  0.18628  0.59397  0.95067  1.0000
  H   H1967     1.0  0.38561  0.93634  0.84255  1.0000
  Fe  Fe195     1.0  0.40971  0.06299  0.08556  1.0000
  S   S429      1.0  0.40686  0.05992  0.07062  1.0000
  S   S430      1.0  0.42415  0.06949  0.08403  1.0000
  S   S431      1.0  0.48273  0.32933  0.99185  1.0000
  H   H1968     1.0  0.48335  0.99228  0.15707  1.0000
  Fe  Fe196     1.0  0.46289  0.04788  0.11808  1.0000
  S   S432      1.0  0.47292  0.03926  0.10474  1.0000
  S   S433      1.0  0.44573  0.04611  0.12455  1.0000
  Fe  Fe197     1.0  0.48130  0.05700  0.11911  1.0000
  S   S434      1.0  0.49299  0.04885  0.10593  1.0000
  S   S435      1.0  0.48511  0.06930  0.12579  1.0000
  Fe  Fe198     1.0  0.47912  0.05479  0.09727  1.0000
  S   S436      1.0  0.48123  0.06223  0.07897  1.0000
  Fe  Fe199     1.0  0.48549  0.03429  0.11472  1.0000
  S   S437      1.0  0.46797  0.06381  0.10995  1.0000
  S   S438      1.0  0.47501  0.04204  0.12861  1.0000
  C   C1644     1.0  0.57729  0.45493  0.04207  1.0000
  Fe  Fe200     1.0  0.40778  0.04055  0.17565  1.0000
  C   C1645     1.0  0.45403  0.24996  0.99306  1.0000
  S   S439      1.0  0.42530  0.03273  0.17081  1.0000
  Fe  Fe201     1.0  0.38830  0.23173  0.01575  1.0000
  C   C1646     1.0  0.43488  0.98870  0.13879  1.0000
  Fe  Fe202     1.0  0.47222  0.05374  0.18839  1.0000
  S   S440      1.0  0.46998  0.03865  0.18514  1.0000
  S   S441      1.0  0.46811  0.06968  0.17641  1.0000
  Fe  Fe203     1.0  0.47919  0.04152  0.20998  1.0000
  S   S442      1.0  0.47752  0.02544  0.20833  1.0000
  S   S443      1.0  0.48600  0.04120  0.22419  1.0000
  Fe  Fe204     1.0  0.48548  0.03065  0.19066  1.0000
  N   N113      1.0  0.40290  0.17790  0.03416  1.0000
  Fe  Fe205     1.0  0.46221  0.03513  0.20304  1.0000
  S   S444      1.0  0.44634  0.03005  0.20952  1.0000
  S   S445      1.0  0.48843  0.04605  0.19255  1.0000
  S   S446      1.0  0.46317  0.05091  0.20607  1.0000
  H   H1969     1.0  0.41546  0.25071  0.02804  1.0000
  H   H1970     1.0  0.48837  0.29033  0.99318  1.0000
  C   C1647     1.0  0.40413  0.26619  0.98910  1.0000
  H   H1971     1.0  0.40651  0.02595  0.21559  1.0000
  H   H1972     1.0  0.47766  0.01961  0.14210  1.0000
  Fe  Fe206     1.0  0.39957  0.39429  0.01186  1.0000
  S   S447      1.0  0.40265  0.40396  0.02210  1.0000
  S   S448      1.0  0.40713  0.37614  0.01408  1.0000
  H   H1973     1.0  0.45806  0.27954  0.01292  1.0000
  Fe  Fe207     1.0  0.40871  0.41471  0.00606  1.0000
  H   H1974     1.0  0.48623  0.36374  0.00075  1.0000
  C   C1648     1.0  0.47801  0.01350  0.16901  1.0000
  Fe  Fe208     1.0  0.49034  0.38955  0.01254  1.0000
  S   S449      1.0  0.50304  0.38588  0.02201  1.0000
  C   C1649     1.0  0.48856  0.16215  0.02652  1.0000
  Fe  Fe209     1.0  0.47307  0.40048  0.02920  1.0000
  S   S450      1.0  0.48447  0.39778  0.04027  1.0000
  S   S451      1.0  0.45502  0.40594  0.03495  1.0000
  Fe  Fe210     1.0  0.49638  0.40305  0.02464  1.0000
  S   S452      1.0  0.51014  0.41186  0.02037  1.0000
  Fe  Fe211     1.0  0.49027  0.38094  0.03657  1.0000
  S   S453      1.0  0.49520  0.36538  0.04868  1.0000
  S   S454      1.0  0.48448  0.40718  0.01382  1.0000
  S   S455      1.0  0.47801  0.38326  0.02684  1.0000
  H   H1975     1.0  0.47013  0.29351  0.05957  1.0000
  H   H1976     1.0  0.41687  0.38080  0.02936  1.0000
  C   C1650     1.0  0.43259  0.36634  0.03917  1.0000
  H   H1977     1.0  0.43650  0.10546  0.07525  1.0000
  H   H1978     1.0  0.43203  0.11458  0.06336  1.0000
  S   S456      1.0  0.40421  0.05815  0.17660  1.0000
  Fe  Fe212     1.0  0.40778  0.30754  0.00809  1.0000
  S   S457      1.0  0.42176  0.29875  0.01605  1.0000
  H   H1979     1.0  0.48608  0.29848  0.04446  1.0000
  H   H1980     1.0  0.45410  0.05638  0.10233  1.0000
  C   C1651     1.0  0.44607  0.10957  0.98483  1.0000
  H   H1981     1.0  0.39193  0.00998  0.20228  1.0000
  H   H1982     1.0  0.49390  0.07237  0.10284  1.0000
  C   C1652     1.0  0.38673  0.09173  0.05775  1.0000
  S   S458      1.0  0.48207  0.12156  0.03050  1.0000
  Fe  Fe213     1.0  0.38889  0.14350  0.00415  1.0000
  C   C1653     1.0  0.44503  0.10646  0.02688  1.0000
  H   H1983     1.0  0.49853  0.18019  0.99294  1.0000
  S   S459      1.0  0.47397  0.22435  0.03146  1.0000
  C   C1654     1.0  0.45262  0.09893  0.03240  1.0000
  H   H1984     1.0  0.45591  0.00443  0.17056  1.0000
  C   C1655     1.0  0.43978  0.22566  0.01778  1.0000
  C   C1656     1.0  0.45100  0.38485  0.00628  1.0000
  S   S460      1.0  0.48304  0.19156  0.04180  1.0000
  H   H1985     1.0  0.39643  0.07509  0.01334  1.0000
  H   H1986     1.0  0.47125  0.27954  0.06735  1.0000
  Fe  Fe214     1.0  0.47757  0.32021  0.03328  1.0000
  Fe  Fe215     1.0  0.47711  0.32301  0.00979  1.0000
  S   S461      1.0  0.48641  0.32092  0.04546  1.0000
  Fe  Fe216     1.0  0.47111  0.30274  0.02638  1.0000
  C   C1657     1.0  0.41392  0.37673  0.03803  1.0000
  S   S462      1.0  0.46774  0.28574  0.03109  1.0000
  S   S463      1.0  0.39045  0.31168  0.01721  1.0000
  C   C1658     1.0  0.50284  0.25364  0.06232  1.0000
  C   C1659     1.0  0.43287  0.14137  0.00920  1.0000
  S   S464      1.0  0.48616  0.30951  0.02114  1.0000
  S   S465      1.0  0.46330  0.31229  0.03960  1.0000
  H   H1987     1.0  0.47736  0.27013  0.98836  1.0000
  S   S466      1.0  0.40134  0.14416  0.01241  1.0000
  Fe  Fe217     1.0  0.41304  0.13967  0.99738  1.0000
  C   C1660     1.0  0.42902  0.01790  0.10588  1.0000
  S   S467      1.0  0.41532  0.12171  0.00451  1.0000
  Fe  Fe218     1.0  0.46792  0.12313  0.04497  1.0000
  S   S468      1.0  0.46546  0.14148  0.04226  1.0000
  S   S469      1.0  0.46596  0.11369  0.06267  1.0000
  Fe  Fe219     1.0  0.45434  0.14232  0.03175  1.0000
  S   S470      1.0  0.43915  0.15514  0.03025  1.0000
  H   H1988     1.0  0.42746  0.36055  0.00003  1.0000
  C   C1661     1.0  0.40158  0.01996  0.07680  1.0000
  C   C1662     1.0  0.46286  0.00804  0.16667  1.0000
  H   H1989     1.0  0.43751  0.39348  0.98561  1.0000
  Fe  Fe220     1.0  0.53710  0.47524  0.02939  1.0000
  S   S471      1.0  0.53486  0.46422  0.04623  1.0000
  C   C1663     1.0  0.43105  0.02530  0.11058  1.0000
  Fe  Fe221     1.0  0.55027  0.45644  0.01850  1.0000
  S   S472      1.0  0.54950  0.44374  0.03428  1.0000
  H   H1990     1.0  0.44525  0.08041  0.06420  1.0000
  Fe  Fe222     1.0  0.53197  0.45227  0.03821  1.0000
  S   S473      1.0  0.51810  0.44339  0.04540  1.0000
  Fe  Fe223     1.0  0.55247  0.45659  0.04088  1.0000
  C   C1664     1.0  0.54392  0.46902  0.99409  1.0000
  S   S474      1.0  0.53251  0.46407  0.02189  1.0000
  S   S475      1.0  0.55488  0.46847  0.02465  1.0000
  C   C1665     1.0  0.48095  0.01731  0.15768  1.0000
  S   S476      1.0  0.40673  0.40440  0.99587  1.0000
  C   C1666     1.0  0.43350  0.05986  0.18824  1.0000
  H   H1991     1.0  0.40395  0.99433  0.07333  1.0000
  H   H1992     1.0  0.48707  0.28289  0.07232  1.0000
  C   C1667     1.0  0.44048  0.21227  0.00770  1.0000
  H   H1993     1.0  0.45694  0.26588  0.01454  1.0000
  H   H1994     1.0  0.44892  0.99831  0.22021  1.0000
  C   C1668     1.0  0.48170  0.09244  0.09992  1.0000
  C   C1669     1.0  0.48564  0.27427  0.01852  1.0000
  C   C1670     1.0  0.47662  0.39788  0.99291  1.0000
  H   H1995     1.0  0.44565  0.06573  0.08667  1.0000
  C   C1671     1.0  0.41823  0.00089  0.21006  1.0000
  Fe  Fe224     1.0  0.38954  0.05606  0.10035  1.0000
  S   S477      1.0  0.40782  0.32391  0.99634  1.0000
  C   C1672     1.0  0.41006  0.01726  0.21732  1.0000
  C   C1673     1.0  0.39432  0.44859  0.03425  1.0000
  C   C1674     1.0  0.44221  0.06262  0.19003  1.0000
  H   H1996     1.0  0.54310  0.47229  0.00108  1.0000
  C   C1675     1.0  0.43008  0.15039  0.00089  1.0000
  C   C1676     1.0  0.42973  0.16098  0.00173  1.0000
  C   C1677     1.0  0.43218  0.16252  0.01094  1.0000
  C   C1678     1.0  0.43522  0.15344  0.01915  1.0000
  C   C1679     1.0  0.39525  0.01317  0.13870  1.0000
  H   H1997     1.0  0.49536  0.11343  0.05182  1.0000
  H   H1998     1.0  0.42739  0.16798  0.99538  1.0000
  H   H1999     1.0  0.43190  0.17071  0.01156  1.0000
  H   H2000     1.0  0.48237  0.27032  0.04429  1.0000
  C   C1680     1.0  0.43199  0.35693  0.99306  1.0000
  C   C1681     1.0  0.48565  0.18005  0.03608  1.0000
  S   S478      1.0  0.42453  0.42002  0.00124  1.0000
  H   H2001     1.0  0.48668  0.35474  0.01372  1.0000
  C   C1682     1.0  0.49650  0.01099  0.10082  1.0000
  C   C1683     1.0  0.48415  0.16133  0.03778  1.0000
  C   C1684     1.0  0.48280  0.17023  0.04257  1.0000
  H   H2002     1.0  0.44342  0.01447  0.16048  1.0000
  H   H2003     1.0  0.48190  0.15380  0.04283  1.0000
  H   H2004     1.0  0.47937  0.16958  0.05128  1.0000
  C   C1685     1.0  0.43193  0.00309  0.12205  1.0000
  C   C1686     1.0  0.47717  0.25533  0.02496  1.0000
  C   C1687     1.0  0.47126  0.26482  0.02879  1.0000
  C   C1688     1.0  0.47543  0.27432  0.02555  1.0000
  C   C1689     1.0  0.38841  0.06683  0.14147  1.0000
  C   C1690     1.0  0.49511  0.10847  0.06009  1.0000
  H   H2005     1.0  0.47384  0.24808  0.02750  1.0000
  H   H2006     1.0  0.46341  0.26477  0.03433  1.0000
  H   H2007     1.0  0.45296  0.99949  0.14411  1.0000
  H   H2008     1.0  0.40251  0.10067  0.19125  1.0000
  H   H2009     1.0  0.45078  0.36127  0.00812  1.0000
  H   H2010     1.0  0.40502  0.27539  0.01902  1.0000
  H   H2011     1.0  0.42918  0.11701  0.02850  1.0000
  S   S479      1.0  0.45552  0.12426  0.03573  1.0000
  C   C1691     1.0  0.45019  0.09580  0.04389  1.0000
  H   H2012     1.0  0.40550  0.37607  0.03871  1.0000
  S   S480      1.0  0.46301  0.31530  0.01383  1.0000
  C   C1692     1.0  0.43648  0.99443  0.17602  1.0000
  C   C1693     1.0  0.49007  0.18083  0.02485  1.0000
  H   H2013     1.0  0.44646  0.27717  0.01008  1.0000
  S   S481      1.0  0.49499  0.24329  0.01325  1.0000
  N   N114      1.0  0.49904  0.16658  0.98608  1.0000
  H   H2014     1.0  0.53122  0.48175  0.98801  1.0000
  C   C1694     1.0  0.50617  0.99752  0.16096  1.0000
  H   H2015     1.0  0.41985  0.10280  0.06507  1.0000
  H   H2016     1.0  0.51661  0.46975  0.99086  1.0000
  H   H2017     1.0  0.43889  0.34860  0.04158  1.0000
  C   C1695     1.0  0.49145  0.10715  0.07968  1.0000
  H   H2018     1.0  0.47030  0.01198  0.13286  1.0000
  C   C1696     1.0  0.43472  0.30464  0.02541  1.0000
  Fe  Fe225     1.0  0.38969  0.06821  0.07671  1.0000
  C   C1697     1.0  0.43590  0.37635  0.03735  1.0000
  H   H2019     1.0  0.44570  0.30971  0.03138  1.0000
  H   H2020     1.0  0.43946  0.29633  0.02584  1.0000
  C   C1698     1.0  0.51211  0.42054  0.02755  1.0000
  C   C1699     1.0  0.52201  0.42386  0.02439  1.0000
  C   C1700     1.0  0.52395  0.43087  0.02979  1.0000
  C   C1701     1.0  0.51601  0.43454  0.03847  1.0000
  C   C1702     1.0  0.50618  0.43106  0.04175  1.0000
  C   C1703     1.0  0.50420  0.42413  0.03628  1.0000
  H   H2021     1.0  0.52821  0.42103  0.01770  1.0000
  H   H2022     1.0  0.53158  0.43342  0.02726  1.0000
  H   H2023     1.0  0.50003  0.43384  0.04850  1.0000
  H   H2024     1.0  0.49655  0.42160  0.03881  1.0000
  C   C1704     1.0  0.49257  0.35327  0.04735  1.0000
  C   C1705     1.0  0.49556  0.34346  0.05477  1.0000
  C   C1706     1.0  0.49362  0.33365  0.05406  1.0000
  C   C1707     1.0  0.48858  0.33353  0.04596  1.0000
  C   C1708     1.0  0.48553  0.34332  0.03850  1.0000
  C   C1709     1.0  0.48762  0.35316  0.03913  1.0000
  H   H2025     1.0  0.49939  0.34344  0.06113  1.0000
  H   H2026     1.0  0.49600  0.32614  0.05985  1.0000
  H   H2027     1.0  0.48159  0.34329  0.03228  1.0000
  H   H2028     1.0  0.48539  0.36062  0.03329  1.0000
  C   C1710     1.0  0.39987  0.36752  0.01228  1.0000
  C   C1711     1.0  0.39898  0.34921  0.01171  1.0000
  C   C1712     1.0  0.40454  0.35629  0.01318  1.0000
  H   H2029     1.0  0.40262  0.34057  0.01241  1.0000
  H   H2030     1.0  0.41246  0.35307  0.01504  1.0000
  C   C1713     1.0  0.43308  0.41532  0.01061  1.0000
  C   C1714     1.0  0.42911  0.41136  0.02179  1.0000
  C   C1715     1.0  0.43597  0.40839  0.02918  1.0000
  C   C1716     1.0  0.44688  0.40904  0.02538  1.0000
  C   C1717     1.0  0.45095  0.41256  0.01413  1.0000
  C   C1718     1.0  0.44400  0.41587  0.00680  1.0000
  H   H2031     1.0  0.42068  0.41106  0.02485  1.0000
  H   H2032     1.0  0.43277  0.40576  0.03789  1.0000
  H   H2033     1.0  0.45933  0.41319  0.01115  1.0000
  H   H2034     1.0  0.41318  0.38227  0.04348  1.0000
  C   C1719     1.0  0.51185  0.46711  0.99927  1.0000
  Fe  Fe226     1.0  0.48322  0.21410  0.00421  1.0000
  H   H2035     1.0  0.45449  0.99628  0.15784  1.0000
  N   N115      1.0  0.48597  0.28295  0.05604  1.0000
  H   H2036     1.0  0.44509  0.20693  0.00215  1.0000
  H   H2037     1.0  0.38810  0.10242  0.00540  1.0000
  C   C1720     1.0  0.58014  0.45152  0.03215  1.0000
  C   C1721     1.0  0.45728  0.25664  0.99774  1.0000
  H   H2038     1.0  0.50247  0.25558  0.98724  1.0000
  H   H2039     1.0  0.51565  0.15954  0.98720  1.0000
  C   C1722     1.0  0.49209  0.11350  0.06897  1.0000
  H   H2040     1.0  0.45407  0.21846  0.00725  1.0000
  H   H2041     1.0  0.41251  0.09185  0.01901  1.0000
  C   C1723     1.0  0.43126  0.03125  0.18171  1.0000
  C   C1724     1.0  0.44251  0.02811  0.18039  1.0000
  C   C1725     1.0  0.44725  0.02744  0.18903  1.0000
  C   C1726     1.0  0.44072  0.02979  0.19897  1.0000
  C   C1727     1.0  0.42949  0.03251  0.20038  1.0000
  C   C1728     1.0  0.42477  0.03349  0.19169  1.0000
  H   H2042     1.0  0.44753  0.02634  0.17270  1.0000
  H   H2043     1.0  0.45591  0.02490  0.18805  1.0000
  H   H2044     1.0  0.42446  0.03422  0.20809  1.0000
  H   H2045     1.0  0.41613  0.03607  0.19274  1.0000
  C   C1729     1.0  0.47611  0.07640  0.07423  1.0000
  C   C1730     1.0  0.47869  0.08125  0.06297  1.0000
  C   C1731     1.0  0.47536  0.09267  0.05917  1.0000
  C   C1732     1.0  0.46954  0.09928  0.06667  1.0000
  C   C1733     1.0  0.46657  0.09436  0.07781  1.0000
  C   C1734     1.0  0.46977  0.08298  0.08157  1.0000
  H   H2046     1.0  0.48352  0.07620  0.05721  1.0000
  H   H2047     1.0  0.47761  0.09638  0.05053  1.0000
  H   H2048     1.0  0.46188  0.09942  0.08361  1.0000
  H   H2049     1.0  0.46745  0.07935  0.09017  1.0000
  C   C1735     1.0  0.48026  0.06897  0.13992  1.0000
  C   C1736     1.0  0.48146  0.05913  0.14782  1.0000
  C   C1737     1.0  0.47802  0.05925  0.15909  1.0000
  C   C1738     1.0  0.47314  0.06919  0.16244  1.0000
  C   C1739     1.0  0.47182  0.07897  0.15449  1.0000
  C   C1740     1.0  0.47549  0.07888  0.14329  1.0000
  H   H2050     1.0  0.48536  0.05147  0.14527  1.0000
  H   H2051     1.0  0.47928  0.05169  0.16513  1.0000
  H   H2052     1.0  0.46809  0.08667  0.15701  1.0000
  H   H2053     1.0  0.47464  0.08652  0.13722  1.0000
  H   H2054     1.0  0.49493  0.99322  0.22078  1.0000
  C   C1741     1.0  0.41185  0.01152  0.22793  1.0000
  H   H2055     1.0  0.38845  0.98796  0.14806  1.0000
  N   N116      1.0  0.41767  0.26271  0.01269  1.0000
  C   C1742     1.0  0.42974  0.06339  0.09559  1.0000
  C   C1743     1.0  0.42348  0.05901  0.10570  1.0000
  C   C1744     1.0  0.42831  0.05376  0.11473  1.0000
  C   C1745     1.0  0.43939  0.05280  0.11355  1.0000
  C   C1746     1.0  0.44556  0.05716  0.10341  1.0000
  C   C1747     1.0  0.44075  0.06251  0.09449  1.0000
  H   H2056     1.0  0.41492  0.05981  0.10660  1.0000
  H   H2057     1.0  0.42346  0.05051  0.12258  1.0000
  H   H2058     1.0  0.41129  0.35910  0.03488  1.0000
  H   H2059     1.0  0.42423  0.23129  0.02774  1.0000
  H   H2060     1.0  0.42471  0.11202  0.04841  1.0000
  H   H2061     1.0  0.42410  0.36063  0.02592  1.0000
  H   H2062     1.0  0.49838  0.28662  0.06141  1.0000
  C   C1748     1.0  0.42954  0.00694  0.11145  1.0000
  H   H2063     1.0  0.49757  0.33711  0.01594  1.0000
  H   H2064     1.0  0.40858  0.13952  0.03995  1.0000
  H   H2065     1.0  0.42093  0.45002  0.02969  1.0000
  H   H2066     1.0  0.47458  0.26154  0.00181  1.0000
  H   H2067     1.0  0.39541  0.07218  0.03366  1.0000
  C   C1749     1.0  0.39757  0.01340  0.12726  1.0000
  S   S482      1.0  0.47055  0.20796  0.01820  1.0000
  S   S483      1.0  0.56473  0.45372  0.05097  1.0000
  H   H2068     1.0  0.47543  0.09170  0.09616  1.0000
  N   N117      1.0  0.49273  0.08900  0.09329  1.0000
  H   H2069     1.0  0.40631  0.07441  0.21261  1.0000
  H   H2070     1.0  0.42314  0.34972  0.03798  1.0000
  C   C1750     1.0  0.41896  0.31852  0.02131  1.0000
  H   H2071     1.0  0.42493  0.27838  0.99504  1.0000
  H   H2072     1.0  0.47622  0.40065  0.00011  1.0000
  H   H2073     1.0  0.46674  0.00575  0.18233  1.0000
  H   H2074     1.0  0.46140  0.34658  0.99868  1.0000
  C   C1751     1.0  0.40140  0.08113  0.01225  1.0000
  N   N118      1.0  0.51946  0.38564  0.04991  1.0000
  C   C1752     1.0  0.52589  0.38694  0.03841  1.0000
  C   C1753     1.0  0.52033  0.37369  0.05463  1.0000
  C   C1754     1.0  0.50793  0.39062  0.04973  1.0000
  C   C1755     1.0  0.52323  0.39125  0.05613  1.0000
  C   C1756     1.0  0.52697  0.38579  0.06595  1.0000
  C   C1757     1.0  0.52303  0.40265  0.05250  1.0000
  C   C1758     1.0  0.53026  0.39147  0.07168  1.0000
  C   C1759     1.0  0.52630  0.40825  0.05829  1.0000
  C   C1760     1.0  0.52992  0.40267  0.06786  1.0000
  H   H2075     1.0  0.53468  0.38371  0.03815  1.0000
  H   H2076     1.0  0.52341  0.38259  0.03357  1.0000
  H   H2077     1.0  0.52480  0.39566  0.03386  1.0000
  H   H2078     1.0  0.51742  0.36976  0.04972  1.0000
  H   H2079     1.0  0.51517  0.37212  0.06307  1.0000
  H   H2080     1.0  0.52885  0.36932  0.05480  1.0000
  H   H2081     1.0  0.50668  0.39930  0.04505  1.0000
  H   H2082     1.0  0.50463  0.38610  0.04578  1.0000
  H   H2083     1.0  0.50286  0.39048  0.05820  1.0000
  H   H2084     1.0  0.52736  0.37715  0.06941  1.0000
  H   H2085     1.0  0.52024  0.40735  0.04518  1.0000
  H   H2086     1.0  0.53305  0.38719  0.07917  1.0000
  H   H2087     1.0  0.52597  0.41701  0.05535  1.0000
  H   H2088     1.0  0.53242  0.40708  0.07234  1.0000
  S   S484      1.0  0.39263  0.42633  0.00524  1.0000
  H   H2089     1.0  0.44318  0.98978  0.13779  1.0000
  C   C1761     1.0  0.45805  0.00017  0.14930  1.0000
  H   H2090     1.0  0.38983  0.00302  0.15484  1.0000
  Fe  Fe227     1.0  0.39213  0.06036  0.16652  1.0000
  H   H2091     1.0  0.50364  0.24029  0.05516  1.0000
  C   C1762     1.0  0.51255  0.01194  0.14622  1.0000
  H   H2092     1.0  0.39839  0.00504  0.11476  1.0000
  N   N119      1.0  0.45838  0.01173  0.14821  1.0000
  H   H2093     1.0  0.42940  0.01016  0.18011  1.0000
  C   C1763     1.0  0.49894  0.33707  0.00708  1.0000
  C   C1764     1.0  0.50006  0.24881  0.05549  1.0000
  C   C1765     1.0  0.40663  0.08299  0.20804  1.0000
  H   H2094     1.0  0.50860  0.24881  0.06733  1.0000
  H   H2095     1.0  0.44709  0.10908  0.01801  1.0000
  C   C1766     1.0  0.42070  0.98982  0.13010  1.0000
  H   H2096     1.0  0.41790  0.27902  0.01355  1.0000
  S   S485      1.0  0.43858  0.33320  0.02846  1.0000
  H   H2097     1.0  0.48907  0.11145  0.08628  1.0000
  N   N120      1.0  0.51321  0.45502  0.00280  1.0000
  C   C1767     1.0  0.50734  0.45262  0.01448  1.0000
  S   S486      1.0  0.40981  0.02805  0.07777  1.0000
  H   H2098     1.0  0.57452  0.44831  0.02992  1.0000
  H   H2099     1.0  0.39666  0.99748  0.17639  1.0000
  H   H2100     1.0  0.41600  0.18408  0.03544  1.0000
  C   C1768     1.0  0.50161  0.44411  0.99933  1.0000
  C   C1769     1.0  0.48525  0.12253  0.99293  1.0000
  H   H2101     1.0  0.51386  0.33579  0.98709  1.0000
  H   H2102     1.0  0.50831  0.44368  0.01791  1.0000
  S   S487      1.0  0.42663  0.14837  0.98970  1.0000
  H   H2103     1.0  0.49854  0.45640  0.01546  1.0000
  H   H2104     1.0  0.52625  0.44083  0.00457  1.0000
  H   H2105     1.0  0.50911  0.08854  0.09343  1.0000
  H   H2106     1.0  0.52808  0.45254  0.00798  1.0000
  C   C1770     1.0  0.49220  0.99007  0.11033  1.0000
  Fe  Fe228     1.0  0.48631  0.22960  0.01628  1.0000
  H   H2107     1.0  0.48357  0.00688  0.19513  1.0000
  H   H2108     1.0  0.41185  0.01647  0.20050  1.0000
  H   H2109     1.0  0.49804  0.44164  0.00796  1.0000
  C   C1771     1.0  0.40306  0.14747  0.03869  1.0000
  H   H2110     1.0  0.46058  0.09580  0.02773  1.0000
  H   H2111     1.0  0.42453  0.09270  0.07599  1.0000
  C   C1772     1.0  0.45453  0.36670  0.03711  1.0000
  H   H2112     1.0  0.40129  0.36184  0.98978  1.0000
  C   C1773     1.0  0.44672  0.37646  0.03636  1.0000
  S   S488      1.0  0.49226  0.01642  0.12084  1.0000
  C   C1774     1.0  0.42520  0.30783  0.02154  1.0000
  H   H2113     1.0  0.43197  0.25587  0.01942  1.0000
  Fe  Fe229     1.0  0.40614  0.21299  0.00887  1.0000
  C   C1775     1.0  0.48728  0.35493  0.00496  1.0000
  N   N121      1.0  0.42109  0.36583  0.04110  1.0000
  C   C1776     1.0  0.48915  0.28953  0.04480  1.0000
  H   H2114     1.0  0.44900  0.39755  0.98701  1.0000
  S   S489      1.0  0.42319  0.20404  0.00898  1.0000
  Fe  Fe230     1.0  0.48155  0.20722  0.02875  1.0000
  C   C1777     1.0  0.40640  0.00932  0.07520  1.0000
  H   H2115     1.0  0.41685  0.06397  0.18841  1.0000
  N   N122      1.0  0.43738  0.09755  0.06238  1.0000
  S   S490      1.0  0.49038  0.15126  0.02009  1.0000
  H   H2116     1.0  0.42814  0.09420  0.98760  1.0000
  H   H2117     1.0  0.41490  0.22032  0.02214  1.0000
  H   H2118     1.0  0.49243  0.43505  0.99523  1.0000
  S   S491      1.0  0.46714  0.14234  0.01629  1.0000
  C   C1778     1.0  0.43833  0.31228  0.02842  1.0000
  N   N123      1.0  0.44511  0.06184  0.15246  1.0000
  C   C1779     1.0  0.44247  0.05154  0.15988  1.0000
  C   C1780     1.0  0.45534  0.05878  0.14446  1.0000
  C   C1781     1.0  0.44722  0.06845  0.15896  1.0000
  C   C1782     1.0  0.43590  0.06801  0.14725  1.0000
  C   C1783     1.0  0.43663  0.07005  0.13574  1.0000
  C   C1784     1.0  0.42562  0.07171  0.15383  1.0000
  C   C1785     1.0  0.42755  0.07523  0.13123  1.0000
  C   C1786     1.0  0.41664  0.07702  0.14921  1.0000
  C   C1787     1.0  0.41758  0.07869  0.13795  1.0000
  H   H2119     1.0  0.44068  0.04643  0.15530  1.0000
  H   H2120     1.0  0.44924  0.04652  0.16389  1.0000
  H   H2121     1.0  0.43522  0.05304  0.16657  1.0000
  H   H2122     1.0  0.45445  0.05336  0.13965  1.0000
  H   H2123     1.0  0.46208  0.05414  0.14865  1.0000
  H   H2124     1.0  0.45801  0.06614  0.13869  1.0000
  H   H2125     1.0  0.44018  0.07069  0.16558  1.0000
  H   H2126     1.0  0.45401  0.06388  0.16311  1.0000
  H   H2127     1.0  0.44945  0.07619  0.15361  1.0000
  H   H2128     1.0  0.44404  0.06747  0.13004  1.0000
  H   H2129     1.0  0.42436  0.07023  0.16265  1.0000
  H   H2130     1.0  0.42821  0.07633  0.12249  1.0000
  H   H2131     1.0  0.40880  0.07954  0.15441  1.0000
  H   H2132     1.0  0.41048  0.08250  0.13449  1.0000
  N   N124      1.0  0.46538  0.01684  0.08671  1.0000
  C   C1788     1.0  0.46352  0.01465  0.09885  1.0000
  C   C1789     1.0  0.47001  0.00617  0.08334  1.0000
  C   C1790     1.0  0.47366  0.02362  0.08176  1.0000
  C   C1791     1.0  0.45506  0.02273  0.08333  1.0000
  C   C1792     1.0  0.44933  0.01784  0.07889  1.0000
  C   C1793     1.0  0.45027  0.03362  0.08472  1.0000
  C   C1794     1.0  0.43964  0.02368  0.07573  1.0000
  C   C1795     1.0  0.44065  0.03940  0.08140  1.0000
  C   C1796     1.0  0.43537  0.03446  0.07688  1.0000
  H   H2133     1.0  0.45729  0.00963  0.10285  1.0000
  H   H2134     1.0  0.47108  0.01009  0.10176  1.0000
  H   H2135     1.0  0.46066  0.02235  0.10194  1.0000
  H   H2136     1.0  0.47146  0.00724  0.07428  1.0000
  H   H2137     1.0  0.46463  0.00027  0.08738  1.0000
  H   H2138     1.0  0.47792  0.00205  0.08569  1.0000
  H   H2139     1.0  0.47471  0.02611  0.07266  1.0000
  H   H2140     1.0  0.47161  0.03120  0.08493  1.0000
  H   H2141     1.0  0.48170  0.01910  0.08357  1.0000
  H   H2142     1.0  0.45208  0.00950  0.07782  1.0000
  H   H2143     1.0  0.45390  0.03779  0.08839  1.0000
  H   H2144     1.0  0.43532  0.01979  0.07245  1.0000
  H   H2145     1.0  0.43723  0.04776  0.08234  1.0000
  H   H2146     1.0  0.42786  0.03894  0.07439  1.0000
  H   H2147     1.0  0.42185  0.35288  0.05567  1.0000
  H   H2148     1.0  0.41791  0.36650  0.05810  1.0000
  H   H2149     1.0  0.40998  0.07661  0.01173  1.0000
  C   C1797     1.0  0.42630  0.09542  0.06687  1.0000
  H   H2150     1.0  0.42236  0.04951  0.21683  1.0000
  C   C1798     1.0  0.46943  0.40370  0.98611  1.0000
  C   C1799     1.0  0.52485  0.44994  0.00230  1.0000
  C   C1800     1.0  0.45537  0.27424  0.00925  1.0000
  C   C1801     1.0  0.40207  0.08065  0.19234  1.0000
  C   C1802     1.0  0.46206  0.01646  0.13633  1.0000
  C   C1803     1.0  0.47398  0.28479  0.05919  1.0000
  H   H2151     1.0  0.42830  0.99229  0.08313  1.0000
  C   C1804     1.0  0.51106  0.99938  0.18816  1.0000
  H   H2152     1.0  0.50582  0.35421  0.00892  1.0000
  C   C1805     1.0  0.50066  0.00607  0.18873  1.0000
  H   H2153     1.0  0.45438  0.24136  0.99701  1.0000
  H   H2154     1.0  0.41494  0.24638  0.01629  1.0000
  C   C1806     1.0  0.49868  0.34810  0.98848  1.0000
  S   S492      1.0  0.49486  0.21229  0.01460  1.0000
  C   C1807     1.0  0.43560  0.14289  0.01824  1.0000
  H   H2155     1.0  0.42698  0.02064  0.09787  1.0000
  H   H2156     1.0  0.48802  0.02090  0.15422  1.0000
  C   C1808     1.0  0.46777  0.21880  0.98573  1.0000
  H   H2157     1.0  0.40383  0.25603  0.02233  1.0000
  H   H2158     1.0  0.49003  0.12238  0.06753  1.0000
  H   H2159     1.0  0.41473  0.99564  0.13485  1.0000
  C   C1809     1.0  0.49166  0.26468  0.01483  1.0000
  S   S493      1.0  0.44770  0.98786  0.09101  1.0000
  H   H2160     1.0  0.43306  0.13319  0.00861  1.0000
  C   C1810     1.0  0.40309  0.18425  0.02272  1.0000
  N   N125      1.0  0.45303  0.18160  0.02584  1.0000
  C   C1811     1.0  0.44514  0.18087  0.02002  1.0000
  C   C1812     1.0  0.46258  0.18451  0.01732  1.0000
  C   C1813     1.0  0.45640  0.17057  0.03267  1.0000
  C   C1814     1.0  0.44869  0.18971  0.03290  1.0000
  C   C1815     1.0  0.43780  0.19579  0.03443  1.0000
  C   C1816     1.0  0.45544  0.19168  0.03859  1.0000
  C   C1817     1.0  0.43412  0.20360  0.04095  1.0000
  C   C1818     1.0  0.45176  0.19961  0.04492  1.0000
  C   C1819     1.0  0.44113  0.20563  0.04603  1.0000
  H   H2161     1.0  0.44252  0.18881  0.01444  1.0000
  H   H2162     1.0  0.44863  0.17462  0.01490  1.0000
  H   H2163     1.0  0.43788  0.17835  0.02590  1.0000
  H   H2164     1.0  0.46047  0.19294  0.01227  1.0000
  H   H2165     1.0  0.46588  0.17873  0.01169  1.0000
  H   H2166     1.0  0.46937  0.18423  0.02094  1.0000
  H   H2167     1.0  0.44944  0.16803  0.03915  1.0000
  H   H2168     1.0  0.45976  0.16422  0.02765  1.0000
  H   H2169     1.0  0.46277  0.17024  0.03687  1.0000
  H   H2170     1.0  0.43202  0.19489  0.03047  1.0000
  H   H2171     1.0  0.46374  0.18725  0.03800  1.0000
  H   H2172     1.0  0.42586  0.20834  0.04179  1.0000
  H   H2173     1.0  0.45728  0.20116  0.04884  1.0000
  H   H2174     1.0  0.43836  0.21194  0.05076  1.0000
  C   C1820     1.0  0.43391  0.01088  0.12666  1.0000
  C   C1821     1.0  0.53727  0.47441  0.98663  1.0000
  C   C1822     1.0  0.39555  0.05538  0.21655  1.0000
  C   C1823     1.0  0.40677  0.05254  0.21284  1.0000
  H   H2175     1.0  0.40152  0.01145  0.15765  1.0000
  H   H2176     1.0  0.51463  0.47049  0.00473  1.0000
  H   H2177     1.0  0.48774  0.12415  0.99947  1.0000
  N   N126      1.0  0.39745  0.08703  0.02137  1.0000
  Fe  Fe231     1.0  0.39131  0.05335  0.19137  1.0000
  C   C1824     1.0  0.46541  0.01215  0.15513  1.0000
  S   S494      1.0  0.48755  0.20665  0.98946  1.0000
  C   C1825     1.0  0.42957  0.25893  0.01134  1.0000
  C   C1826     1.0  0.43499  0.11095  0.03280  1.0000
  S   S495      1.0  0.49908  0.01971  0.18147  1.0000
  H   H2178     1.0  0.40107  0.08679  0.00408  1.0000
  H   H2179     1.0  0.51804  0.00276  0.18351  1.0000
  S   S496      1.0  0.55939  0.45237  0.00224  1.0000
  H   H2180     1.0  0.47993  0.10105  0.10078  1.0000
  H   H2181     1.0  0.42913  0.99363  0.14461  1.0000
  C   C1827     1.0  0.44182  0.39408  0.99158  1.0000
  H   H2182     1.0  0.43395  0.26555  0.00671  1.0000
  C   C1828     1.0  0.49165  0.17188  0.02016  1.0000
  H   H2183     1.0  0.43270  0.25204  0.00700  1.0000
  H   H2184     1.0  0.41807  0.33457  0.02360  1.0000
  H   H2185     1.0  0.44614  0.10904  0.06273  1.0000
  C   C1829     1.0  0.41992  0.35853  0.03470  1.0000
  H   H2186     1.0  0.39781  0.19211  0.04138  1.0000
  H   H2187     1.0  0.41141  0.32091  0.01867  1.0000
  H   H2188     1.0  0.42529  0.08881  0.06359  1.0000
  N   N127      1.0  0.45426  0.00106  0.23323  1.0000
  C   C1830     1.0  0.42868  0.22629  0.02185  1.0000
  C   C1831     1.0  0.41366  0.05136  0.21984  1.0000
  H   H2189     1.0  0.40106  0.08454  0.06429  1.0000
  N   N128      1.0  0.39637  0.02209  0.14304  1.0000
  C   C1832     1.0  0.40020  0.03124  0.13435  1.0000
  Fe  Fe232     1.0  0.39029  0.32771  0.00468  1.0000
  C   C1833     1.0  0.40427  0.01762  0.15026  1.0000
  H   H2190     1.0  0.49780  0.23756  0.99166  1.0000
  H   H2191     1.0  0.39449  0.03520  0.12877  1.0000
  H   H2192     1.0  0.46629  0.99513  0.14684  1.0000
  H   H2193     1.0  0.44375  0.31313  0.99874  1.0000
  H   H2194     1.0  0.40662  0.19155  0.02090  1.0000
  N   N129      1.0  0.43176  0.99161  0.12803  1.0000
  H   H2195     1.0  0.50428  0.99428  0.16973  1.0000
  H   H2196     1.0  0.40076  0.03789  0.13790  1.0000
  H   H2197     1.0  0.40838  0.02843  0.12936  1.0000
  H   H2198     1.0  0.38712  0.45832  0.05239  1.0000
  C   C1834     1.0  0.39100  0.00138  0.20601  1.0000
  C   C1835     1.0  0.39722  0.09119  0.05854  1.0000
  H   H2199     1.0  0.41225  0.01358  0.14581  1.0000
  H   H2200     1.0  0.40564  0.02415  0.15338  1.0000
  C   C1836     1.0  0.50655  0.35316  0.00049  1.0000
  H   H2201     1.0  0.46370  0.41107  0.98793  1.0000
  S   S497      1.0  0.40565  0.11745  0.03562  1.0000
  H   H2202     1.0  0.41013  0.05152  0.20451  1.0000
  H   H2203     1.0  0.40341  0.10128  0.01105  1.0000
  C   C1837     1.0  0.44560  0.21879  0.01058  1.0000
  C   C1838     1.0  0.48638  0.30751  0.99243  1.0000
  C   C1839     1.0  0.49299  0.99058  0.19994  1.0000
  C   C1840     1.0  0.48816  0.16507  0.99261  1.0000
  H   H2204     1.0  0.43066  0.03379  0.10620  1.0000
  H   H2205     1.0  0.43477  0.05231  0.18563  1.0000
  H   H2206     1.0  0.50633  0.36140  0.99487  1.0000
  S   S498      1.0  0.49436  0.38240  0.99779  1.0000
  C   C1841     1.0  0.55165  0.45947  0.99245  1.0000
  H   H2207     1.0  0.48056  0.08732  0.10843  1.0000
  H   H2208     1.0  0.49518  0.17262  0.01154  1.0000
  C   C1842     1.0  0.38893  0.00619  0.07582  1.0000
  H   H2209     1.0  0.41429  0.09584  0.18138  1.0000
  C   C1843     1.0  0.39338  0.99553  0.13099  1.0000
  C   C1844     1.0  0.47281  0.27012  0.99700  1.0000
  H   H2210     1.0  0.49812  0.28805  0.04191  1.0000
  C   C1845     1.0  0.49076  0.27118  0.05617  1.0000
  S   S499      1.0  0.42975  0.99718  0.16539  1.0000
  H   H2211     1.0  0.44715  0.02667  0.15148  1.0000
  Fe  Fe233     1.0  0.40229  0.12610  0.01886  1.0000
  H   H2212     1.0  0.48272  0.01421  0.17430  1.0000
  C   C1846     1.0  0.42807  0.23701  0.98665  1.0000
  H   H2213     1.0  0.57953  0.43634  0.06783  1.0000
  S   S500      1.0  0.39282  0.21389  0.02387  1.0000
  H   H2214     1.0  0.46286  0.36680  0.03661  1.0000
  C   C1847     1.0  0.43029  0.07885  0.19575  1.0000
  H   H2215     1.0  0.47054  0.28297  0.05317  1.0000
  C   C1848     1.0  0.50628  0.99802  0.14216  1.0000
  H   H2216     1.0  0.49927  0.09955  0.09873  1.0000
  H   H2217     1.0  0.49959  0.26462  0.00944  1.0000
  H   H2218     1.0  0.52993  0.45221  0.99396  1.0000
  C   C1849     1.0  0.49472  0.07700  0.09415  1.0000
  H   H2219     1.0  0.38940  0.18638  0.00627  1.0000
  H   H2220     1.0  0.46429  0.14513  0.98897  1.0000
  H   H2221     1.0  0.44650  0.39161  0.01062  1.0000
  H   H2222     1.0  0.58332  0.45325  0.99907  1.0000
  H   H2223     1.0  0.45020  0.05735  0.18860  1.0000
  C   C1850     1.0  0.41396  0.44742  0.02925  1.0000
  S   S501      1.0  0.40671  0.04691  0.09635  1.0000
  C   C1851     1.0  0.41314  0.01195  0.20858  1.0000
  C   C1852     1.0  0.49162  0.00173  0.19474  1.0000
  C   C1853     1.0  0.40011  0.00246  0.07473  1.0000
  S   S502      1.0  0.47592  0.23179  0.00450  1.0000
  C   C1854     1.0  0.49104  0.99732  0.11698  1.0000
  H   H2224     1.0  0.48573  0.29615  0.06324  1.0000
  H   H2225     1.0  0.42060  0.99680  0.20327  1.0000
  C   C1855     1.0  0.40356  0.45192  0.03468  1.0000
  H   H2226     1.0  0.43027  0.38421  0.03692  1.0000
  C   C1856     1.0  0.49757  0.09708  0.06188  1.0000
  H   H2227     1.0  0.44750  0.07419  0.19510  1.0000
  H   H2228     1.0  0.46602  0.11244  0.98872  1.0000
  H   H2229     1.0  0.55654  0.48282  0.00067  1.0000
  H   H2230     1.0  0.38667  0.03211  0.07866  1.0000
  H   H2231     1.0  0.41830  0.02913  0.22766  1.0000
  C   C1857     1.0  0.50419  0.99260  0.15344  1.0000
  C   C1858     1.0  0.49321  0.00778  0.11224  1.0000
  H   H2232     1.0  0.48591  0.28760  0.03870  1.0000
  H   H2233     1.0  0.43786  0.13587  0.02459  1.0000
  H   H2234     1.0  0.58024  0.46745  0.99206  1.0000
  C   C1859     1.0  0.43354  0.02179  0.12092  1.0000
  H   H2235     1.0  0.44169  0.01808  0.14679  1.0000
  C   C1860     1.0  0.39951  0.16756  0.03558  1.0000
  H   H2236     1.0  0.50323  0.47122  0.99927  1.0000
  C   C1861     1.0  0.49268  0.25495  0.04905  1.0000
  H   H2237     1.0  0.39037  0.16917  0.00087  1.0000
  H   H2238     1.0  0.50306  0.07368  0.08980  1.0000
  H   H2239     1.0  0.51192  0.01054  0.16323  1.0000
  H   H2240     1.0  0.44324  0.06609  0.22090  1.0000
  C   C1862     1.0  0.48806  0.26593  0.04942  1.0000
  C   C1863     1.0  0.43799  0.10706  0.06613  1.0000
  H   H2241     1.0  0.46928  0.00611  0.22971  1.0000
  H   H2242     1.0  0.42945  0.08594  0.19894  1.0000
  C   C1864     1.0  0.43260  0.32320  0.02732  1.0000
  H   H2243     1.0  0.40850  0.36083  0.05482  1.0000
  H   H2244     1.0  0.46255  0.04489  0.23211  1.0000
  H   H2245     1.0  0.41559  0.09869  0.19365  1.0000
  H   H2246     1.0  0.43278  0.34081  0.00277  1.0000
  H   H2247     1.0  0.48706  0.98977  0.16994  1.0000
  H   H2248     1.0  0.48712  0.30610  0.00077  1.0000
  H   H2249     1.0  0.50086  0.26791  0.06810  1.0000
  C   C1865     1.0  0.44063  0.07211  0.19374  1.0000
  C   C1866     1.0  0.50071  0.09084  0.09827  1.0000
  C   C1867     1.0  0.45158  0.35677  0.03881  1.0000
  H   H2250     1.0  0.51570  0.01934  0.14349  1.0000
  N   N130      1.0  0.46106  0.27460  0.99758  1.0000
  C   C1868     1.0  0.43995  0.10014  0.05020  1.0000
  H   H2251     1.0  0.45658  0.09020  0.04762  1.0000
  C   C1869     1.0  0.39810  0.05477  0.23461  1.0000
  H   H2252     1.0  0.50036  0.08587  0.10686  1.0000
  S   S503      1.0  0.44639  0.23333  0.02182  1.0000
  C   C1870     1.0  0.49830  0.26467  0.06269  1.0000
  S   S504      1.0  0.39670  0.20853  0.99960  1.0000
  H   H2253     1.0  0.49055  0.25121  0.04366  1.0000
  H   H2254     1.0  0.42973  0.37877  0.00114  1.0000
  H   H2255     1.0  0.45136  0.15410  0.98886  1.0000
  H   H2256     1.0  0.41506  0.00636  0.07430  1.0000
  C   C1871     1.0  0.42269  0.32623  0.02416  1.0000
  H   H2257     1.0  0.39482  0.18737  0.02113  1.0000
  H   H2258     1.0  0.50712  0.33185  0.00496  1.0000
  H   H2259     1.0  0.44703  0.41907  0.99817  1.0000
  C   C1872     1.0  0.47483  0.01660  0.15079  1.0000
  H   H2260     1.0  0.40782  0.42999  0.01802  1.0000
  H   H2261     1.0  0.43571  0.37325  0.01294  1.0000
  H   H2262     1.0  0.44080  0.11432  0.99105  1.0000
  H   H2263     1.0  0.45765  0.34916  0.03961  1.0000
  C   C1873     1.0  0.44079  0.35656  0.03989  1.0000
  C   C1874     1.0  0.47303  0.11589  0.98685  1.0000
  C   C1875     1.0  0.44494  0.08772  0.06722  1.0000
  C   C1876     1.0  0.44733  0.99002  0.19299  1.0000
  Fe  Fe234     1.0  0.46935  0.12411  0.02096  1.0000
  C   C1877     1.0  0.43409  0.09723  0.98994  1.0000
  H   H2264     1.0  0.50086  0.00594  0.08538  1.0000
  H   H2265     1.0  0.48407  0.36071  0.98558  1.0000
  H   H2266     1.0  0.39281  0.98870  0.12812  1.0000
  C   C1878     1.0  0.43248  0.10794  0.04428  1.0000
  H   H2267     1.0  0.42797  0.00152  0.10738  1.0000
  C   C1879     1.0  0.41716  0.36132  0.05294  1.0000
  C   C1880     1.0  0.48743  0.25519  0.01804  1.0000
  C   C1881     1.0  0.42345  0.21996  0.01880  1.0000
  H   H2268     1.0  0.44904  0.38416  0.03527  1.0000
  Fe  Fe235     1.0  0.45620  0.32529  0.02663  1.0000
  C   C1882     1.0  0.41383  0.17617  0.03624  1.0000
  H   H2269     1.0  0.50641  0.15081  0.99519  1.0000
  Fe  Fe236     1.0  0.40180  0.12256  0.99677  1.0000
  H   H2270     1.0  0.45326  0.08910  0.06545  1.0000
  H   H2271     1.0  0.44243  0.08553  0.07636  1.0000
  Fe  Fe237     1.0  0.47854  0.14009  0.02708  1.0000
  C   C1883     1.0  0.38827  0.00174  0.17776  1.0000
  N   N131      1.0  0.49779  0.34834  0.00005  1.0000
  C   C1884     1.0  0.51267  0.41128  0.99032  1.0000
  C   C1885     1.0  0.41391  0.27209  0.01820  1.0000
  H   H2272     1.0  0.49233  0.18834  0.01978  1.0000
  Fe  Fe238     1.0  0.46415  0.22547  0.01949  1.0000
  H   H2273     1.0  0.40848  0.07516  0.03079  1.0000
  C   C1886     1.0  0.49366  0.09551  0.08184  1.0000
  S   S505      1.0  0.46966  0.33426  0.02147  1.0000
  C   C1887     1.0  0.41478  0.26629  0.00182  1.0000
  H   H2274     1.0  0.40074  0.07236  0.19683  1.0000
  C   C1888     1.0  0.41929  0.27459  0.99360  1.0000
  H   H2275     1.0  0.48883  0.07496  0.09078  1.0000
  S   S506      1.0  0.40433  0.29974  0.99655  1.0000
  H   H2276     1.0  0.49828  0.01903  0.09714  1.0000
  C   C1889     1.0  0.48711  0.29855  0.98812  1.0000
  H   H2277     1.0  0.43912  0.00637  0.19503  1.0000
  C   C1890     1.0  0.42943  0.21275  0.01192  1.0000
  H   H2278     1.0  0.49972  0.09321  0.05495  1.0000
  H   H2279     1.0  0.39845  0.03237  0.23030  1.0000
  S   S507      1.0  0.38882  0.12560  0.01177  1.0000
  H   H2280     1.0  0.41559  0.26975  0.02658  1.0000
  S   S508      1.0  0.46853  0.11502  0.00886  1.0000
  C   C1891     1.0  0.48473  0.31817  0.98596  1.0000
  H   H2281     1.0  0.48894  0.28155  0.01603  1.0000
  C   C1892     1.0  0.49680  0.09064  0.07257  1.0000
  C   C1893     1.0  0.49801  0.00358  0.09419  1.0000
  C   C1894     1.0  0.41277  0.25356  0.02012  1.0000
  S   S509      1.0  0.40256  0.23098  0.00152  1.0000
  H   H2282     1.0  0.49846  0.08188  0.07332  1.0000
  C   C1895     1.0  0.48947  0.28725  0.06363  1.0000
  C   C1896     1.0  0.41745  0.00035  0.22901  1.0000
  H   H2283     1.0  0.46001  0.01480  0.22158  1.0000
  C   C1897     1.0  0.43445  0.38048  0.00610  1.0000
  H   H2284     1.0  0.41104  0.09865  0.05229  1.0000
  C   C1898     1.0  0.51041  0.00696  0.15734  1.0000
  H   H2285     1.0  0.38998  0.14062  0.03874  1.0000
  H   H2286     1.0  0.51047  0.45580  0.01984  1.0000
  C   C1899     1.0  0.41073  0.09518  0.19034  1.0000
  C   C1900     1.0  0.38755  0.10843  0.04343  1.0000
  H   H2287     1.0  0.45291  0.37731  0.01265  1.0000
  H   H2288     1.0  0.41818  0.99071  0.12237  1.0000
  Fe  Fe239     1.0  0.40224  0.04458  0.08189  1.0000
  H   H2289     1.0  0.45095  0.29027  0.99201  1.0000
  C   C1901     1.0  0.50936  0.45083  0.99542  1.0000
  H   H2290     1.0  0.43569  0.00875  0.13470  1.0000
  C   C1902     1.0  0.47611  0.11813  0.99533  1.0000
  C   C1903     1.0  0.49583  0.99312  0.09894  1.0000
  S   S510      1.0  0.40057  0.14036  0.98845  1.0000
  H   H2291     1.0  0.46017  0.25285  0.00522  1.0000
  C   C1904     1.0  0.45696  0.26790  0.99279  1.0000
  C   C1905     1.0  0.39094  0.99511  0.14222  1.0000
  C   C1906     1.0  0.40718  0.26209  0.99921  1.0000
  H   H2292     1.0  0.51779  0.99386  0.23190  1.0000
  H   H2293     1.0  0.45883  0.38696  0.00137  1.0000
  H   H2294     1.0  0.46706  0.00193  0.21853  1.0000
  H   H2295     1.0  0.40797  0.17914  0.01667  1.0000
  S   S511      1.0  0.39131  0.07277  0.15061  1.0000
  H   H2296     1.0  0.50464  0.99523  0.13583  1.0000
  H   H2297     1.0  0.42938  0.10152  0.99667  1.0000
  C   C1907     1.0  0.48448  0.38877  0.99017  1.0000
  C   C1908     1.0  0.42054  0.99516  0.22020  1.0000
  H   H2298     1.0  0.39933  0.07406  0.12730  1.0000
  H   H2299     1.0  0.49445  0.01223  0.22131  1.0000
  H   H2300     1.0  0.38719  0.98996  0.11145  1.0000
  S   S512      1.0  0.39571  0.03545  0.19116  1.0000
  H   H2301     1.0  0.46132  0.06851  0.22050  1.0000
  C   C1909     1.0  0.39810  0.10780  0.04415  1.0000
  N   N132      1.0  0.44446  0.32843  0.98668  1.0000
  H   H2302     1.0  0.40012  0.02022  0.12101  1.0000
  C   C1910     1.0  0.51245  0.98833  0.19364  1.0000
  C   C1911     1.0  0.40286  0.09922  0.05178  1.0000
  H   H2303     1.0  0.39810  0.99678  0.20965  1.0000
  H   H2304     1.0  0.51470  0.34801  0.99798  1.0000
  C   C1912     1.0  0.43508  0.34550  0.99450  1.0000
  H   H2305     1.0  0.48038  0.35181  0.00458  1.0000
  H   H2306     1.0  0.42016  0.17202  0.03014  1.0000
  H   H2307     1.0  0.50388  0.40139  0.98739  1.0000
  H   H2308     1.0  0.42354  0.43610  0.01903  1.0000
  C   C1913     1.0  0.45362  0.36346  0.99931  1.0000
  C   C1914     1.0  0.45466  0.06986  0.22747  1.0000
  C   C1915     1.0  0.40379  0.09551  0.01910  1.0000
  H   H2309     1.0  0.50953  0.40938  0.99913  1.0000
  C   C1916     1.0  0.44449  0.06849  0.22772  1.0000
  S   S513      1.0  0.39669  0.04305  0.16457  1.0000
  C   C1917     1.0  0.42319  0.06667  0.18994  1.0000
  H   H2310     1.0  0.40438  0.08088  0.18337  1.0000
  H   H2311     1.0  0.39398  0.08626  0.19401  1.0000
  S   S514      1.0  0.39294  0.07247  0.09087  1.0000
  H   H2312     1.0  0.46022  0.32828  0.98857  1.0000
  C   C1918     1.0  0.45964  0.28633  0.99179  1.0000
  C   C1919     1.0  0.51044  0.00751  0.13866  1.0000
  H   H2313     1.0  0.40330  0.25578  0.00490  1.0000
  C   C1920     1.0  0.44038  0.00020  0.19042  1.0000
  H   H2314     1.0  0.39414  0.17979  0.05045  1.0000
  H   H2315     1.0  0.43509  0.02764  0.12453  1.0000
  C   C1921     1.0  0.38870  0.35334  0.00935  1.0000
  H   H2316     1.0  0.41210  0.08571  0.21136  1.0000
  H   H2317     1.0  0.48615  0.16775  0.00050  1.0000
  C   C1922     1.0  0.39089  0.06448  0.12292  1.0000
  C   C1923     1.0  0.44095  0.32216  0.99802  1.0000
  C   C1924     1.0  0.44570  0.00217  0.22742  1.0000
  H   H2318     1.0  0.46211  0.02529  0.13486  1.0000
  C   C1925     1.0  0.44723  0.01798  0.15189  1.0000
  H   H2319     1.0  0.39175  0.01688  0.17817  1.0000
  C   C1926     1.0  0.45977  0.35498  0.99401  1.0000
  H   H2320     1.0  0.47636  0.27506  0.00024  1.0000
  H   H2321     1.0  0.44562  0.02309  0.23231  1.0000
  H   H2322     1.0  0.49304  0.33284  0.00631  1.0000
  C   C1927     1.0  0.46304  0.00616  0.22546  1.0000
  N   N133      1.0  0.41034  0.08364  0.19603  1.0000
  C   C1928     1.0  0.39660  0.00469  0.12352  1.0000
  C   C1929     1.0  0.41547  0.43956  0.02326  1.0000
  H   H2323     1.0  0.41486  0.15594  0.03793  1.0000
  C   C1930     1.0  0.49829  0.44022  0.99207  1.0000
  C   C1931     1.0  0.39618  0.44049  0.02812  1.0000
  C   C1932     1.0  0.43495  0.00239  0.18194  1.0000
  H   H2324     1.0  0.48845  0.99483  0.12580  1.0000
  N   N134      1.0  0.44475  0.38335  0.99914  1.0000
  C   C1933     1.0  0.40660  0.43611  0.02270  1.0000
  H   H2325     1.0  0.41437  0.17117  0.04464  1.0000
  H   H2326     1.0  0.44207  0.01085  0.22415  1.0000
  C   C1934     1.0  0.39513  0.18459  0.04180  1.0000
  C   C1935     1.0  0.46904  0.00876  0.17350  1.0000
  H   H2327     1.0  0.43996  0.08996  0.99335  1.0000
  C   C1936     1.0  0.39180  0.00379  0.14603  1.0000
  C   C1937     1.0  0.42124  0.07641  0.19378  1.0000
  H   H2328     1.0  0.43197  0.32378  0.00067  1.0000
  Fe  Fe240     1.0  0.39001  0.41485  0.99671  1.0000
  H   H2329     1.0  0.42908  0.23560  0.99496  1.0000
  H   H2330     1.0  0.51187  0.01155  0.13002  1.0000
  H   H2331     1.0  0.42916  0.38730  0.01004  1.0000
  H   H2332     1.0  0.45218  0.10319  0.98892  1.0000
  C   C1938     1.0  0.49177  0.99590  0.22848  1.0000
  H   H2333     1.0  0.45659  0.01605  0.13138  1.0000
  H   H2334     1.0  0.43641  0.40038  0.99608  1.0000
  H   H2335     1.0  0.39479  0.06618  0.11431  1.0000
  C   C1939     1.0  0.40933  0.05240  0.23078  1.0000
  H   H2336     1.0  0.46720  0.22226  0.99253  1.0000
  C   C1940     1.0  0.50731  0.15946  0.99229  1.0000
  C   C1941     1.0  0.39345  0.06895  0.13028  1.0000
  H   H2337     1.0  0.43907  0.99822  0.23296  1.0000
  H   H2338     1.0  0.48757  0.15632  0.99485  1.0000
  H   H2339     1.0  0.40300  0.45797  0.03915  1.0000
  C   C1942     1.0  0.39970  0.07900  0.03157  1.0000
  H   H2340     1.0  0.44424  0.32416  0.00403  1.0000
  C   C1943     1.0  0.51972  0.41839  0.98584  1.0000
  H   H2341     1.0  0.58250  0.46147  0.05273  1.0000
  H   H2342     1.0  0.50671  0.16211  0.99990  1.0000
  Fe  Fe241     1.0  0.39181  0.22671  0.99356  1.0000
  H   H2343     1.0  0.40698  0.34811  0.98814  1.0000
  H   H2344     1.0  0.46286  0.29110  0.99557  1.0000
  C   C1944     1.0  0.39125  0.05647  0.22746  1.0000
  C   C1945     1.0  0.49152  0.00658  0.22878  1.0000
  C   C1946     1.0  0.45129  0.37451  0.99336  1.0000
  C   C1947     1.0  0.58468  0.45889  0.04503  1.0000
  H   H2345     1.0  0.40069  0.10053  0.02543  1.0000
  H   H2346     1.0  0.39835  0.08810  0.21019  1.0000
  C   C1948     1.0  0.40656  0.15703  0.03748  1.0000
  H   H2347     1.0  0.52200  0.42203  0.99117  1.0000
  C   C1949     1.0  0.44094  0.34048  0.98551  1.0000
  H   H2348     1.0  0.39143  0.99773  0.19909  1.0000
  C   C1950     1.0  0.39042  0.02384  0.07763  1.0000
  H   H2349     1.0  0.38696  0.18756  0.03986  1.0000
  C   C1951     1.0  0.38961  0.37165  0.00987  1.0000
  S   S515      1.0  0.40592  0.10859  0.98814  1.0000
  H   H2350     1.0  0.39728  0.08301  0.03869  1.0000
  C   C1952     1.0  0.38895  0.16786  0.03467  1.0000
  H   H2351     1.0  0.38959  0.43745  0.02748  1.0000
  Fe  Fe242     1.0  0.38695  0.30518  0.00448  1.0000
  H   H2352     1.0  0.58351  0.43039  0.05049  1.0000
  H   H2353     1.0  0.48178  0.16993  0.98801  1.0000
  H   H2354     1.0  0.38747  0.00350  0.22666  1.0000
  H   H2355     1.0  0.46295  0.15975  0.98652  1.0000
  H   H2356     1.0  0.39818  0.26296  0.98743  1.0000
  H   H2357     1.0  0.42952  0.21996  0.98752  1.0000
  C   C1953     1.0  0.39256  0.14807  0.03798  1.0000
  Fe  Fe243     1.0  0.40243  0.31652  0.98572  1.0000
  S   S516      1.0  0.38666  0.05848  0.20764  1.0000
  C   C1954     1.0  0.49950  0.17816  0.98489  1.0000
  H   H2358     1.0  0.45950  0.31629  0.98480  1.0000
  Fe  Fe244     1.0  0.49227  0.02877  0.36978  1.0000
  S   S517      1.0  0.50556  0.03779  0.36244  1.0000
  S   S518      1.0  0.49453  0.01267  0.36565  1.0000
  Fe  Fe245     1.0  0.47690  0.04781  0.37882  1.0000
  S   S519      1.0  0.48917  0.05854  0.37229  1.0000
  S   S520      1.0  0.45956  0.05191  0.38816  1.0000
  Fe  Fe246     1.0  0.49266  0.05201  0.35695  1.0000
  S   S521      1.0  0.49552  0.06012  0.33883  1.0000
  Fe  Fe247     1.0  0.50105  0.04320  0.37847  1.0000
  S   S522      1.0  0.51530  0.03835  0.38688  1.0000
  S   S523      1.0  0.47970  0.04239  0.36320  1.0000
  S   S524      1.0  0.48843  0.03303  0.38612  1.0000
  C   C1955     1.0  0.55454  0.99422  0.45535  1.0000
  Fe  Fe248     1.0  0.38979  0.04233  0.27367  1.0000
  Fe  Fe249     1.0  0.40026  0.04410  0.37788  1.0000
  S   S525      1.0  0.39965  0.06076  0.38000  1.0000
  S   S526      1.0  0.40267  0.02879  0.39086  1.0000
  Fe  Fe250     1.0  0.41058  0.06273  0.36319  1.0000
  S   S527      1.0  0.42601  0.06892  0.35722  1.0000
  S   S528      1.0  0.41243  0.04551  0.36195  1.0000
  C   C1956     1.0  0.38765  0.01994  0.33177  1.0000
  S   S529      1.0  0.40356  0.03191  0.26411  1.0000
  H   H2359     1.0  0.43714  0.03237  0.24743  1.0000
  Fe  Fe251     1.0  0.41138  0.02859  0.27823  1.0000
  S   S530      1.0  0.41901  0.01111  0.28502  1.0000
  S   S531      1.0  0.41957  0.04275  0.27097  1.0000
  Fe  Fe252     1.0  0.46615  0.04120  0.30721  1.0000
  S   S532      1.0  0.47484  0.02354  0.31076  1.0000
  S   S533      1.0  0.46023  0.05083  0.32051  1.0000
  S   S534      1.0  0.47216  0.02285  0.28641  1.0000
  Fe  Fe253     1.0  0.46263  0.02048  0.30368  1.0000
  S   S535      1.0  0.45502  0.00596  0.31052  1.0000
  Fe  Fe254     1.0  0.48368  0.02743  0.29319  1.0000
  S   S536      1.0  0.50123  0.02003  0.28797  1.0000
  S   S537      1.0  0.45305  0.03771  0.30172  1.0000
  S   S538      1.0  0.47608  0.04550  0.29005  1.0000
  H   H2360     1.0  0.45148  0.99218  0.25608  1.0000
  H   H2361     1.0  0.50422  0.01930  0.31047  1.0000
  C   C1957     1.0  0.49495  0.99155  0.28713  1.0000
  Fe  Fe255     1.0  0.54882  0.04960  0.42311  1.0000
  S   S539      1.0  0.55104  0.03283  0.43427  1.0000
  S   S540      1.0  0.53417  0.05793  0.41548  1.0000
  Fe  Fe256     1.0  0.56971  0.05359  0.42587  1.0000
  S   S541      1.0  0.57363  0.03717  0.43700  1.0000
  C   C1958     1.0  0.57122  0.99878  0.41776  1.0000
  Fe  Fe257     1.0  0.56844  0.03113  0.42526  1.0000
  S   S542      1.0  0.57815  0.01546  0.42061  1.0000
  Fe  Fe258     1.0  0.55600  0.04056  0.44498  1.0000
  S   S543      1.0  0.55091  0.03664  0.46343  1.0000
  S   S544      1.0  0.56601  0.04725  0.41323  1.0000
  S   S545      1.0  0.55231  0.05757  0.43473  1.0000
  H   H2362     1.0  0.44429  0.99172  0.32918  1.0000
  H   H2363     1.0  0.51394  0.02964  0.31476  1.0000
  H   H2364     1.0  0.56765  0.00688  0.44334  1.0000
  C   C1959     1.0  0.41716  0.02334  0.23578  1.0000
  H   H2365     1.0  0.49973  0.03576  0.31529  1.0000
  S   S546      1.0  0.54449  0.99611  0.41027  1.0000
  H   H2366     1.0  0.39184  0.02103  0.23695  1.0000
  H   H2367     1.0  0.39465  0.05554  0.24304  1.0000
  C   C1960     1.0  0.55606  0.04442  0.46904  1.0000
  C   C1961     1.0  0.56343  0.05077  0.46232  1.0000
  C   C1962     1.0  0.56721  0.05725  0.46676  1.0000
  S   S547      1.0  0.39687  0.03774  0.28846  1.0000
  N   N135      1.0  0.48019  0.00669  0.25914  1.0000
  H   H2368     1.0  0.56608  0.05086  0.45364  1.0000
  H   H2369     1.0  0.57278  0.06227  0.46147  1.0000
  C   C1963     1.0  0.55456  0.00143  0.41197  1.0000
  H   H2370     1.0  0.39275  0.00509  0.32615  1.0000
  H   H2371     1.0  0.45090  0.04764  0.25026  1.0000
  C   C1964     1.0  0.56956  0.01010  0.41652  1.0000
  C   C1965     1.0  0.56063  0.01712  0.41261  1.0000
  C   C1966     1.0  0.55326  0.01277  0.41012  1.0000
  C   C1967     1.0  0.55156  0.01294  0.38277  1.0000
  H   H2372     1.0  0.55029  0.00472  0.38425  1.0000
  H   H2373     1.0  0.55940  0.02589  0.41151  1.0000
  H   H2374     1.0  0.54644  0.01816  0.40695  1.0000
  C   C1968     1.0  0.50242  0.00731  0.28504  1.0000
  C   C1969     1.0  0.49425  0.00138  0.29001  1.0000
  H   H2375     1.0  0.40251  0.00401  0.24898  1.0000
  H   H2376     1.0  0.48742  0.00434  0.29613  1.0000
  H   H2377     1.0  0.44936  0.02445  0.33703  1.0000
  C   C1970     1.0  0.56359  0.99441  0.41571  1.0000
  C   C1971     1.0  0.46735  0.00170  0.34719  1.0000
  H   H2378     1.0  0.42567  0.09339  0.31332  1.0000
  C   C1972     1.0  0.40420  0.04747  0.30819  1.0000
  C   C1973     1.0  0.42961  0.00946  0.29144  1.0000
  C   C1974     1.0  0.43275  0.99954  0.29868  1.0000
  C   C1975     1.0  0.44073  0.99836  0.30440  1.0000
  C   C1976     1.0  0.44573  0.00703  0.30272  1.0000
  C   C1977     1.0  0.44298  0.01673  0.29506  1.0000
  C   C1978     1.0  0.43480  0.01802  0.28959  1.0000
  H   H2379     1.0  0.48579  0.99763  0.36048  1.0000
  H   H2380     1.0  0.41503  0.07776  0.24871  1.0000
  H   H2381     1.0  0.44693  0.02338  0.29351  1.0000
  H   H2382     1.0  0.43245  0.02573  0.28410  1.0000
  C   C1979     1.0  0.47552  0.04339  0.25604  1.0000
  C   C1980     1.0  0.39981  0.06112  0.32288  1.0000
  C   C1981     1.0  0.40122  0.06557  0.31145  1.0000
  C   C1982     1.0  0.45640  0.07254  0.23639  1.0000
  H   H2383     1.0  0.48401  0.99100  0.27014  1.0000
  C   C1983     1.0  0.51968  0.04392  0.39542  1.0000
  C   C1984     1.0  0.51596  0.05488  0.39629  1.0000
  C   C1985     1.0  0.52034  0.05903  0.40261  1.0000
  C   C1986     1.0  0.52852  0.05230  0.40803  1.0000
  C   C1987     1.0  0.53207  0.04131  0.40733  1.0000
  C   C1988     1.0  0.52765  0.03715  0.40109  1.0000
  H   H2384     1.0  0.50983  0.06019  0.39197  1.0000
  H   H2385     1.0  0.51749  0.06755  0.40316  1.0000
  H   H2386     1.0  0.53831  0.03608  0.41150  1.0000
  H   H2387     1.0  0.53048  0.02863  0.40057  1.0000
  C   C1989     1.0  0.45010  0.05731  0.37968  1.0000
  C   C1990     1.0  0.43911  0.05723  0.38418  1.0000
  C   C1991     1.0  0.43162  0.06083  0.37738  1.0000
  C   C1992     1.0  0.43505  0.06480  0.36609  1.0000
  C   C1993     1.0  0.44592  0.06534  0.36168  1.0000
  C   C1994     1.0  0.45344  0.06149  0.36844  1.0000
  H   H2388     1.0  0.43643  0.05422  0.39292  1.0000
  H   H2389     1.0  0.42319  0.06063  0.38087  1.0000
  H   H2390     1.0  0.44858  0.06866  0.35302  1.0000
  H   H2391     1.0  0.46181  0.06194  0.36499  1.0000
  C   C1995     1.0  0.48534  0.05948  0.33283  1.0000
  C   C1996     1.0  0.47477  0.05985  0.33900  1.0000
  C   C1997     1.0  0.46702  0.05775  0.33485  1.0000
  C   C1998     1.0  0.46986  0.05487  0.32465  1.0000
  C   C1999     1.0  0.48031  0.05500  0.31818  1.0000
  C   C2000     1.0  0.48796  0.05760  0.32217  1.0000
  H   H2392     1.0  0.47257  0.06173  0.34703  1.0000
  H   H2393     1.0  0.45891  0.05794  0.33978  1.0000
  H   H2394     1.0  0.48249  0.05308  0.31015  1.0000
  H   H2395     1.0  0.49601  0.05778  0.31716  1.0000
  C   C2001     1.0  0.51207  0.99343  0.27449  1.0000
  C   C2002     1.0  0.41108  0.01006  0.36844  1.0000
  C   C2003     1.0  0.40619  0.01864  0.37397  1.0000
  C   C2004     1.0  0.40819  0.01788  0.38421  1.0000
  C   C2005     1.0  0.41524  0.00868  0.38881  1.0000
  H   H2396     1.0  0.47804  0.00385  0.33124  1.0000
  H   H2397     1.0  0.41598  0.00445  0.24951  1.0000
  H   H2398     1.0  0.40092  0.02588  0.37027  1.0000
  H   H2399     1.0  0.41685  0.00815  0.39668  1.0000
  H   H2400     1.0  0.41948  0.06336  0.25437  1.0000
  H   H2401     1.0  0.51235  0.00331  0.37561  1.0000
  H   H2402     1.0  0.46444  0.07320  0.23632  1.0000
  H   H2403     1.0  0.46388  0.01336  0.25694  1.0000
  C   C2006     1.0  0.48435  0.00571  0.37336  1.0000
  C   C2007     1.0  0.47924  0.00674  0.38415  1.0000
  C   C2008     1.0  0.47176  0.00026  0.39046  1.0000
  H   H2404     1.0  0.51578  0.01820  0.38091  1.0000
  H   H2405     1.0  0.54794  0.08397  0.46760  1.0000
  H   H2406     1.0  0.48133  0.01219  0.38777  1.0000
  H   H2407     1.0  0.46820  0.00060  0.39897  1.0000
  C   C2009     1.0  0.44861  0.00092  0.25371  1.0000
  C   C2010     1.0  0.40256  0.04312  0.31951  1.0000
  H   H2408     1.0  0.48689  0.01274  0.26912  1.0000
  H   H2409     1.0  0.41213  0.07249  0.26326  1.0000
  C   C2011     1.0  0.48427  0.99201  0.24812  1.0000
  H   H2410     1.0  0.55328  0.99821  0.44688  1.0000
  H   H2411     1.0  0.46273  0.03712  0.34248  1.0000
  H   H2412     1.0  0.49078  0.04065  0.24443  1.0000
  H   H2413     1.0  0.43554  0.02187  0.26666  1.0000
  C   C2012     1.0  0.47743  0.04275  0.23701  1.0000
  H   H2414     1.0  0.45479  0.06942  0.28992  1.0000
  H   H2415     1.0  0.42063  0.06515  0.31725  1.0000
  C   C2013     1.0  0.42060  0.00458  0.33112  1.0000
  H   H2416     1.0  0.43116  0.01568  0.35202  1.0000
  H   H2417     1.0  0.42899  0.09379  0.32572  1.0000
  H   H2418     1.0  0.43915  0.06754  0.26783  1.0000
  C   C2014     1.0  0.47417  0.99232  0.37494  1.0000
  C   C2015     1.0  0.42804  0.06651  0.31148  1.0000
  H   H2419     1.0  0.53346  0.02000  0.42395  1.0000
  H   H2420     1.0  0.42886  0.99284  0.30011  1.0000
  H   H2421     1.0  0.52571  0.03692  0.43158  1.0000
  C   C2016     1.0  0.56813  0.00943  0.47960  1.0000
  H   H2422     1.0  0.50931  0.04345  0.42641  1.0000
  C   C2017     1.0  0.44798  0.07383  0.24561  1.0000
  N   N136      1.0  0.44120  0.02463  0.38427  1.0000
  C   C2018     1.0  0.44119  0.01282  0.38636  1.0000
  C   C2019     1.0  0.44684  0.02615  0.39196  1.0000
  C   C2020     1.0  0.42975  0.03062  0.38683  1.0000
  C   C2021     1.0  0.44692  0.02835  0.37280  1.0000
  C   C2022     1.0  0.44204  0.03712  0.36513  1.0000
  C   C2023     1.0  0.45780  0.02316  0.36903  1.0000
  C   C2024     1.0  0.44770  0.04017  0.35429  1.0000
  C   C2025     1.0  0.46344  0.02638  0.35827  1.0000
  C   C2026     1.0  0.45833  0.03472  0.35085  1.0000
  H   H2423     1.0  0.44944  0.00751  0.38588  1.0000
  H   H2424     1.0  0.43647  0.00983  0.39473  1.0000
  H   H2425     1.0  0.43763  0.01126  0.38027  1.0000
  H   H2426     1.0  0.45518  0.02101  0.39136  1.0000
  H   H2427     1.0  0.44246  0.02402  0.40067  1.0000
  H   H2428     1.0  0.44761  0.03480  0.39019  1.0000
  H   H2429     1.0  0.42508  0.02986  0.38127  1.0000
  H   H2430     1.0  0.42547  0.02741  0.39536  1.0000
  H   H2431     1.0  0.42910  0.03947  0.38616  1.0000
  H   H2432     1.0  0.43397  0.04192  0.36734  1.0000
  H   H2433     1.0  0.46208  0.01666  0.37447  1.0000
  H   H2434     1.0  0.44390  0.04705  0.34866  1.0000
  C   C2027     1.0  0.50045  0.99533  0.33580  1.0000
  H   H2435     1.0  0.39670  0.01526  0.29721  1.0000
  H   H2436     1.0  0.44861  0.07376  0.32450  1.0000
  H   H2437     1.0  0.44859  0.02184  0.32443  1.0000
  H   H2438     1.0  0.57824  0.99338  0.42059  1.0000
  H   H2439     1.0  0.51775  0.00774  0.27360  1.0000
  C   C2028     1.0  0.42047  0.01961  0.31534  1.0000
  C   C2029     1.0  0.51429  0.01572  0.44742  1.0000
  H   H2440     1.0  0.43376  0.08674  0.25942  1.0000
  C   C2030     1.0  0.39402  0.00771  0.30233  1.0000
  H   H2441     1.0  0.41888  0.99660  0.33531  1.0000
  H   H2442     1.0  0.41463  0.07978  0.32579  1.0000
  C   C2031     1.0  0.47172  0.99980  0.33665  1.0000
  C   C2032     1.0  0.56941  0.00281  0.45162  1.0000
  C   C2033     1.0  0.41849  0.00106  0.37285  1.0000
  H   H2443     1.0  0.47242  0.02300  0.25176  1.0000
  H   H2444     1.0  0.39991  0.00349  0.30765  1.0000
  H   H2445     1.0  0.53576  0.06112  0.45921  1.0000
  C   C2034     1.0  0.43750  0.07251  0.24616  1.0000
  H   H2446     1.0  0.40946  0.01063  0.36056  1.0000
  H   H2447     1.0  0.43953  0.09134  0.31406  1.0000
  H   H2448     1.0  0.44985  0.07556  0.25245  1.0000
  C   C2035     1.0  0.44720  0.06883  0.29584  1.0000
  H   H2449     1.0  0.39810  0.06641  0.32855  1.0000
  H   H2450     1.0  0.52359  0.05816  0.47758  1.0000
  H   H2451     1.0  0.39515  0.02852  0.24474  1.0000
  C   C2036     1.0  0.46427  0.04561  0.25765  1.0000
  H   H2452     1.0  0.56505  0.01724  0.47403  1.0000
  H   H2453     1.0  0.57663  0.00600  0.47575  1.0000
  Fe  Fe259     1.0  0.46368  0.04042  0.28480  1.0000
  H   H2454     1.0  0.52061  0.01537  0.39870  1.0000
  C   C2037     1.0  0.52167  0.03176  0.43919  1.0000
  C   C2038     1.0  0.44954  0.00664  0.24254  1.0000
  H   H2455     1.0  0.42655  0.99369  0.38633  1.0000
  H   H2456     1.0  0.47919  0.04301  0.26265  1.0000
  N   N137      1.0  0.42880  0.07370  0.25613  1.0000
  C   C2039     1.0  0.42139  0.07621  0.33015  1.0000
  C   C2040     1.0  0.50325  0.01288  0.31781  1.0000
  H   H2457     1.0  0.44232  0.05987  0.28715  1.0000
  S   S548      1.0  0.39895  0.04350  0.34097  1.0000
  C   C2041     1.0  0.44021  0.06342  0.29428  1.0000
  C   C2042     1.0  0.42065  0.00045  0.38298  1.0000
  H   H2458     1.0  0.50013  0.00590  0.34572  1.0000
  H   H2459     1.0  0.44651  0.01173  0.33686  1.0000
  H   H2460     1.0  0.49309  0.03740  0.33880  1.0000
  H   H2461     1.0  0.52884  0.00770  0.43091  1.0000
  H   H2462     1.0  0.41993  0.08613  0.26532  1.0000
  C   C2043     1.0  0.40798  0.00951  0.24804  1.0000
  H   H2463     1.0  0.41502  0.02823  0.24217  1.0000
  H   H2464     1.0  0.50607  0.02022  0.45088  1.0000
  C   C2044     1.0  0.48208  0.04207  0.24571  1.0000
  H   H2465     1.0  0.51350  0.00770  0.44662  1.0000
  C   C2045     1.0  0.50047  0.03933  0.41749  1.0000
  C   C2046     1.0  0.50202  0.02016  0.41871  1.0000
  H   H2466     1.0  0.43495  0.04187  0.33516  1.0000
  C   C2047     1.0  0.42789  0.02028  0.33042  1.0000
  C   C2048     1.0  0.43072  0.06217  0.30212  1.0000
  C   C2049     1.0  0.51942  0.99846  0.40377  1.0000
  H   H2467     1.0  0.41974  0.02672  0.34928  1.0000
  C   C2050     1.0  0.50742  0.03664  0.42468  1.0000
  N   N138      1.0  0.43320  0.02571  0.33540  1.0000
  C   C2051     1.0  0.50892  0.01736  0.42597  1.0000
  H   H2468     1.0  0.52624  0.99769  0.48237  1.0000
  C   C2052     1.0  0.58034  0.02376  0.48122  1.0000
  H   H2469     1.0  0.51420  0.03703  0.44313  1.0000
  C   C2053     1.0  0.52971  0.01550  0.43212  1.0000
  S   S549      1.0  0.40546  0.06408  0.28974  1.0000
  H   H2470     1.0  0.40462  0.01386  0.25491  1.0000
  C   C2054     1.0  0.40047  0.04983  0.32690  1.0000
  C   C2055     1.0  0.43175  0.03773  0.33072  1.0000
  C   C2056     1.0  0.42553  0.02486  0.31985  1.0000
  S   S550      1.0  0.56826  0.06602  0.48309  1.0000
  C   C2057     1.0  0.42660  0.08494  0.25797  1.0000
  H   H2471     1.0  0.42302  0.04169  0.33116  1.0000
  H   H2472     1.0  0.43626  0.03964  0.32205  1.0000
  H   H2473     1.0  0.42742  0.03254  0.31489  1.0000
  H   H2474     1.0  0.49733  0.04787  0.41398  1.0000
  H   H2475     1.0  0.58316  0.02025  0.47404  1.0000
  S   S551      1.0  0.45595  0.04821  0.27026  1.0000
  H   H2476     1.0  0.51925  0.01370  0.45367  1.0000
  S   S552      1.0  0.39711  0.06958  0.35403  1.0000
  H   H2477     1.0  0.43866  0.07665  0.33642  1.0000
  C   C2058     1.0  0.44039  0.07277  0.32931  1.0000
  C   C2059     1.0  0.56109  0.01445  0.38416  1.0000
  H   H2478     1.0  0.54915  0.99970  0.46085  1.0000
  C   C2060     1.0  0.44041  0.02358  0.24918  1.0000
  H   H2479     1.0  0.39216  0.01669  0.33822  1.0000
  H   H2480     1.0  0.47447  0.00124  0.27667  1.0000
  H   H2481     1.0  0.48624  0.03190  0.33211  1.0000
  H   H2482     1.0  0.46750  0.01904  0.26618  1.0000
  H   H2483     1.0  0.42761  0.00546  0.34355  1.0000
  H   H2484     1.0  0.49075  0.01812  0.25481  1.0000
  H   H2485     1.0  0.51966  0.01841  0.33254  1.0000
  C   C2061     1.0  0.44456  0.07329  0.30512  1.0000
  C   C2062     1.0  0.50096  0.00533  0.33739  1.0000
  H   H2486     1.0  0.51896  0.99041  0.26844  1.0000
  H   H2487     1.0  0.53611  0.02084  0.37873  1.0000
  H   H2488     1.0  0.56505  0.00857  0.45715  1.0000
  H   H2489     1.0  0.39487  0.00231  0.29669  1.0000
  C   C2063     1.0  0.51141  0.00321  0.27742  1.0000
  C   C2064     1.0  0.51431  0.00152  0.38353  1.0000
  H   H2490     1.0  0.40299  0.03443  0.32259  1.0000
  H   H2491     1.0  0.41851  0.02337  0.30737  1.0000
  H   H2492     1.0  0.57825  0.00194  0.45049  1.0000
  C   C2065     1.0  0.46941  0.99290  0.38586  1.0000
  C   C2066     1.0  0.46811  0.99258  0.33304  1.0000
  S   S553      1.0  0.58085  0.06517  0.42184  1.0000
  H   H2493     1.0  0.47013  0.99512  0.26846  1.0000
  Fe  Fe260     1.0  0.40451  0.05225  0.28032  1.0000
  N   N139      1.0  0.55593  0.04558  0.37912  1.0000
  C   C2067     1.0  0.55863  0.04621  0.38925  1.0000
  C   C2068     1.0  0.56499  0.04789  0.36966  1.0000
  C   C2069     1.0  0.54622  0.05443  0.37735  1.0000
  C   C2070     1.0  0.55436  0.03446  0.38016  1.0000
  C   C2071     1.0  0.56251  0.02504  0.38288  1.0000
  C   C2072     1.0  0.54494  0.03263  0.37832  1.0000
  C   C2073     1.0  0.54357  0.02201  0.37974  1.0000
  H   H2494     1.0  0.47182  0.99155  0.32474  1.0000
  H   H2495     1.0  0.58307  0.07654  0.44041  1.0000
  H   H2496     1.0  0.56657  0.04088  0.39054  1.0000
  H   H2497     1.0  0.55904  0.05469  0.38912  1.0000
  H   H2498     1.0  0.55241  0.04372  0.39666  1.0000
  H   H2499     1.0  0.57275  0.04201  0.37076  1.0000
  H   H2500     1.0  0.56633  0.05627  0.36845  1.0000
  H   H2501     1.0  0.56334  0.04729  0.36192  1.0000
  H   H2502     1.0  0.53908  0.05308  0.38416  1.0000
  H   H2503     1.0  0.54746  0.06264  0.37704  1.0000
  H   H2504     1.0  0.54410  0.05505  0.36946  1.0000
  H   H2505     1.0  0.56998  0.02573  0.38424  1.0000
  H   H2506     1.0  0.53832  0.03922  0.37610  1.0000
  C   C2074     1.0  0.50274  0.00282  0.31631  1.0000
  H   H2507     1.0  0.54775  0.07407  0.45444  1.0000
  C   C2075     1.0  0.48394  0.00286  0.24871  1.0000
  H   H2508     1.0  0.40061  0.07429  0.30833  1.0000
  C   C2076     1.0  0.49273  0.02978  0.33676  1.0000
  C   C2077     1.0  0.43154  0.08954  0.31875  1.0000
  C   C2078     1.0  0.51631  0.01019  0.38646  1.0000
  H   H2509     1.0  0.41425  0.00547  0.31729  1.0000
  H   H2510     1.0  0.51193  0.00874  0.42906  1.0000
  C   C2079     1.0  0.51190  0.02550  0.42914  1.0000
  Fe  Fe261     1.0  0.39820  0.05206  0.35409  1.0000
  C   C2080     1.0  0.52865  0.06405  0.47548  1.0000
  H   H2511     1.0  0.44086  0.06383  0.33264  1.0000
  H   H2512     1.0  0.49016  0.02421  0.34472  1.0000
  H   H2513     1.0  0.43175  0.02927  0.35113  1.0000
  C   C2081     1.0  0.50617  0.03300  0.32008  1.0000
  H   H2514     1.0  0.53559  0.01317  0.43751  1.0000
  C   C2082     1.0  0.50257  0.01438  0.32844  1.0000
  N   N140      1.0  0.40880  0.01722  0.23712  1.0000
  C   C2083     1.0  0.43599  0.06985  0.23687  1.0000
  H   H2515     1.0  0.42135  0.06742  0.33403  1.0000
  H   H2516     1.0  0.42543  0.05775  0.30093  1.0000
  H   H2517     1.0  0.42566  0.06569  0.27339  1.0000
  H   H2518     1.0  0.43494  0.05725  0.26440  1.0000
  H   H2519     1.0  0.56723  0.00735  0.38667  1.0000
  H   H2520     1.0  0.50344  0.00180  0.30812  1.0000
  C   C2084     1.0  0.53548  0.06573  0.46510  1.0000
  C   C2085     1.0  0.51170  0.02277  0.33673  1.0000
  C   C2086     1.0  0.51895  0.00865  0.39651  1.0000
  H   H2521     1.0  0.40628  0.04205  0.30265  1.0000
  H   H2522     1.0  0.49269  0.03331  0.40862  1.0000
  C   C2087     1.0  0.48897  0.01060  0.26096  1.0000
  C   C2088     1.0  0.56373  0.05736  0.47796  1.0000
  H   H2523     1.0  0.45033  0.07727  0.30604  1.0000
  C   C2089     1.0  0.48176  0.99857  0.36876  1.0000
  H   H2524     1.0  0.50958  0.01780  0.34518  1.0000
  H   H2525     1.0  0.42421  0.09120  0.25074  1.0000
  N   N141      1.0  0.43201  0.07758  0.32270  1.0000
  C   C2090     1.0  0.41843  0.07176  0.25554  1.0000
  C   C2091     1.0  0.42876  0.02425  0.34745  1.0000
  C   C2092     1.0  0.49785  0.03113  0.41443  1.0000
  S   S554      1.0  0.41804  0.05075  0.23951  1.0000
  C   C2093     1.0  0.41797  0.00954  0.32097  1.0000
  H   H2526     1.0  0.52153  0.99729  0.41156  1.0000
  N   N142      1.0  0.50330  0.02481  0.33037  1.0000
  H   H2527     1.0  0.50720  0.04050  0.32183  1.0000
  H   H2528     1.0  0.49996  0.01381  0.41629  1.0000
  H   H2529     1.0  0.51278  0.03056  0.33784  1.0000
  C   C2094     1.0  0.47060  0.01590  0.25848  1.0000
  N   N143      1.0  0.56606  0.99213  0.45589  1.0000
  C   C2095     1.0  0.40337  0.05871  0.30408  1.0000
  Fe  Fe262     1.0  0.41034  0.04693  0.25764  1.0000
  H   H2530     1.0  0.52725  0.02907  0.44494  1.0000
  N   N144      1.0  0.51925  0.02228  0.43681  1.0000
  C   C2096     1.0  0.43952  0.01769  0.26001  1.0000
  C   C2097     1.0  0.44493  0.02073  0.33340  1.0000
  C   C2098     1.0  0.42555  0.00980  0.33579  1.0000
  C   C2099     1.0  0.45960  0.04604  0.24903  1.0000
  C   C2100     1.0  0.43227  0.06574  0.26584  1.0000
  C   C2101     1.0  0.50143  0.99405  0.32527  1.0000
  H   H2531     1.0  0.47188  0.02251  0.35578  1.0000
  C   C2102     1.0  0.55256  0.04454  0.48024  1.0000
  S   S555      1.0  0.39600  0.05778  0.26626  1.0000
  H   H2532     1.0  0.41943  0.08040  0.33709  1.0000
  C   C2103     1.0  0.44363  0.00641  0.26229  1.0000
  C   C2104     1.0  0.43482  0.07239  0.31318  1.0000
  C   C2105     1.0  0.39814  0.02508  0.23721  1.0000
  H   H2533     1.0  0.48755  0.01845  0.23846  1.0000
  C   C2106     1.0  0.47708  0.99809  0.26897  1.0000
  H   H2534     1.0  0.47040  0.00706  0.35000  1.0000
  C   C2107     1.0  0.44534  0.01816  0.24056  1.0000
  C   C2108     1.0  0.46618  0.04450  0.23874  1.0000
  C   C2109     1.0  0.54225  0.07870  0.47013  1.0000
  H   H2535     1.0  0.44276  0.00190  0.27079  1.0000
  H   H2536     1.0  0.49661  0.00418  0.26061  1.0000
  C   C2110     1.0  0.54224  0.07304  0.46243  1.0000
  C   C2111     1.0  0.53532  0.07724  0.48079  1.0000
  H   H2537     1.0  0.42838  0.06852  0.23653  1.0000
  H   H2538     1.0  0.56343  0.00342  0.47994  1.0000
  C   C2112     1.0  0.45911  0.99664  0.35409  1.0000
  C   C2113     1.0  0.38793  0.01336  0.32479  1.0000
  H   H2539     1.0  0.38869  0.00401  0.26859  1.0000
  H   H2540     1.0  0.54066  0.09718  0.47814  1.0000
  H   H2541     1.0  0.45568  0.99817  0.36229  1.0000
  C   C2114     1.0  0.48813  0.98865  0.23811  1.0000
  C   C2115     1.0  0.58538  0.03186  0.48130  1.0000
  C   C2116     1.0  0.48759  0.01006  0.23870  1.0000
  H   H2542     1.0  0.41959  0.99545  0.23659  1.0000
  H   H2543     1.0  0.55120  0.08615  0.48319  1.0000
  C   C2117     1.0  0.51479  0.99099  0.39071  1.0000
  H   H2544     1.0  0.44294  0.99075  0.31013  1.0000
  S   S556      1.0  0.52754  0.99086  0.46263  1.0000
  H   H2545     1.0  0.50303  0.99047  0.37602  1.0000
  C   C2118     1.0  0.52912  0.98888  0.48380  1.0000
  C   C2119     1.0  0.45541  0.98943  0.35056  1.0000
  S   S557      1.0  0.42561  0.99093  0.36545  1.0000
  S   S558      1.0  0.39971  0.99125  0.35432  1.0000
  C   C2120     1.0  0.52853  0.06972  0.48322  1.0000
  C   C2121     1.0  0.50381  0.98762  0.27926  1.0000
  H   H2546     1.0  0.57095  0.98783  0.44007  1.0000
  C   C2122     1.0  0.51731  0.98976  0.40099  1.0000
  C   C2123     1.0  0.45896  0.98918  0.23655  1.0000
  H   H2547     1.0  0.42513  0.01772  0.23639  1.0000
  H   H2548     1.0  0.46534  0.98769  0.24118  1.0000
  H   H2549     1.0  0.49931  0.98850  0.34276  1.0000
  H   H2550     1.0  0.41270  0.98744  0.30202  1.0000
  C   C2124     1.0  0.55645  0.05092  0.48472  1.0000
  H   H2551     1.0  0.58512  0.98768  0.46268  1.0000
  H   H2552     1.0  0.38649  0.01941  0.27704  1.0000
  C   C2125     1.0  0.48932  0.01096  0.66354  1.0000
  Fe  Fe263     1.0  0.47878  0.04627  0.58166  1.0000
  S   S559      1.0  0.47931  0.03195  0.59588  1.0000
  S   S560      1.0  0.46771  0.04646  0.57107  1.0000
  Fe  Fe264     1.0  0.49788  0.05232  0.58539  1.0000
  S   S561      1.0  0.49974  0.03844  0.60015  1.0000
  S   S562      1.0  0.51120  0.06172  0.57963  1.0000
  Fe  Fe265     1.0  0.49725  0.02866  0.58981  1.0000
  S   S563      1.0  0.50651  0.01157  0.58903  1.0000
  Fe  Fe266     1.0  0.48162  0.04291  0.60522  1.0000
  S   S564      1.0  0.47148  0.04063  0.62278  1.0000
  S   S565      1.0  0.49672  0.04201  0.57475  1.0000
  S   S566      1.0  0.47973  0.05783  0.59128  1.0000
  Fe  Fe267     1.0  0.48314  0.03621  0.68105  1.0000
  S   S567      1.0  0.47866  0.01997  0.68904  1.0000
  S   S568      1.0  0.49032  0.04087  0.66276  1.0000
  Fe  Fe268     1.0  0.47854  0.04256  0.70327  1.0000
  S   S569      1.0  0.47398  0.02676  0.71291  1.0000
  S   S570      1.0  0.47549  0.05588  0.71243  1.0000
  Fe  Fe269     1.0  0.48811  0.01894  0.70129  1.0000
  S   S571      1.0  0.49937  0.00316  0.70711  1.0000
  Fe  Fe270     1.0  0.46499  0.02922  0.69994  1.0000
  S   S572      1.0  0.44824  0.02625  0.70590  1.0000
  S   S573      1.0  0.49367  0.03460  0.69268  1.0000
  S   S574      1.0  0.46848  0.04566  0.69089  1.0000
  H   H2553     1.0  0.39058  0.01861  0.70891  1.0000
  H   H2554     1.0  0.48695  0.07391  0.71326  1.0000
  C   C2126     1.0  0.42327  0.04630  0.62708  1.0000
  H   H2555     1.0  0.52310  0.99756  0.54829  1.0000
  S   S575      1.0  0.53512  0.01021  0.52587  1.0000
  C   C2127     1.0  0.51559  0.99654  0.55472  1.0000
  H   H2556     1.0  0.43756  0.06861  0.63094  1.0000
  Fe  Fe271     1.0  0.40764  0.06504  0.57392  1.0000
  Fe  Fe272     1.0  0.56849  0.04692  0.52318  1.0000
  S   S576      1.0  0.55501  0.05377  0.51424  1.0000
  S   S577      1.0  0.57210  0.02895  0.53093  1.0000
  Fe  Fe273     1.0  0.55089  0.06745  0.52298  1.0000
  S   S578      1.0  0.53278  0.07263  0.52871  1.0000
  H   H2557     1.0  0.44802  0.03907  0.62939  1.0000
  S   S579      1.0  0.56375  0.05998  0.53282  1.0000
  H   H2558     1.0  0.47618  0.02254  0.57834  1.0000
  C   C2128     1.0  0.48987  0.98840  0.60694  1.0000
  N   N145      1.0  0.46121  0.98919  0.72874  1.0000
  H   H2559     1.0  0.43036  0.98881  0.72001  1.0000
  H   H2560     1.0  0.42307  0.00735  0.68935  1.0000
  H   H2561     1.0  0.40053  0.99413  0.60822  1.0000
  C   C2129     1.0  0.44549  0.06509  0.68646  1.0000
  H   H2562     1.0  0.40103  0.09462  0.63227  1.0000
  C   C2130     1.0  0.43259  0.05192  0.60821  1.0000
  H   H2563     1.0  0.38735  0.00226  0.70575  1.0000
  H   H2564     1.0  0.44010  0.05692  0.66623  1.0000
  C   C2131     1.0  0.56944  0.02521  0.49937  1.0000
  C   C2132     1.0  0.54536  0.01521  0.52763  1.0000
  C   C2133     1.0  0.55579  0.00862  0.52746  1.0000
  C   C2134     1.0  0.56394  0.01268  0.52895  1.0000
  C   C2135     1.0  0.56171  0.02343  0.53031  1.0000
  C   C2136     1.0  0.55125  0.02992  0.53067  1.0000
  C   C2137     1.0  0.54309  0.02585  0.52926  1.0000
  H   H2565     1.0  0.55769  0.00053  0.52585  1.0000
  H   H2566     1.0  0.57201  0.00761  0.52870  1.0000
  H   H2567     1.0  0.54935  0.03800  0.53234  1.0000
  Fe  Fe274     1.0  0.56633  0.06305  0.50141  1.0000
  C   C2138     1.0  0.49964  0.99323  0.70025  1.0000
  C   C2139     1.0  0.49025  0.99286  0.69750  1.0000
  H   H2568     1.0  0.42631  0.99338  0.67961  1.0000
  C   C2140     1.0  0.55538  0.01328  0.49595  1.0000
  C   C2141     1.0  0.43364  0.03100  0.58302  1.0000
  H   H2569     1.0  0.41662  0.99094  0.59313  1.0000
  H   H2570     1.0  0.48273  0.99843  0.69992  1.0000
  N   N146      1.0  0.43894  0.05521  0.62356  1.0000
  H   H2571     1.0  0.43735  0.04452  0.63990  1.0000
  H   H2572     1.0  0.39472  0.01161  0.62932  1.0000
  C   C2142     1.0  0.47972  0.05218  0.72492  1.0000
  C   C2143     1.0  0.57458  0.03322  0.49939  1.0000
  C   C2144     1.0  0.40318  0.00903  0.57908  1.0000
  H   H2573     1.0  0.54228  0.09484  0.49189  1.0000
  C   C2145     1.0  0.50781  0.00131  0.66348  1.0000
  C   C2146     1.0  0.44357  0.04669  0.63235  1.0000
  H   H2574     1.0  0.49086  0.03712  0.72193  1.0000
  H   H2575     1.0  0.41381  0.00579  0.65280  1.0000
  N   N147      1.0  0.53509  0.08305  0.48919  1.0000
  H   H2576     1.0  0.49200  0.02399  0.56336  1.0000
  C   C2147     1.0  0.44642  0.02923  0.67467  1.0000
  C   C2148     1.0  0.45027  0.02851  0.68390  1.0000
  C   C2149     1.0  0.44341  0.02726  0.69436  1.0000
  C   C2150     1.0  0.43265  0.02692  0.69557  1.0000
  H   H2577     1.0  0.45850  0.02909  0.68287  1.0000
  H   H2578     1.0  0.42731  0.02605  0.70363  1.0000
  C   C2151     1.0  0.51715  0.06456  0.56546  1.0000
  C   C2152     1.0  0.52779  0.06617  0.56200  1.0000
  C   C2153     1.0  0.53280  0.06828  0.55076  1.0000
  C   C2154     1.0  0.52704  0.06918  0.54289  1.0000
  C   C2155     1.0  0.51639  0.06763  0.54634  1.0000
  C   C2156     1.0  0.51151  0.06515  0.55760  1.0000
  H   H2579     1.0  0.53217  0.06581  0.56804  1.0000
  H   H2580     1.0  0.54096  0.06961  0.54817  1.0000
  H   H2581     1.0  0.51187  0.06839  0.54029  1.0000
  H   H2582     1.0  0.50327  0.06404  0.56017  1.0000
  C   C2157     1.0  0.47675  0.04068  0.63388  1.0000
  C   C2158     1.0  0.48666  0.04353  0.63207  1.0000
  C   C2159     1.0  0.49057  0.04372  0.64102  1.0000
  C   C2160     1.0  0.48469  0.04097  0.65186  1.0000
  C   C2161     1.0  0.47478  0.03805  0.65371  1.0000
  C   C2162     1.0  0.47083  0.03791  0.64473  1.0000
  H   H2583     1.0  0.49126  0.04575  0.62376  1.0000
  H   H2584     1.0  0.49822  0.04602  0.63951  1.0000
  H   H2585     1.0  0.47018  0.03594  0.66202  1.0000
  H   H2586     1.0  0.46315  0.03571  0.64622  1.0000
  H   H2587     1.0  0.43175  0.01001  0.59006  1.0000
  H   H2588     1.0  0.45705  0.04089  0.72975  1.0000
  H   H2589     1.0  0.39295  0.99752  0.58442  1.0000
  H   H2590     1.0  0.45083  0.04752  0.56085  1.0000
  H   H2591     1.0  0.55375  0.01296  0.50487  1.0000
  C   C2163     1.0  0.39780  0.06995  0.71710  1.0000
  C   C2164     1.0  0.48431  0.00349  0.61618  1.0000
  C   C2165     1.0  0.49223  0.00852  0.60853  1.0000
  C   C2166     1.0  0.49867  0.00377  0.59980  1.0000
  H   H2592     1.0  0.45316  0.99441  0.71515  1.0000
  C   C2167     1.0  0.40513  0.09354  0.64717  1.0000
  H   H2593     1.0  0.47903  0.00760  0.62249  1.0000
  H   H2594     1.0  0.49312  0.01629  0.60921  1.0000
  H   H2595     1.0  0.51625  0.01053  0.56643  1.0000
  Fe  Fe275     1.0  0.40569  0.04295  0.57254  1.0000
  N   N148      1.0  0.45777  0.99982  0.65317  1.0000
  C   C2168     1.0  0.58249  0.03659  0.49036  1.0000
  H   H2596     1.0  0.43253  0.02428  0.63391  1.0000
  C   C2169     1.0  0.45253  0.00439  0.66313  1.0000
  C   C2170     1.0  0.44991  0.00232  0.64615  1.0000
  H   H2597     1.0  0.45496  0.02999  0.57358  1.0000
  H   H2598     1.0  0.43614  0.99777  0.70049  1.0000
  H   H2599     1.0  0.40804  0.00566  0.57207  1.0000
  C   C2171     1.0  0.50604  0.08424  0.71744  1.0000
  H   H2600     1.0  0.47610  0.08784  0.72312  1.0000
  H   H2601     1.0  0.53236  0.06951  0.50314  1.0000
  C   C2172     1.0  0.39772  0.09456  0.64088  1.0000
  H   H2602     1.0  0.40931  0.00654  0.68032  1.0000
  C   C2173     1.0  0.38776  0.00928  0.59461  1.0000
  H   H2603     1.0  0.51220  0.01338  0.53835  1.0000
  H   H2604     1.0  0.40424  0.07323  0.61091  1.0000
  H   H2605     1.0  0.49937  0.07616  0.70394  1.0000
  Fe  Fe276     1.0  0.54053  0.99212  0.52746  1.0000
  N   N149      1.0  0.43643  0.06345  0.70654  1.0000
  C   C2174     1.0  0.42860  0.05779  0.71536  1.0000
  C   C2175     1.0  0.44809  0.00875  0.60099  1.0000
  C   C2176     1.0  0.45036  0.06197  0.57915  1.0000
  C   C2177     1.0  0.43995  0.99680  0.63595  1.0000
  C   C2178     1.0  0.51432  0.01402  0.55818  1.0000
  S   S580      1.0  0.41566  0.06069  0.65900  1.0000
  C   C2179     1.0  0.43288  0.07536  0.70626  1.0000
  C   C2180     1.0  0.44705  0.05937  0.70975  1.0000
  H   H2606     1.0  0.43164  0.07709  0.71452  1.0000
  H   H2607     1.0  0.42879  0.00968  0.62771  1.0000
  H   H2608     1.0  0.44465  0.00197  0.66718  1.0000
  H   H2609     1.0  0.40083  0.01824  0.64179  1.0000
  N   N150      1.0  0.56713  0.01122  0.49067  1.0000
  S   S581      1.0  0.41934  0.07394  0.57555  1.0000
  N   N151      1.0  0.50812  0.00728  0.55591  1.0000
  C   C2181     1.0  0.39893  0.07022  0.69799  1.0000
  C   C2182     1.0  0.54263  0.09065  0.48537  1.0000
  C   C2183     1.0  0.49878  0.99114  0.63573  1.0000
  C   C2184     1.0  0.44657  0.06327  0.67605  1.0000
  H   H2610     1.0  0.47149  0.00124  0.63981  1.0000
  H   H2611     1.0  0.50281  0.98980  0.59245  1.0000
  H   H2612     1.0  0.58557  0.99055  0.54361  1.0000
  H   H2613     1.0  0.44965  0.03562  0.59050  1.0000
  H   H2614     1.0  0.51818  0.99198  0.56253  1.0000
  H   H2615     1.0  0.43510  0.01387  0.57542  1.0000
  C   C2185     1.0  0.48637  0.99542  0.57902  1.0000
  H   H2616     1.0  0.50979  0.02262  0.55805  1.0000
  C   C2186     1.0  0.41506  0.99193  0.64625  1.0000
  H   H2617     1.0  0.48289  0.01454  0.65875  1.0000
  C   C2187     1.0  0.40167  0.09301  0.65843  1.0000
  H   H2618     1.0  0.53853  0.07899  0.50532  1.0000
  H   H2619     1.0  0.38916  0.06759  0.52233  1.0000
  H   H2620     1.0  0.53903  0.98787  0.57003  1.0000
  C   C2188     1.0  0.49564  0.99605  0.57059  1.0000
  C   C2189     1.0  0.57204  0.02031  0.49022  1.0000
  C   C2190     1.0  0.46710  0.00490  0.64702  1.0000
  H   H2621     1.0  0.44570  0.01997  0.64526  1.0000
  C   C2191     1.0  0.49463  0.98870  0.65844  1.0000
  H   H2622     1.0  0.43834  0.99043  0.63315  1.0000
  C   C2192     1.0  0.53817  0.07494  0.49897  1.0000
  H   H2623     1.0  0.47301  0.00348  0.65218  1.0000
  C   C2193     1.0  0.39877  0.02265  0.58993  1.0000
  C   C2194     1.0  0.40395  0.99475  0.63298  1.0000
  C   C2195     1.0  0.39879  0.06780  0.61538  1.0000
  C   C2196     1.0  0.39058  0.06294  0.72055  1.0000
  H   H2624     1.0  0.38941  0.08956  0.62558  1.0000
  H   H2625     1.0  0.40034  0.02967  0.59155  1.0000
  H   H2626     1.0  0.48961  0.08759  0.70819  1.0000
  H   H2627     1.0  0.55104  0.02137  0.49192  1.0000
  H   H2628     1.0  0.40011  0.07261  0.72312  1.0000
  N   N152      1.0  0.49972  0.00649  0.65654  1.0000
  C   C2197     1.0  0.38970  0.05780  0.63256  1.0000
  C   C2198     1.0  0.40183  0.07372  0.70581  1.0000
  C   C2199     1.0  0.48157  0.01513  0.57611  1.0000
  C   C2200     1.0  0.43846  0.01191  0.58289  1.0000
  C   C2201     1.0  0.44753  0.99412  0.64246  1.0000
  H   H2629     1.0  0.49008  0.01762  0.66691  1.0000
  H   H2630     1.0  0.42176  0.04587  0.63579  1.0000
  S   S582      1.0  0.40245  0.04347  0.65705  1.0000
  C   C2202     1.0  0.45594  0.01534  0.61198  1.0000
  C   C2203     1.0  0.41619  0.04258  0.62347  1.0000
  C   C2204     1.0  0.43730  0.06162  0.69554  1.0000
  C   C2205     1.0  0.43457  0.00765  0.63286  1.0000
  S   S583      1.0  0.43065  0.03055  0.66425  1.0000
  H   H2631     1.0  0.43858  0.05563  0.60185  1.0000
  C   C2206     1.0  0.44430  0.01330  0.64280  1.0000
  H   H2632     1.0  0.58152  0.99899  0.49333  1.0000
  H   H2633     1.0  0.40954  0.03937  0.62935  1.0000
  H   H2634     1.0  0.49851  0.05985  0.72548  1.0000
  H   H2635     1.0  0.55364  0.05099  0.49333  1.0000
  H   H2636     1.0  0.46419  0.00060  0.71293  1.0000
  H   H2637     1.0  0.44539  0.06582  0.60842  1.0000
  C   C2207     1.0  0.50355  0.01590  0.64828  1.0000
  H   H2638     1.0  0.45966  0.01378  0.61888  1.0000
  C   C2208     1.0  0.43672  0.01587  0.63631  1.0000
  H   H2639     1.0  0.42038  0.02788  0.68729  1.0000
  H   H2640     1.0  0.45415  0.99880  0.61521  1.0000
  S   S584      1.0  0.56122  0.07748  0.50926  1.0000
  S   S585      1.0  0.40451  0.07444  0.68393  1.0000
  Fe  Fe277     1.0  0.38985  0.05432  0.58998  1.0000
  H   H2641     1.0  0.52366  0.09428  0.49869  1.0000
  H   H2642     1.0  0.50896  0.06345  0.72910  1.0000
  H   H2643     1.0  0.51156  0.01321  0.64295  1.0000
  H   H2644     1.0  0.41364  0.09296  0.64333  1.0000
  S   S586      1.0  0.58042  0.05487  0.50940  1.0000
  C   C2209     1.0  0.45007  0.02758  0.59592  1.0000
  C   C2210     1.0  0.50498  0.01268  0.54526  1.0000
  H   H2645     1.0  0.43061  0.04882  0.71564  1.0000
  C   C2211     1.0  0.49012  0.07968  0.73066  1.0000
  H   H2646     1.0  0.42850  0.07128  0.62190  1.0000
  S   S587      1.0  0.40702  0.05851  0.55980  1.0000
  C   C2212     1.0  0.40045  0.00589  0.63387  1.0000
  Fe  Fe278     1.0  0.41506  0.04303  0.66562  1.0000
  H   H2647     1.0  0.43615  0.03858  0.58256  1.0000
  H   H2648     1.0  0.50513  0.99480  0.67055  1.0000
  H   H2649     1.0  0.41127  0.04137  0.60951  1.0000
  H   H2650     1.0  0.47256  0.00437  0.58879  1.0000
  Fe  Fe279     1.0  0.40283  0.06363  0.67401  1.0000
  H   H2651     1.0  0.43890  0.07999  0.70049  1.0000
  H   H2652     1.0  0.45680  0.03230  0.60678  1.0000
  C   C2213     1.0  0.43180  0.05095  0.61956  1.0000
  H   H2653     1.0  0.55142  0.00696  0.49545  1.0000
  H   H2654     1.0  0.45761  0.00150  0.66936  1.0000
  S   S588      1.0  0.41397  0.02574  0.57100  1.0000
  H   H2655     1.0  0.44455  0.03068  0.73230  1.0000
  H   H2656     1.0  0.42509  0.07884  0.70356  1.0000
  C   C2214     1.0  0.40471  0.01377  0.68389  1.0000
  H   H2657     1.0  0.43171  0.05770  0.56296  1.0000
  H   H2658     1.0  0.43653  0.07403  0.58510  1.0000
  C   C2215     1.0  0.43562  0.02900  0.67586  1.0000
  H   H2659     1.0  0.38961  0.05139  0.54649  1.0000
  C   C2216     1.0  0.39454  0.00448  0.58601  1.0000
  H   H2660     1.0  0.45374  0.06124  0.61818  1.0000
  H   H2661     1.0  0.44943  0.04950  0.63508  1.0000
  N   N153      1.0  0.40034  0.01043  0.69591  1.0000
  H   H2662     1.0  0.39588  0.06569  0.60070  1.0000
  H   H2663     1.0  0.44873  0.02498  0.56599  1.0000
  C   C2217     1.0  0.39243  0.00370  0.69731  1.0000
  H   H2664     1.0  0.51054  0.08281  0.72397  1.0000
  H   H2665     1.0  0.57207  0.00192  0.50568  1.0000
  C   C2218     1.0  0.43282  0.06644  0.57427  1.0000
  H   H2666     1.0  0.43038  0.03271  0.57554  1.0000
  H   H2667     1.0  0.45555  0.06319  0.58363  1.0000
  H   H2668     1.0  0.44492  0.00433  0.58242  1.0000
  H   H2669     1.0  0.45087  0.01347  0.66127  1.0000
  H   H2670     1.0  0.42591  0.06271  0.63529  1.0000
  C   C2219     1.0  0.48304  0.99348  0.61535  1.0000
  H   H2671     1.0  0.45116  0.06921  0.68731  1.0000
  C   C2220     1.0  0.42982  0.05692  0.69334  1.0000
  H   H2672     1.0  0.54627  0.06963  0.49664  1.0000
  C   C2221     1.0  0.40395  0.00980  0.64096  1.0000
  H   H2673     1.0  0.56349  0.02289  0.50666  1.0000
  H   H2674     1.0  0.45833  0.01569  0.57370  1.0000
  C   C2222     1.0  0.39458  0.02049  0.70007  1.0000
  C   C2223     1.0  0.43962  0.06808  0.57998  1.0000
  C   C2224     1.0  0.43249  0.06487  0.62813  1.0000
  H   H2675     1.0  0.45185  0.00495  0.72222  1.0000
  H   H2676     1.0  0.51801  0.08434  0.49660  1.0000
  C   C2225     1.0  0.47487  0.99932  0.72879  1.0000
  Fe  Fe280     1.0  0.40198  0.06148  0.65161  1.0000
  C   C2226     1.0  0.44673  0.01915  0.59360  1.0000
  H   H2677     1.0  0.45005  0.05043  0.71001  1.0000
  C   C2227     1.0  0.45442  0.05448  0.57229  1.0000
  H   H2678     1.0  0.39725  0.99960  0.71769  1.0000
  H   H2679     1.0  0.42565  0.04992  0.59596  1.0000
  C   C2228     1.0  0.45436  0.02573  0.60514  1.0000
  H   H2680     1.0  0.40745  0.09200  0.66334  1.0000
  H   H2681     1.0  0.50187  0.09307  0.71594  1.0000
  C   C2229     1.0  0.40870  0.00426  0.70228  1.0000
  C   C2230     1.0  0.45746  0.99762  0.71940  1.0000
  C   C2231     1.0  0.40508  0.01833  0.58087  1.0000
  H   H2682     1.0  0.40025  0.02579  0.69913  1.0000
  H   H2683     1.0  0.39812  0.01810  0.67937  1.0000
  H   H2684     1.0  0.52206  0.01444  0.55196  1.0000
  H   H2685     1.0  0.49999  0.02112  0.54525  1.0000
  C   C2232     1.0  0.40566  0.99923  0.71359  1.0000
  C   C2233     1.0  0.49825  0.00632  0.56474  1.0000
  C   C2234     1.0  0.39409  0.06348  0.60958  1.0000
  H   H2686     1.0  0.56924  0.99399  0.49803  1.0000
  C   C2235     1.0  0.42873  0.02795  0.68630  1.0000
  C   C2236     1.0  0.41340  0.99371  0.71988  1.0000
  H   H2687     1.0  0.40722  0.07933  0.70313  1.0000
  C   C2237     1.0  0.47555  0.05932  0.73213  1.0000
  C   C2238     1.0  0.45153  0.02303  0.57378  1.0000
  H   H2688     1.0  0.39659  0.99556  0.69530  1.0000
  C   C2239     1.0  0.42436  0.99312  0.71515  1.0000
  N   N154      1.0  0.44263  0.02115  0.58355  1.0000
  H   H2689     1.0  0.47780  0.00016  0.72002  1.0000
  H   H2690     1.0  0.42301  0.05446  0.69954  1.0000
  C   C2240     1.0  0.41714  0.04372  0.61229  1.0000
  H   H2691     1.0  0.41224  0.99584  0.61157  1.0000
  H   H2692     1.0  0.46959  0.06674  0.73011  1.0000
  H   H2693     1.0  0.54658  0.03998  0.48539  1.0000
  C   C2241     1.0  0.49819  0.99821  0.65160  1.0000
  C   C2242     1.0  0.40328  0.99693  0.61412  1.0000
  H   H2694     1.0  0.50937  0.00739  0.66709  1.0000
  C   C2243     1.0  0.50016  0.99925  0.64005  1.0000
  H   H2695     1.0  0.51217  0.08279  0.70981  1.0000
  S   S589      1.0  0.38755  0.04687  0.57744  1.0000
  C   C2244     1.0  0.41994  0.00364  0.69778  1.0000
  Fe  Fe281     1.0  0.57461  0.06865  0.51821  1.0000
  H   H2696     1.0  0.50285  0.00617  0.63413  1.0000
  H   H2697     1.0  0.44574  0.00185  0.60000  1.0000
  C   C2245     1.0  0.47946  0.00492  0.58193  1.0000
  C   C2246     1.0  0.43084  0.05536  0.68286  1.0000
  H   H2698     1.0  0.42682  0.02994  0.59029  1.0000
  H   H2699     1.0  0.50455  0.02201  0.65226  1.0000
  H   H2700     1.0  0.42500  0.05182  0.68139  1.0000
  H   H2701     1.0  0.52928  0.99646  0.58586  1.0000
  H   H2702     1.0  0.48644  0.00465  0.67073  1.0000
  H   H2703     1.0  0.45171  0.03035  0.66658  1.0000
  C   C2247     1.0  0.42760  0.99814  0.70416  1.0000
  H   H2704     1.0  0.53503  0.03094  0.52946  1.0000
  H   H2705     1.0  0.41090  0.98989  0.72847  1.0000
  H   H2706     1.0  0.45319  0.05182  0.61082  1.0000
  C   C2248     1.0  0.44768  0.05308  0.56637  1.0000
  S   S590      1.0  0.40342  0.04580  0.68134  1.0000
  H   H2707     1.0  0.45340  0.06363  0.70414  1.0000
  C   C2249     1.0  0.44816  0.05867  0.61482  1.0000
  S   S591      1.0  0.38958  0.07096  0.57883  1.0000
  C   C2250     1.0  0.57273  0.00108  0.49721  1.0000
  C   C2251     1.0  0.45282  0.00690  0.60990  1.0000
  C   C2252     1.0  0.49778  0.99352  0.59919  1.0000
  H   H2708     1.0  0.45308  0.06570  0.66933  1.0000
  C   C2253     1.0  0.49076  0.01586  0.56758  1.0000
  C   C2254     1.0  0.43686  0.05887  0.56753  1.0000
  H   H2709     1.0  0.51182  0.99127  0.55218  1.0000
  H   H2710     1.0  0.49764  0.02044  0.64302  1.0000
  H   H2711     1.0  0.51566  0.99745  0.65863  1.0000
  C   C2255     1.0  0.43928  0.05835  0.67428  1.0000
  C   C2256     1.0  0.42527  0.04847  0.60468  1.0000
  S   S592      1.0  0.40785  0.04902  0.58601  1.0000
  H   H2712     1.0  0.46463  0.01391  0.64396  1.0000
  H   H2713     1.0  0.44650  0.06082  0.71795  1.0000
  N   N155      1.0  0.53632  0.03096  0.56619  1.0000
  C   C2257     1.0  0.53085  0.03504  0.57642  1.0000
  C   C2258     1.0  0.54707  0.03393  0.56226  1.0000
  C   C2259     1.0  0.52975  0.03686  0.55788  1.0000
  C   C2260     1.0  0.53756  0.01899  0.56769  1.0000
  C   C2261     1.0  0.53274  0.01235  0.57755  1.0000
  C   C2262     1.0  0.54328  0.01370  0.55891  1.0000
  C   C2263     1.0  0.53339  0.00123  0.57836  1.0000
  C   C2264     1.0  0.54389  0.00261  0.55977  1.0000
  C   C2265     1.0  0.53884  0.99639  0.56945  1.0000
  H   H2714     1.0  0.52231  0.03405  0.57936  1.0000
  H   H2715     1.0  0.53527  0.03083  0.58312  1.0000
  H   H2716     1.0  0.53037  0.04398  0.57515  1.0000
  H   H2717     1.0  0.55254  0.02913  0.56791  1.0000
  H   H2718     1.0  0.54638  0.04281  0.56166  1.0000
  H   H2719     1.0  0.55121  0.03254  0.55388  1.0000
  H   H2720     1.0  0.52146  0.03520  0.56065  1.0000
  H   H2721     1.0  0.52884  0.04589  0.55630  1.0000
  H   H2722     1.0  0.53346  0.03457  0.54981  1.0000
  H   H2723     1.0  0.52813  0.01559  0.58469  1.0000
  H   H2724     1.0  0.54719  0.01817  0.55121  1.0000
  C   C2266     1.0  0.48755  0.04266  0.72750  1.0000
  H   H2725     1.0  0.54817  0.99893  0.55281  1.0000
  S   S593      1.0  0.38903  0.06622  0.66598  1.0000
  S   S594      1.0  0.40308  0.07003  0.63390  1.0000
  H   H2726     1.0  0.42016  0.06125  0.71430  1.0000
  H   H2727     1.0  0.41002  0.01966  0.68192  1.0000
  H   H2728     1.0  0.42851  0.05878  0.72361  1.0000
  C   C2267     1.0  0.47925  0.08543  0.73046  1.0000
  H   H2729     1.0  0.57243  0.03677  0.50650  1.0000
  C   C2268     1.0  0.52402  0.08958  0.49257  1.0000
  H   H2730     1.0  0.39982  0.00586  0.61310  1.0000
  C   C2269     1.0  0.49327  0.07880  0.71114  1.0000
  C   C2270     1.0  0.46627  0.99394  0.73461  1.0000
  N   N156      1.0  0.49818  0.07709  0.72065  1.0000
  H   H2731     1.0  0.51001  0.06326  0.71523  1.0000
  H   H2732     1.0  0.50057  0.99192  0.62691  1.0000
  N   N157      1.0  0.39996  0.99082  0.62552  1.0000
  H   H2733     1.0  0.48663  0.00761  0.72951  1.0000
  C   C2271     1.0  0.39672  0.06486  0.62686  1.0000
  C   C2272     1.0  0.46213  0.98789  0.65682  1.0000
  H   H2734     1.0  0.52319  0.06803  0.49120  1.0000
  C   C2273     1.0  0.38796  0.99277  0.62853  1.0000
  H   H2735     1.0  0.50018  0.00793  0.54333  1.0000
  C   C2274     1.0  0.41116  0.00279  0.64724  1.0000
  C   C2275     1.0  0.50417  0.06547  0.72274  1.0000
  H   H2736     1.0  0.38886  0.05651  0.50980  1.0000
  C   C2276     1.0  0.48005  0.00355  0.73418  1.0000
  H   H2737     1.0  0.39397  0.01506  0.73320  1.0000
  C   C2277     1.0  0.39167  0.06328  0.70145  1.0000
  H   H2738     1.0  0.38658  0.00771  0.69188  1.0000
  C   C2278     1.0  0.41152  0.98789  0.63930  1.0000
  C   C2279     1.0  0.38997  0.01832  0.59662  1.0000
  Fe  Fe282     1.0  0.39065  0.04807  0.67214  1.0000
  S   S595      1.0  0.39297  0.99023  0.67448  1.0000
  H   H2739     1.0  0.38652  0.10430  0.62382  1.0000
  Fe  Fe283     1.0  0.38887  0.06297  0.56576  1.0000
  S   S596      1.0  0.47271  0.98758  0.62467  1.0000
  H   H2740     1.0  0.52122  0.09552  0.48537  1.0000
  H   H2741     1.0  0.38658  0.03537  0.73398  1.0000
  H   H2742     1.0  0.50070  0.98834  0.56896  1.0000
  C   C2280     1.0  0.39079  0.09351  0.66346  1.0000
  H   H2743     1.0  0.48475  0.98746  0.58355  1.0000
  H   H2744     1.0  0.38913  0.06081  0.69546  1.0000
  H   H2745     1.0  0.38794  0.05564  0.64143  1.0000
  C   C2281     1.0  0.38741  0.05977  0.71269  1.0000
  H   H2746     1.0  0.38817  0.02545  0.69558  1.0000
  C   C2282     1.0  0.38655  0.09503  0.64576  1.0000
  C   C2283     1.0  0.38718  0.05629  0.61523  1.0000
  H   H2747     1.0  0.38822  0.09282  0.67229  1.0000
  Fe  Fe284     1.0  0.40156  0.38319  0.93129  1.0000
  H   H2748     1.0  0.46404  0.03838  0.89939  1.0000
  S   S597      1.0  0.41943  0.37782  0.93095  1.0000
  C   C2284     1.0  0.47927  0.05711  0.74179  1.0000
  H   H2749     1.0  0.39446  0.24131  0.88356  1.0000
  C   C2285     1.0  0.47708  0.00816  0.89757  1.0000
  C   C2286     1.0  0.44231  0.01046  0.76070  1.0000
  H   H2750     1.0  0.47041  0.99605  0.84490  1.0000
  H   H2751     1.0  0.43711  0.04855  0.78527  1.0000
  H   H2752     1.0  0.39987  0.21370  0.94693  1.0000
  H   H2753     1.0  0.46940  0.08703  0.75730  1.0000
  S   S598      1.0  0.39276  0.38436  0.91830  1.0000
  Fe  Fe285     1.0  0.46432  0.40498  0.92984  1.0000
  S   S599      1.0  0.48163  0.39751  0.92296  1.0000
  S   S600      1.0  0.45113  0.40987  0.92036  1.0000
  Fe  Fe286     1.0  0.46908  0.40426  0.95134  1.0000
  S   S601      1.0  0.48665  0.39651  0.94646  1.0000
  S   S602      1.0  0.46147  0.40796  0.96785  1.0000
  Fe  Fe287     1.0  0.48599  0.40885  0.93060  1.0000
  S   S603      1.0  0.49980  0.41769  0.92248  1.0000
  Fe  Fe288     1.0  0.48061  0.38594  0.93955  1.0000
  S   S604      1.0  0.48754  0.36763  0.94230  1.0000
  S   S605      1.0  0.46870  0.41736  0.93596  1.0000
  S   S606      1.0  0.46307  0.39272  0.94591  1.0000
  C   C2287     1.0  0.48472  0.38503  0.98101  1.0000
  S   S607      1.0  0.39934  0.27525  0.93104  1.0000
  H   H2754     1.0  0.50186  0.23766  0.95030  1.0000
  Fe  Fe289     1.0  0.40182  0.30462  0.91338  1.0000
  S   S608      1.0  0.40714  0.29765  0.92925  1.0000
  S   S609      1.0  0.40498  0.32139  0.90444  1.0000
  Fe  Fe290     1.0  0.41416  0.28213  0.92337  1.0000
  S   S610      1.0  0.43083  0.27325  0.92550  1.0000
  Fe  Fe291     1.0  0.39179  0.29164  0.93538  1.0000
  H   H2755     1.0  0.44910  0.02060  0.76588  1.0000
  S   S611      1.0  0.41030  0.28947  0.90681  1.0000
  H   H2756     1.0  0.40963  0.98961  0.78688  1.0000
  Fe  Fe292     1.0  0.40911  0.19735  0.93804  1.0000
  S   S612      1.0  0.41692  0.19493  0.95201  1.0000
  Fe  Fe293     1.0  0.41384  0.20124  0.91355  1.0000
  H   H2757     1.0  0.46549  0.36978  0.96788  1.0000
  S   S613      1.0  0.42758  0.20267  0.89884  1.0000
  C   C2288     1.0  0.51029  0.44926  0.97675  1.0000
  H   H2758     1.0  0.43334  0.09680  0.87465  1.0000
  H   H2759     1.0  0.39920  0.23141  0.90668  1.0000
  H   H2760     1.0  0.45614  0.99715  0.90508  1.0000
  S   S614      1.0  0.40989  0.21265  0.92489  1.0000
  S   S615      1.0  0.41434  0.18584  0.92666  1.0000
  Fe  Fe294     1.0  0.46293  0.22416  0.94373  1.0000
  S   S616      1.0  0.48091  0.21858  0.94140  1.0000
  S   S617      1.0  0.45317  0.22642  0.96040  1.0000
  Fe  Fe295     1.0  0.46367  0.22529  0.91994  1.0000
  S   S618      1.0  0.48167  0.21921  0.91604  1.0000
  S   S619      1.0  0.45597  0.23091  0.90539  1.0000
  Fe  Fe296     1.0  0.47883  0.20729  0.93226  1.0000
  S   S620      1.0  0.48596  0.18939  0.93793  1.0000
  Fe  Fe297     1.0  0.48156  0.23116  0.92567  1.0000
  S   S621      1.0  0.49354  0.24205  0.91945  1.0000
  S   S622      1.0  0.46073  0.21233  0.93534  1.0000
  S   S623      1.0  0.46371  0.23783  0.92877  1.0000
  Fe  Fe298     1.0  0.47399  0.29751  0.93679  1.0000
  S   S624      1.0  0.47066  0.28511  0.95250  1.0000
  S   S625      1.0  0.48184  0.29237  0.92079  1.0000
  Fe  Fe299     1.0  0.46419  0.31712  0.94771  1.0000
  S   S626      1.0  0.45987  0.30622  0.96421  1.0000
  S   S627      1.0  0.45763  0.33520  0.94725  1.0000
  Fe  Fe300     1.0  0.47632  0.29586  0.95942  1.0000
  S   S628      1.0  0.48578  0.28914  0.97246  1.0000
  Fe  Fe301     1.0  0.45462  0.29675  0.95553  1.0000
  S   S629      1.0  0.43888  0.29146  0.96192  1.0000
  S   S630      1.0  0.48117  0.30741  0.94343  1.0000
  S   S631      1.0  0.45745  0.30845  0.93932  1.0000
  C   C2289     1.0  0.39344  0.00276  0.86689  1.0000
  S   S632      1.0  0.38765  0.03762  0.84582  1.0000
  Fe  Fe302     1.0  0.41948  0.10193  0.92811  1.0000
  S   S633      1.0  0.41955  0.10614  0.91023  1.0000
  S   S634      1.0  0.43496  0.09464  0.93382  1.0000
  S   S635      1.0  0.40837  0.11773  0.93114  1.0000
  S   S636      1.0  0.40660  0.09238  0.93297  1.0000
  Fe  Fe303     1.0  0.48182  0.13961  0.92561  1.0000
  S   S637      1.0  0.49602  0.12595  0.92900  1.0000
  S   S638      1.0  0.48280  0.15546  0.91309  1.0000
  Fe  Fe304     1.0  0.46593  0.12736  0.94254  1.0000
  S   S639      1.0  0.47865  0.11266  0.94744  1.0000
  S   S640      1.0  0.44845  0.12884  0.95031  1.0000
  Fe  Fe305     1.0  0.48770  0.12515  0.94682  1.0000
  S   S641      1.0  0.49563  0.12555  0.95996  1.0000
  Fe  Fe306     1.0  0.48551  0.11482  0.92919  1.0000
  S   S642      1.0  0.49214  0.10022  0.92102  1.0000
  S   S643      1.0  0.47428  0.13964  0.94333  1.0000
  S   S644      1.0  0.47196  0.12869  0.92442  1.0000
  H   H2761     1.0  0.45191  0.02063  0.88090  1.0000
  C   C2290     1.0  0.43316  0.24845  0.94577  1.0000
  C   C2291     1.0  0.56065  0.48612  0.97832  1.0000
  H   H2762     1.0  0.50298  0.13860  0.87966  1.0000
  S   S645      1.0  0.43491  0.04033  0.84981  1.0000
  Fe  Fe307     1.0  0.47755  0.06880  0.85858  1.0000
  S   S646      1.0  0.47659  0.05144  0.86690  1.0000
  S   S647      1.0  0.48003  0.07503  0.84016  1.0000
  Fe  Fe308     1.0  0.47517  0.07539  0.88034  1.0000
  S   S648      1.0  0.47428  0.05836  0.89032  1.0000
  S   S649      1.0  0.47068  0.09063  0.88742  1.0000
  Fe  Fe309     1.0  0.48756  0.05261  0.87659  1.0000
  S   S650      1.0  0.50190  0.03880  0.87930  1.0000
  Fe  Fe310     1.0  0.46345  0.05858  0.87970  1.0000
  S   S651      1.0  0.44785  0.05300  0.88688  1.0000
  S   S652      1.0  0.48956  0.06966  0.86745  1.0000
  S   S653      1.0  0.46329  0.07593  0.87058  1.0000
  C   C2292     1.0  0.43379  0.10357  0.87764  1.0000
  Fe  Fe311     1.0  0.47257  0.04961  0.79497  1.0000
  S   S654      1.0  0.45520  0.05193  0.79445  1.0000
  S   S655      1.0  0.47592  0.04446  0.81197  1.0000
  Fe  Fe312     1.0  0.45933  0.06427  0.77887  1.0000
  S   S656      1.0  0.44735  0.07990  0.77488  1.0000
  Fe  Fe313     1.0  0.46137  0.03980  0.78376  1.0000
  S   S657      1.0  0.45364  0.02634  0.78450  1.0000
  S   S658      1.0  0.47638  0.06291  0.77995  1.0000
  H   H2763     1.0  0.45895  0.05116  0.91760  1.0000
  H   H2764     1.0  0.44503  0.28133  0.90078  1.0000
  S   S659      1.0  0.52049  0.47104  0.94522  1.0000
  H   H2765     1.0  0.43639  0.06570  0.80853  1.0000
  C   C2293     1.0  0.43481  0.08543  0.81147  1.0000
  C   C2294     1.0  0.46008  0.15328  0.98478  1.0000
  H   H2766     1.0  0.39312  0.02252  0.81578  1.0000
  S   S660      1.0  0.39158  0.23365  0.97582  1.0000
  C   C2295     1.0  0.51216  0.39185  0.96876  1.0000
  Fe  Fe314     1.0  0.40699  0.06800  0.83172  1.0000
  C   C2296     1.0  0.40710  0.35683  0.98406  1.0000
  C   C2297     1.0  0.40133  0.00127  0.76549  1.0000
  C   C2298     1.0  0.48336  0.98997  0.80666  1.0000
  H   H2767     1.0  0.50106  0.00269  0.81010  1.0000
  H   H2768     1.0  0.55312  0.48564  0.95552  1.0000
  C   C2299     1.0  0.43485  0.07393  0.74826  1.0000
  C   C2300     1.0  0.44588  0.07335  0.74681  1.0000
  C   C2301     1.0  0.44967  0.07546  0.75489  1.0000
  C   C2302     1.0  0.44241  0.07868  0.76417  1.0000
  C   C2303     1.0  0.43130  0.07996  0.76525  1.0000
  C   C2304     1.0  0.42753  0.07739  0.75740  1.0000
  H   H2769     1.0  0.41050  0.33778  0.97429  1.0000
  H   H2770     1.0  0.45824  0.07436  0.75406  1.0000
  H   H2771     1.0  0.42564  0.08254  0.77235  1.0000
  H   H2772     1.0  0.41896  0.07803  0.75847  1.0000
  C   C2305     1.0  0.48149  0.99930  0.77344  1.0000
  C   C2306     1.0  0.48277  0.01011  0.77037  1.0000
  C   C2307     1.0  0.47403  0.01853  0.77335  1.0000
  C   C2308     1.0  0.46409  0.01612  0.77953  1.0000
  C   C2309     1.0  0.46264  0.00542  0.78203  1.0000
  C   C2310     1.0  0.47132  0.99705  0.77893  1.0000
  H   H2773     1.0  0.49054  0.01197  0.76586  1.0000
  H   H2774     1.0  0.47502  0.02690  0.77073  1.0000
  H   H2775     1.0  0.45490  0.00352  0.78652  1.0000
  C   C2311     1.0  0.48580  0.07966  0.75036  1.0000
  C   C2312     1.0  0.47795  0.06700  0.83234  1.0000
  C   C2313     1.0  0.47417  0.05737  0.83741  1.0000
  C   C2314     1.0  0.47318  0.05077  0.83104  1.0000
  C   C2315     1.0  0.47587  0.05377  0.81954  1.0000
  C   C2316     1.0  0.47926  0.06360  0.81441  1.0000
  C   C2317     1.0  0.48032  0.07019  0.82082  1.0000
  H   H2776     1.0  0.47199  0.05499  0.84624  1.0000
  H   H2777     1.0  0.47042  0.04323  0.83506  1.0000
  H   H2778     1.0  0.48143  0.06593  0.80554  1.0000
  H   H2779     1.0  0.48318  0.07767  0.81684  1.0000
  C   C2318     1.0  0.43846  0.04302  0.86060  1.0000
  C   C2319     1.0  0.43059  0.04877  0.86792  1.0000
  C   C2320     1.0  0.43347  0.05142  0.87626  1.0000
  C   C2321     1.0  0.44427  0.04866  0.87707  1.0000
  C   C2322     1.0  0.45213  0.04269  0.86990  1.0000
  C   C2323     1.0  0.44921  0.03979  0.86169  1.0000
  H   H2780     1.0  0.42229  0.05132  0.86708  1.0000
  H   H2781     1.0  0.42739  0.05592  0.88187  1.0000
  H   H2782     1.0  0.46041  0.04017  0.87074  1.0000
  H   H2783     1.0  0.45532  0.03535  0.85602  1.0000
  C   C2324     1.0  0.50271  0.00315  0.88000  1.0000
  C   C2325     1.0  0.49573  0.01163  0.87433  1.0000
  C   C2326     1.0  0.49508  0.02267  0.87427  1.0000
  C   C2327     1.0  0.50176  0.02522  0.87950  1.0000
  C   C2328     1.0  0.50902  0.01673  0.88471  1.0000
  C   C2329     1.0  0.50939  0.00579  0.88509  1.0000
  H   H2784     1.0  0.49087  0.00970  0.87002  1.0000
  H   H2785     1.0  0.48952  0.02913  0.87009  1.0000
  H   H2786     1.0  0.51430  0.01860  0.88865  1.0000
  H   H2787     1.0  0.38672  0.33729  0.96307  1.0000
  C   C2330     1.0  0.42658  0.24759  0.98012  1.0000
  C   C2331     1.0  0.48571  0.09732  0.91220  1.0000
  C   C2332     1.0  0.47634  0.10434  0.90921  1.0000
  C   C2333     1.0  0.47181  0.10213  0.90167  1.0000
  C   C2334     1.0  0.47649  0.09277  0.89718  1.0000
  C   C2335     1.0  0.48569  0.08557  0.90040  1.0000
  C   C2336     1.0  0.49031  0.08788  0.90784  1.0000
  H   H2788     1.0  0.47259  0.11150  0.91266  1.0000
  H   H2789     1.0  0.46463  0.10769  0.89933  1.0000
  H   H2790     1.0  0.48934  0.07833  0.89704  1.0000
  H   H2791     1.0  0.49754  0.08237  0.91013  1.0000
  C   C2337     1.0  0.48827  0.12229  0.97359  1.0000
  C   C2338     1.0  0.45152  0.01285  0.88720  1.0000
  H   H2792     1.0  0.41722  0.07016  0.89065  1.0000
  C   C2339     1.0  0.38776  0.30130  0.95682  1.0000
  C   C2340     1.0  0.44085  0.31904  0.92012  1.0000
  H   H2793     1.0  0.49652  0.48355  0.90776  1.0000
  H   H2794     1.0  0.45490  0.05211  0.73595  1.0000
  C   C2341     1.0  0.49815  0.99584  0.80914  1.0000
  H   H2795     1.0  0.41563  0.09638  0.87823  1.0000
  H   H2796     1.0  0.47649  0.11646  0.96948  1.0000
  H   H2797     1.0  0.40688  0.15123  0.93463  1.0000
  H   H2798     1.0  0.43886  0.37551  0.93769  1.0000
  C   C2342     1.0  0.45589  0.37657  0.98186  1.0000
  C   C2343     1.0  0.49153  0.04061  0.73705  1.0000
  C   C2344     1.0  0.43857  0.10434  0.93819  1.0000
  C   C2345     1.0  0.44948  0.10458  0.93616  1.0000
  C   C2346     1.0  0.45251  0.11209  0.93992  1.0000
  C   C2347     1.0  0.44463  0.11946  0.94560  1.0000
  C   C2348     1.0  0.43373  0.11930  0.94753  1.0000
  C   C2349     1.0  0.43068  0.11166  0.94393  1.0000
  H   H2799     1.0  0.45561  0.09888  0.93177  1.0000
  H   H2800     1.0  0.46097  0.11199  0.93854  1.0000
  H   H2801     1.0  0.42770  0.12502  0.95184  1.0000
  H   H2802     1.0  0.42228  0.11123  0.94584  1.0000
  C   C2350     1.0  0.46773  0.01937  0.82514  1.0000
  H   H2803     1.0  0.42012  0.31232  0.94119  1.0000
  C   C2351     1.0  0.48428  0.31093  0.97089  1.0000
  C   C2352     1.0  0.39380  0.35686  0.97463  1.0000
  C   C2353     1.0  0.47689  0.00248  0.74552  1.0000
  H   H2804     1.0  0.40453  0.10102  0.95388  1.0000
  C   C2354     1.0  0.46859  0.99710  0.75151  1.0000
  H   H2805     1.0  0.48340  0.31230  0.96259  1.0000
  H   H2806     1.0  0.48256  0.32811  0.97009  1.0000
  H   H2807     1.0  0.44238  0.36421  0.96567  1.0000
  H   H2808     1.0  0.47534  0.02130  0.80831  1.0000
  C   C2355     1.0  0.48535  0.18028  0.93052  1.0000
  C   C2356     1.0  0.48278  0.18393  0.92017  1.0000
  C   C2357     1.0  0.48247  0.17627  0.91452  1.0000
  C   C2358     1.0  0.48454  0.16502  0.91933  1.0000
  C   C2359     1.0  0.48729  0.16144  0.92957  1.0000
  C   C2360     1.0  0.48757  0.16905  0.93518  1.0000
  H   H2809     1.0  0.48114  0.19262  0.91648  1.0000
  H   H2810     1.0  0.48047  0.17908  0.90652  1.0000
  H   H2811     1.0  0.48935  0.15279  0.93313  1.0000
  H   H2812     1.0  0.48948  0.16621  0.94318  1.0000
  C   C2361     1.0  0.46112  0.21918  0.97000  1.0000
  C   C2362     1.0  0.46968  0.21046  0.96754  1.0000
  C   C2363     1.0  0.47767  0.20640  0.97370  1.0000
  C   C2364     1.0  0.41795  0.33527  0.93563  1.0000
  H   H2813     1.0  0.39038  0.05039  0.79683  1.0000
  C   C2365     1.0  0.41296  0.34630  0.93539  1.0000
  H   H2814     1.0  0.47033  0.20703  0.96065  1.0000
  H   H2815     1.0  0.48466  0.20023  0.97120  1.0000
  C   C2366     1.0  0.43970  0.01619  0.74212  1.0000
  C   C2367     1.0  0.40396  0.08327  0.89513  1.0000
  C   C2368     1.0  0.48986  0.25591  0.92035  1.0000
  C   C2369     1.0  0.47998  0.26039  0.92676  1.0000
  C   C2370     1.0  0.47757  0.27151  0.92734  1.0000
  C   C2371     1.0  0.48491  0.27819  0.92128  1.0000
  C   C2372     1.0  0.49464  0.27370  0.91476  1.0000
  C   C2373     1.0  0.49717  0.26259  0.91444  1.0000
  H   H2816     1.0  0.47423  0.25531  0.93121  1.0000
  H   H2817     1.0  0.46992  0.27501  0.93217  1.0000
  H   H2818     1.0  0.50029  0.27883  0.90997  1.0000
  H   H2819     1.0  0.50479  0.25920  0.90945  1.0000
  C   C2374     1.0  0.47519  0.08517  0.74990  1.0000
  C   C2375     1.0  0.40748  0.15763  0.90708  1.0000
  C   C2376     1.0  0.40291  0.16601  0.91298  1.0000
  H   H2820     1.0  0.41461  0.15822  0.90052  1.0000
  H   H2821     1.0  0.40651  0.17304  0.91099  1.0000
  C   C2377     1.0  0.40787  0.21568  0.97261  1.0000
  C   C2378     1.0  0.41346  0.20699  0.96738  1.0000
  C   C2379     1.0  0.47751  0.02489  0.90196  1.0000
  H   H2822     1.0  0.41992  0.20086  0.97058  1.0000
  C   C2380     1.0  0.43659  0.20924  0.90080  1.0000
  C   C2381     1.0  0.43722  0.20917  0.91140  1.0000
  C   C2382     1.0  0.44369  0.21532  0.91290  1.0000
  C   C2383     1.0  0.44927  0.22181  0.90377  1.0000
  C   C2384     1.0  0.44876  0.22175  0.89317  1.0000
  C   C2385     1.0  0.44261  0.21529  0.89169  1.0000
  H   H2823     1.0  0.43256  0.20457  0.91847  1.0000
  H   H2824     1.0  0.44394  0.21546  0.92110  1.0000
  H   H2825     1.0  0.45306  0.22678  0.88611  1.0000
  H   H2826     1.0  0.44219  0.21534  0.88348  1.0000
  H   H2827     1.0  0.57679  0.45629  0.98330  1.0000
  H   H2828     1.0  0.48219  0.98872  0.82921  1.0000
  C   C2386     1.0  0.39882  0.31300  0.96340  1.0000
  C   C2387     1.0  0.39767  0.31566  0.95253  1.0000
  C   C2388     1.0  0.39208  0.30986  0.94929  1.0000
  H   H2829     1.0  0.40100  0.32223  0.94662  1.0000
  C   C2389     1.0  0.42827  0.22820  0.98246  1.0000
  C   C2390     1.0  0.39679  0.22301  0.95911  1.0000
  C   C2391     1.0  0.43644  0.12018  0.88573  1.0000
  H   H2830     1.0  0.46370  0.02797  0.82418  1.0000
  H   H2831     1.0  0.51410  0.41522  0.94947  1.0000
  H   H2832     1.0  0.41963  0.22796  0.95419  1.0000
  C   C2392     1.0  0.48386  0.31988  0.97512  1.0000
  H   H2833     1.0  0.44493  0.32312  0.92374  1.0000
  H   H2834     1.0  0.40767  0.10628  0.89347  1.0000
  S   S661      1.0  0.40927  0.08399  0.90592  1.0000
  H   H2835     1.0  0.50181  0.11051  0.89433  1.0000
  C   C2393     1.0  0.43327  0.27759  0.93599  1.0000
  C   C2394     1.0  0.42470  0.28049  0.94460  1.0000
  C   C2395     1.0  0.42647  0.28453  0.95270  1.0000
  C   C2396     1.0  0.43685  0.28558  0.95228  1.0000
  C   C2397     1.0  0.44547  0.28247  0.94380  1.0000
  C   C2398     1.0  0.44370  0.27839  0.93569  1.0000
  H   H2836     1.0  0.41664  0.27972  0.94497  1.0000
  H   H2837     1.0  0.41971  0.28728  0.95899  1.0000
  H   H2838     1.0  0.45346  0.28342  0.94335  1.0000
  H   H2839     1.0  0.45035  0.27619  0.92903  1.0000
  C   C2399     1.0  0.50350  0.42539  0.92958  1.0000
  C   C2400     1.0  0.51334  0.42885  0.92537  1.0000
  C   C2401     1.0  0.51659  0.43483  0.93094  1.0000
  C   C2402     1.0  0.50990  0.43754  0.94069  1.0000
  C   C2403     1.0  0.49992  0.43437  0.94472  1.0000
  C   C2404     1.0  0.49678  0.42820  0.93928  1.0000
  H   H2840     1.0  0.51857  0.42673  0.91786  1.0000
  H   H2841     1.0  0.52436  0.43709  0.92782  1.0000
  H   H2842     1.0  0.49466  0.43652  0.95221  1.0000
  H   H2843     1.0  0.48912  0.42570  0.94253  1.0000
  H   H2844     1.0  0.41924  0.24208  0.87552  1.0000
  C   C2405     1.0  0.47724  0.39061  0.97444  1.0000
  C   C2406     1.0  0.46390  0.09092  0.96076  1.0000
  S   S662      1.0  0.41225  0.04936  0.74375  1.0000
  H   H2845     1.0  0.39563  0.37616  0.97544  1.0000
  C   C2407     1.0  0.42529  0.24939  0.96939  1.0000
  H   H2846     1.0  0.47719  0.38750  0.96759  1.0000
  H   H2847     1.0  0.39029  0.22912  0.95593  1.0000
  C   C2408     1.0  0.50790  0.01889  0.84753  1.0000
  H   H2848     1.0  0.50005  0.43981  0.97517  1.0000
  C   C2409     1.0  0.47901  0.35851  0.94462  1.0000
  C   C2410     1.0  0.48359  0.34732  0.94508  1.0000
  C   C2411     1.0  0.47710  0.34000  0.94609  1.0000
  C   C2412     1.0  0.46601  0.34387  0.94660  1.0000
  C   C2413     1.0  0.46139  0.35501  0.94637  1.0000
  C   C2414     1.0  0.46785  0.36230  0.94545  1.0000
  H   H2849     1.0  0.49221  0.34431  0.94444  1.0000
  H   H2850     1.0  0.48072  0.33140  0.94631  1.0000
  H   H2851     1.0  0.45282  0.35807  0.94669  1.0000
  H   H2852     1.0  0.46421  0.37086  0.94512  1.0000
  C   C2415     1.0  0.48558  0.44793  0.92049  1.0000
  C   C2416     1.0  0.49211  0.10707  0.87443  1.0000
  H   H2853     1.0  0.44237  0.03012  0.80843  1.0000
  C   C2417     1.0  0.47799  0.13670  0.89558  1.0000
  C   C2418     1.0  0.43331  0.41969  0.96687  1.0000
  H   H2854     1.0  0.50510  0.05352  0.84896  1.0000
  H   H2855     1.0  0.40390  0.12458  0.86626  1.0000
  H   H2856     1.0  0.47618  0.06283  0.74714  1.0000
  S   S663      1.0  0.41497  0.06926  0.84436  1.0000
  N   N158      1.0  0.40256  0.14393  0.95191  1.0000
  H   H2857     1.0  0.41019  0.21632  0.97970  1.0000
  C   C2419     1.0  0.54641  0.46093  0.97557  1.0000
  C   C2420     1.0  0.45652  0.16520  0.96752  1.0000
  H   H2858     1.0  0.45027  0.11547  0.97815  1.0000
  C   C2421     1.0  0.40446  0.22917  0.89896  1.0000
  C   C2422     1.0  0.56060  0.48257  0.96913  1.0000
  H   H2859     1.0  0.39913  0.03901  0.82334  1.0000
  H   H2860     1.0  0.49788  0.03347  0.73883  1.0000
  C   C2423     1.0  0.39474  0.01145  0.87044  1.0000
  C   C2424     1.0  0.40023  0.34194  0.90886  1.0000
  C   C2425     1.0  0.39768  0.33157  0.91192  1.0000
  Fe  Fe315     1.0  0.39265  0.21306  0.92571  1.0000
  H   H2861     1.0  0.41811  0.12438  0.86103  1.0000
  H   H2862     1.0  0.43904  0.42132  0.97046  1.0000
  H   H2863     1.0  0.40663  0.34374  0.90177  1.0000
  C   C2426     1.0  0.49801  0.10487  0.88245  1.0000
  H   H2864     1.0  0.50951  0.04900  0.82675  1.0000
  C   C2427     1.0  0.42775  0.38712  0.92831  1.0000
  C   C2428     1.0  0.42568  0.39754  0.92149  1.0000
  C   C2429     1.0  0.43294  0.40447  0.91904  1.0000
  C   C2430     1.0  0.44219  0.40104  0.92349  1.0000
  C   C2431     1.0  0.44424  0.39060  0.93026  1.0000
  C   C2432     1.0  0.43706  0.38366  0.93264  1.0000
  H   H2865     1.0  0.41862  0.40019  0.91795  1.0000
  H   H2866     1.0  0.43138  0.41251  0.91369  1.0000
  H   H2867     1.0  0.45147  0.38773  0.93346  1.0000
  H   H2868     1.0  0.46690  0.04054  0.74785  1.0000
  C   C2433     1.0  0.48216  0.01401  0.90137  1.0000
  H   H2869     1.0  0.57911  0.48058  0.91982  1.0000
  C   C2434     1.0  0.40971  0.07543  0.88882  1.0000
  H   H2870     1.0  0.41682  0.32970  0.94357  1.0000
  C   C2435     1.0  0.41006  0.14874  0.95476  1.0000
  C   C2436     1.0  0.41707  0.14258  0.96192  1.0000
  C   C2437     1.0  0.41095  0.15977  0.94982  1.0000
  C   C2438     1.0  0.42459  0.14715  0.96385  1.0000
  C   C2439     1.0  0.41822  0.16437  0.95212  1.0000
  C   C2440     1.0  0.42511  0.15804  0.95903  1.0000
  H   H2871     1.0  0.44810  0.00787  0.88385  1.0000
  H   H2872     1.0  0.39534  0.42163  0.94761  1.0000
  H   H2873     1.0  0.51339  0.01597  0.85305  1.0000
  C   C2441     1.0  0.40581  0.11382  0.88707  1.0000
  Fe  Fe316     1.0  0.40815  0.04250  0.76184  1.0000
  C   C2442     1.0  0.38933  0.32932  0.92101  1.0000
  H   H2874     1.0  0.42874  0.33767  0.90809  1.0000
  C   C2443     1.0  0.41676  0.99477  0.80268  1.0000
  H   H2875     1.0  0.49527  0.40510  0.96018  1.0000
  H   H2876     1.0  0.41695  0.13418  0.96609  1.0000
  H   H2877     1.0  0.43288  0.30417  0.93639  1.0000
  H   H2878     1.0  0.43001  0.14222  0.96917  1.0000
  H   H2879     1.0  0.41849  0.17290  0.94854  1.0000
  H   H2880     1.0  0.43076  0.16161  0.96078  1.0000
  N   N159      1.0  0.44927  0.17385  0.92684  1.0000
  C   C2444     1.0  0.45727  0.16736  0.93361  1.0000
  C   C2445     1.0  0.45527  0.18007  0.91660  1.0000
  C   C2446     1.0  0.44131  0.18178  0.93298  1.0000
  C   C2447     1.0  0.44343  0.16695  0.92431  1.0000
  C   C2448     1.0  0.44259  0.15627  0.93076  1.0000
  C   C2449     1.0  0.43773  0.17107  0.91568  1.0000
  C   C2450     1.0  0.43671  0.15007  0.92846  1.0000
  H   H2881     1.0  0.46287  0.16062  0.92977  1.0000
  H   H2882     1.0  0.46238  0.17247  0.93446  1.0000
  H   H2883     1.0  0.45334  0.16379  0.94213  1.0000
  H   H2884     1.0  0.46081  0.17444  0.91132  1.0000
  H   H2885     1.0  0.46024  0.18474  0.91839  1.0000
  H   H2886     1.0  0.44987  0.18644  0.91167  1.0000
  H   H2887     1.0  0.43688  0.17756  0.94095  1.0000
  H   H2888     1.0  0.44525  0.18745  0.93473  1.0000
  H   H2889     1.0  0.43515  0.18693  0.92828  1.0000
  H   H2890     1.0  0.44639  0.15249  0.93767  1.0000
  H   H2891     1.0  0.43742  0.17930  0.91073  1.0000
  H   H2892     1.0  0.43628  0.14192  0.93343  1.0000
  H   H2893     1.0  0.41969  0.42395  0.97974  1.0000
  C   C2451     1.0  0.45986  0.22299  0.97943  1.0000
  H   H2894     1.0  0.39543  0.16351  0.97293  1.0000
  C   C2452     1.0  0.49800  0.26069  0.97155  1.0000
  C   C2453     1.0  0.44643  0.09828  0.97210  1.0000
  H   H2895     1.0  0.48999  0.01020  0.90342  1.0000
  C   C2454     1.0  0.44155  0.09281  0.96739  1.0000
  S   S664      1.0  0.40616  0.32001  0.96735  1.0000
  C   C2455     1.0  0.44769  0.08659  0.95966  1.0000
  C   C2456     1.0  0.45884  0.08565  0.95635  1.0000
  H   H2896     1.0  0.58036  0.48413  0.90514  1.0000
  H   H2897     1.0  0.46103  0.01560  0.84252  1.0000
  C   C2457     1.0  0.52059  0.41641  0.96760  1.0000
  H   H2898     1.0  0.46874  0.35064  0.97866  1.0000
  C   C2458     1.0  0.45262  0.37637  0.90860  1.0000
  C   C2459     1.0  0.39545  0.17086  0.97527  1.0000
  S   S665      1.0  0.39301  0.37070  0.94354  1.0000
  H   H2899     1.0  0.41039  0.13132  0.87187  1.0000
  C   C2460     1.0  0.49427  0.14153  0.88330  1.0000
  H   H2900     1.0  0.50738  0.17995  0.97976  1.0000
  C   C2461     1.0  0.40415  0.07511  0.80520  1.0000
  H   H2901     1.0  0.43451  0.99705  0.81638  1.0000
  C   C2462     1.0  0.44341  0.34759  0.97508  1.0000
  H   H2902     1.0  0.46353  0.08106  0.95012  1.0000
  H   H2903     1.0  0.43238  0.31537  0.94205  1.0000
  H   H2904     1.0  0.47003  0.98889  0.78074  1.0000
  H   H2905     1.0  0.43152  0.23915  0.91188  1.0000
  C   C2463     1.0  0.38639  0.17957  0.97530  1.0000
  C   C2464     1.0  0.50320  0.01104  0.84627  1.0000
  C   C2465     1.0  0.46989  0.40019  0.97675  1.0000
  C   C2466     1.0  0.48577  0.11750  0.87157  1.0000
  H   H2906     1.0  0.49867  0.12749  0.98036  1.0000
  C   C2467     1.0  0.49586  0.01404  0.83949  1.0000
  C   C2468     1.0  0.39363  0.07336  0.80919  1.0000
  H   H2907     1.0  0.39457  0.03779  0.79234  1.0000
  Fe  Fe317     1.0  0.39476  0.28378  0.91490  1.0000
  H   H2908     1.0  0.52003  0.46007  0.91110  1.0000
  H   H2909     1.0  0.49199  0.12174  0.90666  1.0000
  S   S666      1.0  0.38821  0.17504  0.92967  1.0000
  H   H2910     1.0  0.39636  0.99898  0.81339  1.0000
  H   H2911     1.0  0.43286  0.24992  0.93698  1.0000
  C   C2469     1.0  0.47816  0.99728  0.82773  1.0000
  C   C2470     1.0  0.50115  0.34786  0.96610  1.0000
  H   H2912     1.0  0.42606  0.25933  0.90983  1.0000
  C   C2471     1.0  0.38687  0.05785  0.89020  1.0000
  H   H2913     1.0  0.40107  0.13953  0.93771  1.0000
  H   H2914     1.0  0.44169  0.31585  0.98057  1.0000
  C   C2472     1.0  0.47445  0.01536  0.81602  1.0000
  H   H2915     1.0  0.43737  0.12653  0.88910  1.0000
  C   C2473     1.0  0.44029  0.35900  0.97373  1.0000
  C   C2474     1.0  0.46622  0.01241  0.83549  1.0000
  S   S667      1.0  0.41146  0.07651  0.81399  1.0000
  C   C2475     1.0  0.51569  0.40632  0.95316  1.0000
  C   C2476     1.0  0.43489  0.02220  0.82469  1.0000
  H   H2916     1.0  0.39982  0.22538  0.89565  1.0000
  H   H2917     1.0  0.47484  0.99230  0.80571  1.0000
  C   C2477     1.0  0.39997  0.99009  0.81387  1.0000
  H   H2918     1.0  0.49343  0.40594  0.97408  1.0000
  H   H2919     1.0  0.39751  0.03958  0.90017  1.0000
  H   H2920     1.0  0.48887  0.22747  0.96453  1.0000
  C   C2478     1.0  0.40850  0.27454  0.98133  1.0000
  C   C2479     1.0  0.40298  0.14837  0.90982  1.0000
  H   H2921     1.0  0.39954  0.40193  0.95763  1.0000
  S   S668      1.0  0.56868  0.44934  0.93533  1.0000
  H   H2922     1.0  0.39397  0.34805  0.97849  1.0000
  H   H2923     1.0  0.45237  0.28056  0.97860  1.0000
  C   C2480     1.0  0.47976  0.00409  0.81701  1.0000
  H   H2924     1.0  0.40501  0.12095  0.89060  1.0000
  C   C2481     1.0  0.49930  0.25341  0.98147  1.0000
  C   C2482     1.0  0.46205  0.36802  0.97666  1.0000
  H   H2925     1.0  0.51711  0.45778  0.92579  1.0000
  C   C2483     1.0  0.46338  0.99281  0.74622  1.0000
  C   C2484     1.0  0.45180  0.04476  0.73662  1.0000
  C   C2485     1.0  0.40570  0.40391  0.96069  1.0000
  C   C2486     1.0  0.41498  0.41906  0.96753  1.0000
  H   H2926     1.0  0.42766  0.22264  0.96894  1.0000
  H   H2927     1.0  0.42122  0.40241  0.94274  1.0000
  H   H2928     1.0  0.40163  0.40578  0.96890  1.0000
  H   H2929     1.0  0.47601  0.15185  0.95945  1.0000
  H   H2930     1.0  0.41219  0.39639  0.96196  1.0000
  H   H2931     1.0  0.40662  0.42027  0.97195  1.0000
  C   C2487     1.0  0.40356  0.99113  0.79451  1.0000
  H   H2932     1.0  0.45684  0.01379  0.80532  1.0000
  C   C2488     1.0  0.41296  0.35412  0.96551  1.0000
  C   C2489     1.0  0.41978  0.35962  0.95632  1.0000
  C   C2490     1.0  0.41526  0.34252  0.96743  1.0000
  C   C2491     1.0  0.42816  0.35380  0.94941  1.0000
  C   C2492     1.0  0.42367  0.33680  0.96047  1.0000
  C   C2493     1.0  0.43003  0.34244  0.95143  1.0000
  C   C2494     1.0  0.43242  0.00686  0.80047  1.0000
  H   H2933     1.0  0.42027  0.12808  0.88455  1.0000
  S   S669      1.0  0.41298  0.05548  0.76638  1.0000
  H   H2934     1.0  0.49644  0.44451  0.90552  1.0000
  H   H2935     1.0  0.43312  0.35814  0.94230  1.0000
  H   H2936     1.0  0.49079  0.37797  0.97888  1.0000
  H   H2937     1.0  0.43631  0.33800  0.94587  1.0000
  C   C2495     1.0  0.45312  0.29336  0.90070  1.0000
  C   C2496     1.0  0.46286  0.29575  0.90043  1.0000
  H   H2938     1.0  0.44577  0.29972  0.90105  1.0000
  H   H2939     1.0  0.46315  0.30392  0.90064  1.0000
  C   C2497     1.0  0.43866  0.06578  0.81613  1.0000
  C   C2498     1.0  0.44444  0.06827  0.83472  1.0000
  C   C2499     1.0  0.44716  0.06924  0.84401  1.0000
  C   C2500     1.0  0.45174  0.07784  0.84349  1.0000
  H   H2940     1.0  0.44464  0.05799  0.81821  1.0000
  H   H2941     1.0  0.43111  0.06581  0.82266  1.0000
  H   H2942     1.0  0.44110  0.06128  0.83572  1.0000
  H   H2943     1.0  0.44590  0.06317  0.85162  1.0000
  H   H2944     1.0  0.45417  0.07834  0.85059  1.0000
  H   H2945     1.0  0.50843  0.47549  0.90062  1.0000
  H   H2946     1.0  0.48098  0.00568  0.74970  1.0000
  S   S670      1.0  0.52926  0.47648  0.96886  1.0000
  C   C2501     1.0  0.57491  0.48548  0.91314  1.0000
  C   C2502     1.0  0.38897  0.15619  0.92390  1.0000
  H   H2947     1.0  0.50433  0.17415  0.94758  1.0000
  H   H2948     1.0  0.39910  0.99986  0.79300  1.0000
  N   N160      1.0  0.40871  0.98826  0.80405  1.0000
  C   C2503     1.0  0.45784  0.09719  0.96850  1.0000
  H   H2949     1.0  0.48658  0.36034  0.96647  1.0000
  H   H2950     1.0  0.41473  0.13776  0.93880  1.0000
  C   C2504     1.0  0.57739  0.45724  0.93586  1.0000
  H   H2951     1.0  0.42410  0.25776  0.96468  1.0000
  H   H2952     1.0  0.44372  0.08279  0.95590  1.0000
  H   H2953     1.0  0.45738  0.99158  0.89342  1.0000
  H   H2954     1.0  0.38720  0.32142  0.92331  1.0000
  C   C2505     1.0  0.58218  0.45131  0.96817  1.0000
  C   C2506     1.0  0.46286  0.35947  0.91781  1.0000
  H   H2955     1.0  0.46212  0.13721  0.97410  1.0000
  S   S671      1.0  0.50323  0.98912  0.88155  1.0000
  H   H2956     1.0  0.39209  0.24944  0.89341  1.0000
  C   C2507     1.0  0.45298  0.27211  0.98298  1.0000
  H   H2957     1.0  0.44787  0.34436  0.96788  1.0000
  C   C2508     1.0  0.50433  0.14929  0.96507  1.0000
  H   H2958     1.0  0.51369  0.45122  0.96799  1.0000
  H   H2959     1.0  0.44140  0.24366  0.94668  1.0000
  N   N161      1.0  0.43974  0.10458  0.98050  1.0000
  C   C2509     1.0  0.45673  0.18319  0.95480  1.0000
  C   C2510     1.0  0.42241  0.42115  0.97210  1.0000
  H   H2960     1.0  0.40414  0.26150  0.89041  1.0000
  H   H2961     1.0  0.45153  0.07074  0.73974  1.0000
  C   C2511     1.0  0.41051  0.20615  0.95817  1.0000
  C   C2512     1.0  0.39942  0.22358  0.96858  1.0000
  H   H2962     1.0  0.43960  0.00125  0.85263  1.0000
  H   H2963     1.0  0.50407  0.12584  0.89766  1.0000
  C   C2513     1.0  0.41928  0.00301  0.79313  1.0000
  C   C2514     1.0  0.39392  0.30487  0.97108  1.0000
  N   N162      1.0  0.41430  0.11359  0.87679  1.0000
  C   C2515     1.0  0.43190  0.16478  0.91345  1.0000
  H   H2964     1.0  0.51288  0.40251  0.94808  1.0000
  N   N163      1.0  0.41022  0.41315  0.95296  1.0000
  C   C2516     1.0  0.41482  0.41008  0.94214  1.0000
  C   C2517     1.0  0.45356  0.08559  0.83370  1.0000
  H   H2965     1.0  0.45800  0.14653  0.96216  1.0000
  H   H2966     1.0  0.50727  0.48158  0.92678  1.0000
  C   C2518     1.0  0.49077  0.12366  0.88533  1.0000
  C   C2519     1.0  0.43141  0.15429  0.91980  1.0000
  H   H2967     1.0  0.41938  0.28534  0.97763  1.0000
  Fe  Fe318     1.0  0.40703  0.12114  0.91372  1.0000
  Fe  Fe319     1.0  0.39530  0.10856  0.93481  1.0000
  H   H2968     1.0  0.41872  0.36842  0.95412  1.0000
  Fe  Fe320     1.0  0.41854  0.05088  0.84832  1.0000
  C   C2520     1.0  0.42379  0.31609  0.91957  1.0000
  N   N164      1.0  0.42473  0.24263  0.95323  1.0000
  C   C2521     1.0  0.44612  0.07609  0.82460  1.0000
  H   H2969     1.0  0.45745  0.09207  0.83327  1.0000
  H   H2970     1.0  0.40695  0.02164  0.81589  1.0000
  N   N165      1.0  0.40422  0.35994  0.97322  1.0000
  C   C2522     1.0  0.44660  0.01960  0.75906  1.0000
  C   C2523     1.0  0.41826  0.41549  0.95748  1.0000
  C   C2524     1.0  0.45279  0.28275  0.90058  1.0000
  N   N166      1.0  0.44313  0.07552  0.81463  1.0000
  C   C2525     1.0  0.45073  0.08481  0.82440  1.0000
  H   H2971     1.0  0.45920  0.06770  0.80743  1.0000
  H   H2972     1.0  0.42760  0.16816  0.90684  1.0000
  H   H2973     1.0  0.41396  0.02441  0.83902  1.0000
  H   H2974     1.0  0.49230  0.10059  0.87059  1.0000
  H   H2975     1.0  0.54746  0.45780  0.96840  1.0000
  C   C2526     1.0  0.46243  0.02409  0.89526  1.0000
  H   H2976     1.0  0.49217  0.00372  0.78983  1.0000
  H   H2977     1.0  0.39651  0.42513  0.95941  1.0000
  H   H2978     1.0  0.42750  0.08622  0.81830  1.0000
  H   H2979     1.0  0.45228  0.09104  0.81701  1.0000
  S   S672      1.0  0.49255  0.98857  0.77071  1.0000
  C   C2527     1.0  0.40127  0.42295  0.95149  1.0000
  H   H2980     1.0  0.41832  0.41673  0.93586  1.0000
  C   C2528     1.0  0.45277  0.07507  0.80539  1.0000
  C   C2529     1.0  0.44420  0.36089  0.91772  1.0000
  C   C2530     1.0  0.50208  0.15244  0.97506  1.0000
  C   C2531     1.0  0.46708  0.01304  0.89433  1.0000
  S   S673      1.0  0.43047  0.06927  0.73919  1.0000
  C   C2532     1.0  0.40648  0.14309  0.94026  1.0000
  H   H2981     1.0  0.40443  0.43025  0.94621  1.0000
  H   H2982     1.0  0.56530  0.46730  0.94605  1.0000
  H   H2983     1.0  0.45071  0.07475  0.79776  1.0000
  H   H2984     1.0  0.43203  0.08510  0.80422  1.0000
  H   H2985     1.0  0.42685  0.14946  0.91805  1.0000
  H   H2986     1.0  0.48018  0.13369  0.87429  1.0000
  S   S674      1.0  0.40910  0.13761  0.90284  1.0000
  C   C2533     1.0  0.42494  0.11265  0.87911  1.0000
  C   C2534     1.0  0.39443  0.35003  0.91491  1.0000
  C   C2535     1.0  0.48705  0.00752  0.79682  1.0000
  C   C2536     1.0  0.42404  0.33172  0.92585  1.0000
  H   H2987     1.0  0.51989  0.05014  0.83231  1.0000
  H   H2988     1.0  0.43612  0.37630  0.90922  1.0000
  C   C2537     1.0  0.47229  0.28757  0.89992  1.0000
  H   H2989     1.0  0.47861  0.25609  0.89491  1.0000
  H   H2990     1.0  0.45634  0.08237  0.80321  1.0000
  H   H2991     1.0  0.43782  0.09310  0.80919  1.0000
  C   C2538     1.0  0.42569  0.24056  0.96477  1.0000
  C   C2539     1.0  0.49516  0.12860  0.90043  1.0000
  C   C2540     1.0  0.44494  0.11118  0.88422  1.0000
  H   H2992     1.0  0.42587  0.07674  0.91776  1.0000
  H   H2993     1.0  0.47985  0.28948  0.89975  1.0000
  H   H2994     1.0  0.41333  0.10006  0.96868  1.0000
  C   C2541     1.0  0.44352  0.00323  0.83087  1.0000
  H   H2995     1.0  0.42467  0.32052  0.91081  1.0000
  H   H2996     1.0  0.39873  0.25699  0.92047  1.0000
  H   H2997     1.0  0.48708  0.46513  0.93490  1.0000
  H   H2998     1.0  0.48116  0.11912  0.86535  1.0000
  C   C2542     1.0  0.50060  0.45672  0.91099  1.0000
  C   C2543     1.0  0.42948  0.41410  0.95232  1.0000
  H   H2999     1.0  0.38641  0.00531  0.74273  1.0000
  C   C2544     1.0  0.44973  0.26535  0.97840  1.0000
  H   H3000     1.0  0.44563  0.01472  0.89481  1.0000
  H   H3001     1.0  0.43711  0.35739  0.92027  1.0000
  S   S675      1.0  0.41203  0.04981  0.83470  1.0000
  C   C2545     1.0  0.47899  0.11811  0.97598  1.0000
  C   C2546     1.0  0.40241  0.37207  0.96961  1.0000
  C   C2547     1.0  0.51550  0.04417  0.83183  1.0000
  H   H3002     1.0  0.40955  0.05129  0.81172  1.0000
  C   C2548     1.0  0.46220  0.27413  0.90038  1.0000
  H   H3003     1.0  0.45868  0.25449  0.88985  1.0000
  H   H3004     1.0  0.48095  0.44199  0.92113  1.0000
  H   H3005     1.0  0.45971  0.32881  0.97476  1.0000
  C   C2549     1.0  0.42242  0.99290  0.81109  1.0000
  H   H3006     1.0  0.47092  0.17107  0.95672  1.0000
  C   C2550     1.0  0.45269  0.25944  0.90965  1.0000
  C   C2551     1.0  0.41391  0.24957  0.95205  1.0000
  C   C2552     1.0  0.58383  0.45454  0.97688  1.0000
  S   S676      1.0  0.49322  0.04609  0.75542  1.0000
  C   C2553     1.0  0.43683  0.41618  0.95701  1.0000
  H   H3007     1.0  0.43281  0.41149  0.94462  1.0000
  C   C2554     1.0  0.47169  0.25456  0.90193  1.0000
  C   C2555     1.0  0.47203  0.27690  0.89996  1.0000
  H   H3008     1.0  0.47395  0.25431  0.90963  1.0000
  Fe  Fe321     1.0  0.55069  0.45660  0.93909  1.0000
  H   H3009     1.0  0.41303  0.23076  0.87746  1.0000
  H   H3010     1.0  0.50053  0.18000  0.96462  1.0000
  H   H3011     1.0  0.49004  0.14535  0.87641  1.0000
  H   H3012     1.0  0.41986  0.10395  0.86438  1.0000
  H   H3013     1.0  0.45148  0.26852  0.88863  1.0000
  H   H3014     1.0  0.44158  0.00469  0.76860  1.0000
  Fe  Fe322     1.0  0.39673  0.18862  0.92703  1.0000
  H   H3015     1.0  0.47639  0.45243  0.93564  1.0000
  H   H3016     1.0  0.39769  0.11430  0.88576  1.0000
  C   C2556     1.0  0.43516  0.01244  0.83310  1.0000
  H   H3017     1.0  0.46129  0.18889  0.94883  1.0000
  C   C2557     1.0  0.47392  0.15170  0.96841  1.0000
  C   C2558     1.0  0.52360  0.42102  0.97450  1.0000
  H   H3018     1.0  0.49283  0.18405  0.98130  1.0000
  S   S677      1.0  0.53905  0.45078  0.95470  1.0000
  N   N167      1.0  0.46158  0.26291  0.90050  1.0000
  C   C2559     1.0  0.45927  0.26284  0.89000  1.0000
  H   H3019     1.0  0.47083  0.24613  0.90242  1.0000
  H   H3020     1.0  0.38845  0.25788  0.97245  1.0000
  H   H3021     1.0  0.47685  0.14264  0.90076  1.0000
  H   H3022     1.0  0.56782  0.48185  0.91439  1.0000
  C   C2560     1.0  0.39837  0.24595  0.88677  1.0000
  H   H3023     1.0  0.56595  0.47498  0.96734  1.0000
  H   H3024     1.0  0.46623  0.00133  0.87442  1.0000
  S   S678      1.0  0.39071  0.06791  0.84310  1.0000
  C   C2561     1.0  0.41384  0.04744  0.80490  1.0000
  H   H3025     1.0  0.49396  0.13527  0.90476  1.0000
  H   H3026     1.0  0.40608  0.16491  0.94404  1.0000
  S   S679      1.0  0.39145  0.19861  0.93991  1.0000
  H   H3027     1.0  0.47962  0.27095  0.89984  1.0000
  C   C2562     1.0  0.40225  0.21424  0.95399  1.0000
  H   H3028     1.0  0.39014  0.14062  0.92033  1.0000
  C   C2563     1.0  0.48593  0.30026  0.97740  1.0000
  H   H3029     1.0  0.52196  0.46972  0.91733  1.0000
  H   H3030     1.0  0.44533  0.41514  0.95294  1.0000
  H   H3031     1.0  0.46577  0.26540  0.88290  1.0000
  H   H3032     1.0  0.42557  0.23429  0.94066  1.0000
  H   H3033     1.0  0.41705  0.00488  0.76193  1.0000
  C   C2564     1.0  0.44364  0.10295  0.88011  1.0000
  C   C2565     1.0  0.47147  0.00140  0.83679  1.0000
  C   C2566     1.0  0.42576  0.03896  0.78653  1.0000
  C   C2567     1.0  0.51356  0.40893  0.97194  1.0000
  C   C2568     1.0  0.49778  0.03284  0.83520  1.0000
  C   C2569     1.0  0.50164  0.17132  0.96522  1.0000
  C   C2570     1.0  0.42468  0.33984  0.91591  1.0000
  C   C2571     1.0  0.42548  0.24391  0.90719  1.0000
  C   C2572     1.0  0.50876  0.34097  0.97198  1.0000
  H   H3034     1.0  0.49631  0.41736  0.96320  1.0000
  H   H3035     1.0  0.48737  0.02729  0.82874  1.0000
  H   H3036     1.0  0.39630  0.35807  0.91244  1.0000
  H   H3037     1.0  0.46423  0.28728  0.98310  1.0000
  H   H3038     1.0  0.43683  0.04572  0.75581  1.0000
  C   C2573     1.0  0.55298  0.45547  0.98314  1.0000
  H   H3039     1.0  0.47133  0.01307  0.87331  1.0000
  C   C2574     1.0  0.50383  0.16806  0.95529  1.0000
  C   C2575     1.0  0.48518  0.12573  0.87683  1.0000
  H   H3040     1.0  0.45333  0.26072  0.91754  1.0000
  C   C2576     1.0  0.57358  0.46576  0.94151  1.0000
  H   H3041     1.0  0.40585  0.27795  0.97365  1.0000
  S   S680      1.0  0.47843  0.03634  0.78546  1.0000
  H   H3042     1.0  0.45312  0.22958  0.98150  1.0000
  C   C2577     1.0  0.46250  0.37048  0.91178  1.0000
  C   C2578     1.0  0.47241  0.06692  0.92295  1.0000
  H   H3043     1.0  0.39443  0.30297  0.97955  1.0000
  H   H3044     1.0  0.49157  0.24149  0.94255  1.0000
  C   C2579     1.0  0.43989  0.32494  0.97934  1.0000
  Fe  Fe323     1.0  0.39904  0.06780  0.85617  1.0000
  C   C2580     1.0  0.50185  0.47600  0.92767  1.0000
  C   C2581     1.0  0.49313  0.02493  0.83399  1.0000
  H   H3045     1.0  0.42784  0.00784  0.86106  1.0000
  C   C2582     1.0  0.41587  0.03617  0.79218  1.0000
  C   C2583     1.0  0.43012  0.99886  0.80996  1.0000
  C   C2584     1.0  0.46988  0.05769  0.92172  1.0000
  C   C2585     1.0  0.53839  0.47027  0.97745  1.0000
  H   H3046     1.0  0.50227  0.47000  0.93565  1.0000
  H   H3047     1.0  0.44457  0.26394  0.90817  1.0000
  H   H3048     1.0  0.45268  0.25067  0.91082  1.0000
  C   C2586     1.0  0.40355  0.07406  0.78695  1.0000
  H   H3049     1.0  0.44901  0.14590  0.97544  1.0000
  C   C2587     1.0  0.41013  0.25620  0.89488  1.0000
  C   C2588     1.0  0.42862  0.31275  0.93683  1.0000
  S   S681      1.0  0.39657  0.20318  0.91287  1.0000
  H   H3050     1.0  0.47879  0.01071  0.79514  1.0000
  H   H3051     1.0  0.43908  0.05497  0.92200  1.0000
  H   H3052     1.0  0.44678  0.26872  0.97088  1.0000
  C   C2589     1.0  0.44023  0.05981  0.91338  1.0000
  C   C2590     1.0  0.41973  0.35085  0.91579  1.0000
  H   H3053     1.0  0.47257  0.09029  0.95801  1.0000
  H   H3054     1.0  0.41041  0.06839  0.87535  1.0000
  C   C2591     1.0  0.51868  0.03420  0.84960  1.0000
  C   C2592     1.0  0.42608  0.23248  0.94942  1.0000
  H   H3055     1.0  0.43755  0.01553  0.85198  1.0000
  C   C2593     1.0  0.45380  0.35483  0.92081  1.0000
  H   H3056     1.0  0.45255  0.11053  0.88626  1.0000
  H   H3057     1.0  0.44651  0.05478  0.90800  1.0000
  H   H3058     1.0  0.43259  0.06118  0.91060  1.0000
  H   H3059     1.0  0.47788  0.15750  0.96988  1.0000
  H   H3060     1.0  0.44524  0.31029  0.92082  1.0000
  C   C2594     1.0  0.50496  0.47896  0.90809  1.0000
  C   C2595     1.0  0.46037  0.05862  0.91843  1.0000
  H   H3061     1.0  0.42903  0.01493  0.78458  1.0000
  H   H3062     1.0  0.42887  0.02965  0.82561  1.0000
  H   H3063     1.0  0.41137  0.22250  0.90112  1.0000
  C   C2596     1.0  0.40853  0.00748  0.76523  1.0000
  S   S682      1.0  0.46360  0.05226  0.76818  1.0000
  H   H3064     1.0  0.45121  0.08639  0.91537  1.0000
  C   C2597     1.0  0.49434  0.44937  0.91168  1.0000
  S   S683      1.0  0.51400  0.44393  0.94874  1.0000
  H   H3065     1.0  0.42650  0.25442  0.98336  1.0000
  C   C2598     1.0  0.40495  0.10426  0.96913  1.0000
  H   H3066     1.0  0.44522  0.99126  0.73928  1.0000
  H   H3067     1.0  0.50709  0.15456  0.94748  1.0000
  H   H3068     1.0  0.43031  0.03577  0.77932  1.0000
  H   H3069     1.0  0.52377  0.41899  0.95889  1.0000
  H   H3070     1.0  0.52141  0.03811  0.82725  1.0000
  C   C2599     1.0  0.42075  0.23865  0.90234  1.0000
  H   H3071     1.0  0.49352  0.48117  0.92816  1.0000
  C   C2600     1.0  0.39365  0.16528  0.92143  1.0000
  H   H3072     1.0  0.50739  0.38920  0.97714  1.0000
  H   H3073     1.0  0.42345  0.22988  0.90339  1.0000
  H   H3074     1.0  0.40735  0.24560  0.95780  1.0000
  H   H3075     1.0  0.45033  0.09600  0.87893  1.0000
  Fe  Fe324     1.0  0.52735  0.45347  0.94396  1.0000
  H   H3076     1.0  0.48170  0.02953  0.90447  1.0000
  C   C2601     1.0  0.41495  0.26137  0.89971  1.0000
  C   C2602     1.0  0.49320  0.07704  0.74089  1.0000
  N   N168      1.0  0.51005  0.40397  0.96492  1.0000
  H   H3077     1.0  0.44622  0.08448  0.89963  1.0000
  H   H3078     1.0  0.52461  0.40322  0.95208  1.0000
  N   N169      1.0  0.40797  0.23888  0.89100  1.0000
  H   H3079     1.0  0.40962  0.37508  0.96924  1.0000
  H   H3080     1.0  0.42628  0.11068  0.97237  1.0000
  H   H3081     1.0  0.43349  0.07358  0.92817  1.0000
  C   C2603     1.0  0.43377  0.07678  0.91922  1.0000
  N   N170      1.0  0.44306  0.07034  0.91250  1.0000
  C   C2604     1.0  0.49734  0.11298  0.88790  1.0000
  S   S684      1.0  0.41400  0.02466  0.76870  1.0000
  N   N171      1.0  0.51031  0.03859  0.84290  1.0000
  H   H3082     1.0  0.42682  0.99491  0.84493  1.0000
  H   H3083     1.0  0.43682  0.07781  0.89783  1.0000
  H   H3084     1.0  0.47761  0.99963  0.88004  1.0000
  H   H3085     1.0  0.47836  0.23315  0.95716  1.0000
  C   C2605     1.0  0.44558  0.04335  0.75600  1.0000
  Fe  Fe325     1.0  0.48037  0.04973  0.77033  1.0000
  C   C2606     1.0  0.44433  0.07634  0.90085  1.0000
  C   C2607     1.0  0.45609  0.07820  0.91730  1.0000
  H   H3086     1.0  0.45105  0.07166  0.89547  1.0000
  C   C2608     1.0  0.48745  0.04790  0.74416  1.0000
  C   C2609     1.0  0.49382  0.25792  0.96416  1.0000
  N   N172      1.0  0.50522  0.47036  0.91837  1.0000
  H   H3087     1.0  0.47398  0.12991  0.90073  1.0000
  H   H3088     1.0  0.41302  0.03096  0.78895  1.0000
  C   C2610     1.0  0.40165  0.13280  0.95861  1.0000
  H   H3089     1.0  0.49889  0.98919  0.81658  1.0000
  H   H3090     1.0  0.43411  0.08554  0.91726  1.0000
  C   C2611     1.0  0.45312  0.06896  0.91617  1.0000
  H   H3091     1.0  0.46749  0.08433  0.92168  1.0000
  C   C2612     1.0  0.41626  0.23508  0.88169  1.0000
  N   N173      1.0  0.39912  0.03721  0.80733  1.0000
  H   H3092     1.0  0.42341  0.22920  0.88447  1.0000
  C   C2613     1.0  0.48307  0.45379  0.92868  1.0000
  C   C2614     1.0  0.46547  0.07713  0.92084  1.0000
  H   H3093     1.0  0.45749  0.99654  0.81954  1.0000
  H   H3094     1.0  0.47983  0.06623  0.92538  1.0000
  C   C2615     1.0  0.49454  0.24398  0.94850  1.0000
  H   H3095     1.0  0.40053  0.25281  0.87983  1.0000
  H   H3096     1.0  0.49717  0.25180  0.94414  1.0000
  H   H3097     1.0  0.39704  0.00986  0.87820  1.0000
  H   H3098     1.0  0.47539  0.04978  0.92324  1.0000
  H   H3099     1.0  0.43092  0.32778  0.98097  1.0000
  C   C2616     1.0  0.39214  0.25477  0.91882  1.0000
  H   H3100     1.0  0.40434  0.99401  0.76214  1.0000
  H   H3101     1.0  0.40742  0.07435  0.77839  1.0000
  H   H3102     1.0  0.51989  0.45786  0.98035  1.0000
  C   C2617     1.0  0.44264  0.02262  0.81477  1.0000
  C   C2618     1.0  0.43153  0.11362  0.97575  1.0000
  H   H3103     1.0  0.50524  0.00256  0.85065  1.0000
  N   N174      1.0  0.48613  0.24511  0.95869  1.0000
  C   C2619     1.0  0.46338  0.03346  0.74860  1.0000
  C   C2620     1.0  0.48219  0.23476  0.96301  1.0000
  C   C2621     1.0  0.40961  0.04027  0.80157  1.0000
  H   H3104     1.0  0.41493  0.31736  0.92320  1.0000
  N   N175      1.0  0.46236  0.00698  0.88943  1.0000
  H   H3105     1.0  0.47240  0.25176  0.95102  1.0000
  H   H3106     1.0  0.41252  0.27019  0.89879  1.0000
  C   C2622     1.0  0.47681  0.25403  0.95592  1.0000
  C   C2623     1.0  0.49071  0.24775  0.96658  1.0000
  H   H3107     1.0  0.42700  0.30719  0.91965  1.0000
  N   N176      1.0  0.48690  0.99952  0.80754  1.0000
  C   C2624     1.0  0.44508  0.16864  0.97045  1.0000
  H   H3108     1.0  0.47934  0.26169  0.95084  1.0000
  C   C2625     1.0  0.41615  0.27865  0.98354  1.0000
  H   H3109     1.0  0.49532  0.05092  0.84348  1.0000
  H   H3110     1.0  0.40829  0.34881  0.94293  1.0000
  H   H3111     1.0  0.49533  0.04118  0.83081  1.0000
  H   H3112     1.0  0.40345  0.02108  0.80369  1.0000
  C   C2626     1.0  0.42961  0.04611  0.78990  1.0000
  H   H3113     1.0  0.39888  0.03803  0.88650  1.0000
  H   H3114     1.0  0.39628  0.19688  0.98352  1.0000
  N   N177      1.0  0.42924  0.32009  0.92570  1.0000
  H   H3115     1.0  0.46414  0.02803  0.75672  1.0000
  H   H3116     1.0  0.49306  0.26383  0.95653  1.0000
  H   H3117     1.0  0.49792  0.04300  0.85657  1.0000
  H   H3118     1.0  0.47090  0.25600  0.96349  1.0000
  Fe  Fe326     1.0  0.53334  0.47498  0.93033  1.0000
  H   H3119     1.0  0.57747  0.47895  0.94560  1.0000
  H   H3120     1.0  0.50281  0.09669  0.88477  1.0000
  C   C2627     1.0  0.41390  0.35407  0.92551  1.0000
  C   C2628     1.0  0.46761  0.02988  0.89901  1.0000
  C   C2629     1.0  0.45080  0.01342  0.81295  1.0000
  H   H3121     1.0  0.49365  0.14819  0.88745  1.0000
  C   C2630     1.0  0.44367  0.37157  0.91149  1.0000
  H   H3122     1.0  0.50538  0.14076  0.96490  1.0000
  C   C2631     1.0  0.39613  0.08116  0.87784  1.0000
  S   S685      1.0  0.40331  0.04930  0.86123  1.0000
  C   C2632     1.0  0.48935  0.46108  0.92814  1.0000
  C   C2633     1.0  0.42369  0.05029  0.79910  1.0000
  H   H3123     1.0  0.50992  0.38789  0.96339  1.0000
  H   H3124     1.0  0.42014  0.35690  0.90808  1.0000
  N   N178      1.0  0.45198  0.03709  0.74746  1.0000
  H   H3125     1.0  0.50202  0.34776  0.95757  1.0000
  H   H3126     1.0  0.43228  0.25660  0.94737  1.0000
  H   H3127     1.0  0.42654  0.05611  0.80154  1.0000
  H   H3128     1.0  0.40016  0.37499  0.96147  1.0000
  H   H3129     1.0  0.41377  0.02117  0.85336  1.0000
  C   C2634     1.0  0.43333  0.00894  0.85276  1.0000
  C   C2635     1.0  0.42138  0.00302  0.84554  1.0000
  H   H3130     1.0  0.44828  0.05105  0.75482  1.0000
  H   H3131     1.0  0.50736  0.45746  0.90403  1.0000
  C   C2636     1.0  0.44755  0.02738  0.74888  1.0000
  S   S686      1.0  0.39054  0.07952  0.86765  1.0000
  H   H3132     1.0  0.45421  0.34650  0.92563  1.0000
  H   H3133     1.0  0.48795  0.37296  0.89754  1.0000
  C   C2637     1.0  0.42708  0.22989  0.97172  1.0000
  H   H3134     1.0  0.41641  0.00508  0.83931  1.0000
  C   C2638     1.0  0.47686  0.21075  0.98267  1.0000
  H   H3135     1.0  0.43412  0.22691  0.95008  1.0000
  N   N179      1.0  0.48962  0.13240  0.89111  1.0000
  H   H3136     1.0  0.46620  0.99617  0.76035  1.0000
  Fe  Fe327     1.0  0.39504  0.05874  0.74605  1.0000
  H   H3137     1.0  0.52225  0.04079  0.85014  1.0000
  C   C2639     1.0  0.43968  0.17899  0.96563  1.0000
  H   H3138     1.0  0.40858  0.40851  0.93886  1.0000
  H   H3139     1.0  0.51518  0.03047  0.85826  1.0000
  H   H3140     1.0  0.50130  0.14611  0.98250  1.0000
  H   H3141     1.0  0.52544  0.02796  0.84608  1.0000
  C   C2640     1.0  0.48052  0.36956  0.90036  1.0000
  H   H3142     1.0  0.47740  0.39060  0.90192  1.0000
  H   H3143     1.0  0.47733  0.37044  0.89300  1.0000
  Fe  Fe328     1.0  0.39569  0.06437  0.76714  1.0000
  N   N180      1.0  0.42737  0.01168  0.84387  1.0000
  C   C2641     1.0  0.41921  0.02198  0.84505  1.0000
  H   H3144     1.0  0.41581  0.00187  0.85381  1.0000
  H   H3145     1.0  0.52086  0.38837  0.96891  1.0000
  S   S687      1.0  0.54540  0.47436  0.93967  1.0000
  H   H3146     1.0  0.39581  0.23791  0.92776  1.0000
  H   H3147     1.0  0.47595  0.23513  0.97076  1.0000
  S   S688      1.0  0.53959  0.45757  0.92825  1.0000
  H   H3148     1.0  0.44204  0.32277  0.91118  1.0000
  C   C2642     1.0  0.41394  0.10438  0.87235  1.0000
  C   C2643     1.0  0.42663  0.12097  0.88314  1.0000
  Fe  Fe329     1.0  0.40574  0.09761  0.91511  1.0000
  C   C2644     1.0  0.47010  0.38715  0.90367  1.0000
  H   H3149     1.0  0.46763  0.38907  0.89572  1.0000
  H   H3150     1.0  0.48402  0.37720  0.91612  1.0000
  H   H3151     1.0  0.48307  0.36062  0.90378  1.0000
  C   C2645     1.0  0.50179  0.04687  0.84816  1.0000
  H   H3152     1.0  0.41269  0.25779  0.95376  1.0000
  S   S689      1.0  0.48634  0.98892  0.86037  1.0000
  H   H3153     1.0  0.42315  0.02877  0.84416  1.0000
  H   H3154     1.0  0.49048  0.23236  0.97921  1.0000
  C   C2646     1.0  0.50539  0.03006  0.84193  1.0000
  H   H3155     1.0  0.41719  0.07691  0.79096  1.0000
  C   C2647     1.0  0.39157  0.04133  0.79978  1.0000
  C   C2648     1.0  0.50531  0.15706  0.95521  1.0000
  Fe  Fe330     1.0  0.41531  0.06335  0.74841  1.0000
  H   H3156     1.0  0.41273  0.25104  0.94355  1.0000
  N   N181      1.0  0.47225  0.37517  0.90855  1.0000
  C   C2649     1.0  0.47684  0.37351  0.91824  1.0000
  H   H3157     1.0  0.46367  0.39178  0.90938  1.0000
  H   H3158     1.0  0.47074  0.37727  0.92478  1.0000
  H   H3159     1.0  0.47979  0.36473  0.92187  1.0000
  H   H3160     1.0  0.43092  0.18142  0.96798  1.0000
  H   H3161     1.0  0.39107  0.31203  0.94094  1.0000
  C   C2650     1.0  0.41276  0.24460  0.89621  1.0000
  C   C2651     1.0  0.41158  0.12391  0.86863  1.0000
  H   H3162     1.0  0.44421  0.99552  0.83681  1.0000
  H   H3163     1.0  0.44125  0.19435  0.95426  1.0000
  C   C2652     1.0  0.39997  0.10480  0.96071  1.0000
  H   H3164     1.0  0.39564  0.12972  0.95642  1.0000
  C   C2653     1.0  0.45759  0.14563  0.97102  1.0000
  Fe  Fe331     1.0  0.53314  0.46873  0.95449  1.0000
  H   H3165     1.0  0.44637  0.03871  0.76442  1.0000
  C   C2654     1.0  0.45034  0.25430  0.98337  1.0000
  H   H3166     1.0  0.47012  0.35432  0.92032  1.0000
  H   H3167     1.0  0.41552  0.00494  0.78625  1.0000
  C   C2655     1.0  0.49833  0.46278  0.91922  1.0000
  C   C2656     1.0  0.40471  0.01722  0.76897  1.0000
  C   C2657     1.0  0.42252  0.25526  0.90594  1.0000
  C   C2658     1.0  0.45120  0.00373  0.82096  1.0000
  C   C2659     1.0  0.42707  0.00886  0.79206  1.0000
  H   H3168     1.0  0.45147  0.38479  0.90406  1.0000
  H   H3169     1.0  0.47345  0.14118  0.88905  1.0000
  H   H3170     1.0  0.43847  0.01142  0.79951  1.0000
  C   C2660     1.0  0.40075  0.02508  0.81081  1.0000
  H   H3171     1.0  0.48136  0.99993  0.89672  1.0000
  N   N182      1.0  0.46201  0.15417  0.97277  1.0000
  C   C2661     1.0  0.49236  0.24040  0.97669  1.0000
  C   C2662     1.0  0.46221  0.17282  0.95950  1.0000
  H   H3172     1.0  0.46910  0.99066  0.89800  1.0000
  C   C2663     1.0  0.44408  0.02532  0.74036  1.0000
  C   C2664     1.0  0.39295  0.07249  0.79089  1.0000
  H   H3173     1.0  0.48827  0.07727  0.75813  1.0000
  C   C2665     1.0  0.40905  0.07557  0.79406  1.0000
  H   H3174     1.0  0.42518  0.32793  0.96200  1.0000
  H   H3175     1.0  0.39147  0.35867  0.96662  1.0000
  C   C2666     1.0  0.58054  0.47224  0.94141  1.0000
  H   H3176     1.0  0.52887  0.42680  0.97098  1.0000
  H   H3177     1.0  0.51487  0.99930  0.88941  1.0000
  H   H3178     1.0  0.40996  0.36259  0.92533  1.0000
  H   H3179     1.0  0.50980  0.48501  0.90741  1.0000
  H   H3180     1.0  0.50386  0.99250  0.80211  1.0000
  C   C2667     1.0  0.39385  0.04174  0.81731  1.0000
  C   C2668     1.0  0.49828  0.40825  0.96562  1.0000
  H   H3181     1.0  0.40934  0.12663  0.95718  1.0000
  C   C2669     1.0  0.49240  0.35495  0.97116  1.0000
  C   C2670     1.0  0.38834  0.11463  0.97844  1.0000
  C   C2671     1.0  0.49143  0.12442  0.98211  1.0000
  H   H3182     1.0  0.44319  0.32816  0.97048  1.0000
  H   H3183     1.0  0.41528  0.35806  0.98330  1.0000
  S   S690      1.0  0.39833  0.07344  0.74937  1.0000
  C   C2672     1.0  0.51655  0.46420  0.91812  1.0000
  H   H3184     1.0  0.49227  0.00791  0.83852  1.0000
  H   H3185     1.0  0.57417  0.45082  0.96801  1.0000
  C   C2673     1.0  0.39922  0.10930  0.97792  1.0000
  S   S691      1.0  0.39559  0.98937  0.87508  1.0000
  H   H3186     1.0  0.51554  0.33544  0.96800  1.0000
  C   C2674     1.0  0.46971  0.00517  0.87885  1.0000
  C   C2675     1.0  0.40589  0.07444  0.88015  1.0000
  C   C2676     1.0  0.50098  0.16352  0.97543  1.0000
  H   H3187     1.0  0.43291  0.09343  0.96951  1.0000
  C   C2677     1.0  0.46120  0.99616  0.89683  1.0000
  C   C2678     1.0  0.46391  0.35725  0.98271  1.0000
  H   H3188     1.0  0.45495  0.38475  0.97669  1.0000
  H   H3189     1.0  0.45491  0.02857  0.89290  1.0000
  C   C2679     1.0  0.39362  0.02072  0.77309  1.0000
  H   H3190     1.0  0.46852  0.02890  0.74220  1.0000
  H   H3191     1.0  0.39167  0.01359  0.74773  1.0000
  H   H3192     1.0  0.47780  0.14339  0.97247  1.0000
  C   C2680     1.0  0.39312  0.02218  0.86397  1.0000
  H   H3193     1.0  0.50133  0.07285  0.74174  1.0000
  H   H3194     1.0  0.40580  0.10517  0.87088  1.0000
  C   C2681     1.0  0.39431  0.09015  0.89269  1.0000
  C   C2682     1.0  0.38787  0.01369  0.74106  1.0000
  H   H3195     1.0  0.50026  0.26854  0.96956  1.0000
  H   H3196     1.0  0.49049  0.01453  0.79648  1.0000
  C   C2683     1.0  0.39056  0.24395  0.92284  1.0000
  S   S692      1.0  0.39020  0.39733  0.93804  1.0000
  C   C2684     1.0  0.43881  0.00879  0.75226  1.0000
  H   H3197     1.0  0.44798  0.24909  0.97966  1.0000
  C   C2685     1.0  0.47195  0.08810  0.73997  1.0000
  H   H3198     1.0  0.43539  0.00175  0.75363  1.0000
  H   H3199     1.0  0.38906  0.99827  0.85426  1.0000
  C   C2686     1.0  0.49110  0.35508  0.98219  1.0000
  S   S693      1.0  0.39066  0.05066  0.76388  1.0000
  H   H3200     1.0  0.38705  0.36145  0.98013  1.0000
  H   H3201     1.0  0.55883  0.44796  0.98197  1.0000
  Fe  Fe332     1.0  0.39645  0.04958  0.84716  1.0000
  C   C2687     1.0  0.44549  0.18627  0.95787  1.0000
  H   H3202     1.0  0.43225  0.37250  0.98165  1.0000
  C   C2688     1.0  0.38859  0.01561  0.85053  1.0000
  C   C2689     1.0  0.51372  0.45311  0.98392  1.0000
  H   H3203     1.0  0.39409  0.02884  0.86677  1.0000
  C   C2690     1.0  0.50956  0.40667  0.98351  1.0000
  H   H3204     1.0  0.44023  0.16335  0.97657  1.0000
  H   H3205     1.0  0.39895  0.13277  0.96754  1.0000
  C   C2691     1.0  0.45645  0.32534  0.98357  1.0000
  C   C2692     1.0  0.38840  0.29900  0.96781  1.0000
  C   C2693     1.0  0.39039  0.00487  0.85690  1.0000
  C   C2694     1.0  0.39371  0.14769  0.91823  1.0000
  H   H3206     1.0  0.39173  0.05087  0.81527  1.0000
  H   H3207     1.0  0.38975  0.07310  0.81775  1.0000
  H   H3208     1.0  0.43544  0.11957  0.96898  1.0000
  C   C2695     1.0  0.50256  0.44286  0.98080  1.0000
  C   C2696     1.0  0.39311  0.03837  0.89459  1.0000
  H   H3209     1.0  0.41142  0.16474  0.97844  1.0000
  C   C2697     1.0  0.40449  0.17155  0.97833  1.0000
  C   C2698     1.0  0.39000  0.02427  0.85401  1.0000
  H   H3210     1.0  0.39063  0.02816  0.77616  1.0000
  C   C2699     1.0  0.39147  0.15094  0.95349  1.0000
  H   H3211     1.0  0.39113  0.03016  0.89810  1.0000
  H   H3212     1.0  0.39298  0.05850  0.88228  1.0000
  C   C2700     1.0  0.39038  0.08904  0.88412  1.0000
  S   S694      1.0  0.39299  0.11310  0.91734  1.0000
  C   C2701     1.0  0.39026  0.00463  0.76975  1.0000
  H   H3213     1.0  0.56618  0.48105  0.98341  1.0000
  C   C2702     1.0  0.39559  0.18977  0.98130  1.0000
  C   C2703     1.0  0.40461  0.18102  0.98123  1.0000
  C   C2704     1.0  0.49659  0.24326  0.98398  1.0000
  H   H3214     1.0  0.39101  0.15921  0.94806  1.0000
  H   H3215     1.0  0.46362  0.09229  0.73971  1.0000
  C   C2705     1.0  0.38639  0.01440  0.77350  1.0000
  S   S695      1.0  0.38749  0.27590  0.90624  1.0000
  H   H3216     1.0  0.41172  0.18158  0.98346  1.0000
  C   C2706     1.0  0.43462  0.36366  0.98271  1.0000
  C   C2707     1.0  0.50764  0.34116  0.98296  1.0000
  H   H3217     1.0  0.42605  0.11825  0.98196  1.0000
  H   H3218     1.0  0.38838  0.15196  0.96212  1.0000
  H   H3219     1.0  0.39073  0.05878  0.89639  1.0000
  C   C2708     1.0  0.38909  0.11008  0.96119  1.0000
  C   C2709     1.0  0.38798  0.07226  0.80200  1.0000
  H   H3220     1.0  0.45713  0.98862  0.75147  1.0000
  H   H3221     1.0  0.46230  0.10117  0.97143  1.0000
  H   H3222     1.0  0.38975  0.09615  0.89756  1.0000
  H   H3223     1.0  0.44339  0.04787  0.73534  1.0000
  H   H3224     1.0  0.43683  0.01497  0.73560  1.0000
  H   H3225     1.0  0.44200  0.60858  0.04262  1.0000
  Fe  Fe333     1.0  0.48477  0.97389  0.09845  1.0000
  S   S696      1.0  0.48475  0.95880  0.11214  1.0000
  C   C2710     1.0  0.41560  0.84023  0.06193  1.0000
  Fe  Fe334     1.0  0.46141  0.97679  0.09822  1.0000
  S   S697      1.0  0.45912  0.96222  0.11192  1.0000
  S   S698      1.0  0.39599  0.90258  0.04110  1.0000
  Fe  Fe335     1.0  0.46868  0.96823  0.11993  1.0000
  S   S699      1.0  0.46205  0.97238  0.13666  1.0000
  Fe  Fe336     1.0  0.47517  0.95401  0.10284  1.0000
  S   S700      1.0  0.47698  0.93662  0.10107  1.0000
  H   H3226     1.0  0.49461  0.98266  0.14288  1.0000
  S   S701      1.0  0.47676  0.96836  0.08848  1.0000
  H   H3227     1.0  0.42577  0.64373  0.98643  1.0000
  S   S702      1.0  0.40161  0.97597  0.09126  1.0000
  C   C2711     1.0  0.43335  0.68409  0.99940  1.0000
  S   S703      1.0  0.39772  0.96662  0.07168  1.0000
  Fe  Fe337     1.0  0.40961  0.96235  0.08241  1.0000
  S   S704      1.0  0.42751  0.95763  0.07592  1.0000
  H   H3228     1.0  0.43686  0.98444  0.11370  1.0000
  S   S705      1.0  0.40150  0.95010  0.09558  1.0000
  Fe  Fe338     1.0  0.48207  0.95581  0.19052  1.0000
  H   H3229     1.0  0.56979  0.53689  0.98994  1.0000
  S   S706      1.0  0.48742  0.94985  0.17474  1.0000
  Fe  Fe339     1.0  0.47538  0.94978  0.21555  1.0000
  S   S707      1.0  0.47546  0.96628  0.21747  1.0000
  H   H3230     1.0  0.44880  0.92534  0.17923  1.0000
  C   C2712     1.0  0.39216  0.67787  0.98780  1.0000
  H   H3231     1.0  0.42531  0.68356  0.99945  1.0000
  Fe  Fe340     1.0  0.49072  0.96480  0.20456  1.0000
  H   H3232     1.0  0.50392  0.97693  0.17334  1.0000
  S   S708      1.0  0.46591  0.95607  0.20229  1.0000
  S   S709      1.0  0.49147  0.94769  0.20373  1.0000
  S   S710      1.0  0.39415  0.63576  0.03085  1.0000
  H   H3233     1.0  0.45424  0.97419  0.18898  1.0000
  C   C2713     1.0  0.51619  0.96965  0.22796  1.0000
  S   S711      1.0  0.43212  0.96576  0.16847  1.0000
  H   H3234     1.0  0.45953  0.76239  0.01550  1.0000
  Fe  Fe341     1.0  0.42015  0.96485  0.15966  1.0000
  S   S712      1.0  0.42601  0.95903  0.14382  1.0000
  H   H3235     1.0  0.54480  0.48816  0.04014  1.0000
  Fe  Fe342     1.0  0.49279  0.63687  0.99991  1.0000
  S   S713      1.0  0.48186  0.62754  0.01329  1.0000
  Fe  Fe343     1.0  0.46733  0.97251  0.20329  1.0000
  Fe  Fe344     1.0  0.49754  0.64744  0.01539  1.0000
  S   S714      1.0  0.48711  0.63881  0.03035  1.0000
  S   S715      1.0  0.50680  0.66015  0.01351  1.0000
  Fe  Fe345     1.0  0.49456  0.62392  0.02293  1.0000
  S   S716      1.0  0.49783  0.60594  0.03125  1.0000
  Fe  Fe346     1.0  0.47533  0.64309  0.01944  1.0000
  S   S717      1.0  0.45774  0.65065  0.02541  1.0000
  S   S718      1.0  0.50607  0.63218  0.00896  1.0000
  S   S719      1.0  0.48517  0.65279  0.00508  1.0000
  Fe  Fe347     1.0  0.44090  0.81478  0.04689  1.0000
  S   S720      1.0  0.45706  0.81511  0.04893  1.0000
  S   S721      1.0  0.43053  0.80624  0.06166  1.0000
  Fe  Fe348     1.0  0.44532  0.82620  0.02268  1.0000
  S   S722      1.0  0.46182  0.82758  0.02296  1.0000
  S   S723      1.0  0.44054  0.83163  0.00637  1.0000
  Fe  Fe349     1.0  0.46317  0.81007  0.03267  1.0000
  S   S724      1.0  0.47702  0.79587  0.02871  1.0000
  Fe  Fe350     1.0  0.45381  0.83246  0.03908  1.0000
  S   S725      1.0  0.45237  0.84817  0.04416  1.0000
  S   S726      1.0  0.44707  0.80862  0.03143  1.0000
  S   S727      1.0  0.43708  0.83233  0.03806  1.0000
  Fe  Fe351     1.0  0.48012  0.71336  0.03094  1.0000
  S   S728      1.0  0.47517  0.71291  0.01608  1.0000
  S   S729      1.0  0.48730  0.69718  0.04082  1.0000
  Fe  Fe352     1.0  0.46884  0.73725  0.03031  1.0000
  S   S730      1.0  0.46271  0.73889  0.01546  1.0000
  S   S731      1.0  0.46199  0.75114  0.03921  1.0000
  Fe  Fe353     1.0  0.45910  0.72230  0.02327  1.0000
  S   S732      1.0  0.44506  0.71631  0.02256  1.0000
  Fe  Fe354     1.0  0.47916  0.72941  0.00913  1.0000
  H   H3236     1.0  0.43502  0.75122  0.03338  1.0000
  S   S733      1.0  0.46353  0.72143  0.03888  1.0000
  S   S734      1.0  0.48595  0.72917  0.02334  1.0000
  Fe  Fe355     1.0  0.47416  0.91326  0.05010  1.0000
  S   S735      1.0  0.46033  0.91960  0.04143  1.0000
  S   S736      1.0  0.47742  0.92693  0.05577  1.0000
  Fe  Fe356     1.0  0.47874  0.89052  0.04506  1.0000
  S   S737      1.0  0.46538  0.89541  0.03614  1.0000
  S   S738      1.0  0.48714  0.87282  0.04518  1.0000
  Fe  Fe357     1.0  0.47115  0.91087  0.02837  1.0000
  S   S739      1.0  0.47063  0.91783  0.01053  1.0000
  Fe  Fe358     1.0  0.45590  0.90352  0.04997  1.0000
  S   S740      1.0  0.43884  0.90154  0.05663  1.0000
  S   S741      1.0  0.48547  0.90561  0.03617  1.0000
  S   S742      1.0  0.46880  0.89757  0.05969  1.0000
  Fe  Fe359     1.0  0.40356  0.90258  0.02332  1.0000
  S   S743      1.0  0.42151  0.90028  0.01681  1.0000
  Fe  Fe360     1.0  0.55741  0.55302  0.00582  1.0000
  S   S744      1.0  0.54411  0.55360  0.02098  1.0000
  H   H3237     1.0  0.44827  0.93798  0.16900  1.0000
  Fe  Fe361     1.0  0.57534  0.54870  0.01812  1.0000
  S   S745      1.0  0.56344  0.54928  0.03418  1.0000
  S   S746      1.0  0.39569  0.73242  0.00429  1.0000
  Fe  Fe362     1.0  0.55550  0.53903  0.02885  1.0000
  Fe  Fe363     1.0  0.55331  0.56379  0.02466  1.0000
  S   S747      1.0  0.54688  0.58055  0.02869  1.0000
  S   S748      1.0  0.56795  0.53769  0.01328  1.0000
  S   S749      1.0  0.56602  0.56401  0.00894  1.0000
  H   H3238     1.0  0.45308  0.72102  0.99174  1.0000
  N   N183      1.0  0.50513  0.94187  0.06082  1.0000
  H   H3239     1.0  0.41911  0.92928  0.01628  1.0000
  C   C2714     1.0  0.44890  0.98206  0.18704  1.0000
  H   H3240     1.0  0.51407  0.97236  0.16207  1.0000
  C   C2715     1.0  0.42843  0.74570  0.00883  1.0000
  H   H3241     1.0  0.49052  0.98200  0.11405  1.0000
  H   H3242     1.0  0.42555  0.87334  0.00552  1.0000
  H   H3243     1.0  0.55313  0.49970  0.04620  1.0000
  C   C2716     1.0  0.39835  0.96415  0.12704  1.0000
  H   H3244     1.0  0.43863  0.66643  0.00313  1.0000
  C   C2717     1.0  0.58332  0.51994  0.03762  1.0000
  S   S750      1.0  0.40088  0.81612  0.99577  1.0000
  H   H3245     1.0  0.44160  0.92695  0.19850  1.0000
  H   H3246     1.0  0.50833  0.97537  0.14369  1.0000
  C   C2718     1.0  0.44042  0.76507  0.06722  1.0000
  C   C2719     1.0  0.43447  0.90064  0.04550  1.0000
  C   C2720     1.0  0.43904  0.90564  0.03481  1.0000
  C   C2721     1.0  0.43539  0.90511  0.02588  1.0000
  C   C2722     1.0  0.42706  0.89973  0.02769  1.0000
  C   C2723     1.0  0.42278  0.89440  0.03832  1.0000
  C   C2724     1.0  0.42637  0.89496  0.04726  1.0000
  H   H3247     1.0  0.44520  0.91019  0.03341  1.0000
  H   H3248     1.0  0.43878  0.90919  0.01764  1.0000
  H   H3249     1.0  0.41671  0.88979  0.03963  1.0000
  H   H3250     1.0  0.42294  0.89097  0.05552  1.0000
  C   C2725     1.0  0.44066  0.94718  0.22355  1.0000
  H   H3251     1.0  0.54772  0.51677  0.98525  1.0000
  H   H3252     1.0  0.43786  0.71663  0.98888  1.0000
  C   C2726     1.0  0.47638  0.90833  0.00201  1.0000
  C   C2727     1.0  0.48320  0.89830  0.00549  1.0000
  S   S751      1.0  0.50514  0.96992  0.20540  1.0000
  H   H3253     1.0  0.43499  0.97991  0.14291  1.0000
  C   C2728     1.0  0.43607  0.69440  0.99744  1.0000
  H   H3254     1.0  0.48493  0.89623  0.01358  1.0000
  H   H3255     1.0  0.45667  0.79551  0.99691  1.0000
  C   C2729     1.0  0.44337  0.98421  0.17865  1.0000
  C   C2730     1.0  0.39662  0.79608  0.99795  1.0000
  H   H3256     1.0  0.43426  0.88760  0.99969  1.0000
  C   C2731     1.0  0.44180  0.93418  0.09718  1.0000
  H   H3257     1.0  0.47293  0.76165  0.07970  1.0000
  C   C2732     1.0  0.43267  0.98402  0.08259  1.0000
  H   H3258     1.0  0.41015  0.74725  0.98880  1.0000
  H   H3259     1.0  0.46109  0.69514  0.01875  1.0000
  H   H3260     1.0  0.49854  0.95721  0.05060  1.0000
  H   H3261     1.0  0.48875  0.95090  0.06115  1.0000
  C   C2733     1.0  0.43930  0.98385  0.12139  1.0000
  C   C2734     1.0  0.50338  0.94580  0.08946  1.0000
  H   H3262     1.0  0.40134  0.93905  0.02235  1.0000
  H   H3263     1.0  0.41942  0.70187  0.01280  1.0000
  H   H3264     1.0  0.52617  0.60465  0.00603  1.0000
  H   H3265     1.0  0.50703  0.60991  0.00709  1.0000
  C   C2735     1.0  0.46254  0.85389  0.04529  1.0000
  C   C2736     1.0  0.47359  0.84986  0.04143  1.0000
  C   C2737     1.0  0.48122  0.85550  0.04166  1.0000
  C   C2738     1.0  0.47780  0.86513  0.04574  1.0000
  C   C2739     1.0  0.46678  0.86887  0.04989  1.0000
  C   C2740     1.0  0.45920  0.86333  0.04961  1.0000
  H   H3266     1.0  0.47624  0.84258  0.03808  1.0000
  H   H3267     1.0  0.48976  0.85252  0.03850  1.0000
  H   H3268     1.0  0.46407  0.87606  0.05339  1.0000
  H   H3269     1.0  0.45069  0.86646  0.05268  1.0000
  C   C2741     1.0  0.47270  0.78367  0.03049  1.0000
  C   C2742     1.0  0.47964  0.77484  0.02606  1.0000
  C   C2743     1.0  0.47642  0.76481  0.02831  1.0000
  C   C2744     1.0  0.46624  0.76365  0.03501  1.0000
  C   C2745     1.0  0.45931  0.77255  0.03917  1.0000
  C   C2746     1.0  0.46253  0.78243  0.03702  1.0000
  H   H3270     1.0  0.48758  0.77568  0.02109  1.0000
  H   H3271     1.0  0.48187  0.75793  0.02513  1.0000
  H   H3272     1.0  0.45148  0.77174  0.04439  1.0000
  H   H3273     1.0  0.45730  0.78884  0.04098  1.0000
  C   C2747     1.0  0.45179  0.82548  0.99745  1.0000
  C   C2748     1.0  0.40577  0.95987  0.22482  1.0000
  S   S752      1.0  0.39088  0.82515  0.02438  1.0000
  H   H3274     1.0  0.39274  0.67744  0.99628  1.0000
  C   C2749     1.0  0.46661  0.93095  0.19697  1.0000
  C   C2750     1.0  0.45977  0.81727  0.00190  1.0000
  H   H3275     1.0  0.41382  0.83993  0.02235  1.0000
  C   C2751     1.0  0.42183  0.77208  0.04637  1.0000
  C   C2752     1.0  0.42510  0.77322  0.98649  1.0000
  H   H3276     1.0  0.45885  0.81441  0.01062  1.0000
  C   C2753     1.0  0.44261  0.97989  0.08568  1.0000
  H   H3277     1.0  0.50236  0.92747  0.05769  1.0000
  C   C2754     1.0  0.41729  0.80836  0.04790  1.0000
  C   C2755     1.0  0.41926  0.80432  0.05851  1.0000
  C   C2756     1.0  0.41196  0.79897  0.06684  1.0000
  Fe  Fe364     1.0  0.42238  0.98276  0.16888  1.0000
  H   H3278     1.0  0.43013  0.67578  0.02482  1.0000
  H   H3279     1.0  0.42291  0.81254  0.04144  1.0000
  H   H3280     1.0  0.41346  0.79586  0.07505  1.0000
  C   C2757     1.0  0.39547  0.75808  0.03796  1.0000
  C   C2758     1.0  0.51148  0.59893  0.03047  1.0000
  C   C2759     1.0  0.51961  0.60460  0.02861  1.0000
  C   C2760     1.0  0.53042  0.59884  0.02816  1.0000
  C   C2761     1.0  0.53321  0.58741  0.02929  1.0000
  C   C2762     1.0  0.52509  0.58174  0.03098  1.0000
  C   C2763     1.0  0.51423  0.58748  0.03169  1.0000
  H   H3281     1.0  0.51756  0.61341  0.02778  1.0000
  H   H3282     1.0  0.53664  0.60325  0.02696  1.0000
  H   H3283     1.0  0.52714  0.57292  0.03198  1.0000
  H   H3284     1.0  0.50797  0.58303  0.03319  1.0000
  H   H3285     1.0  0.49699  0.96962  0.15187  1.0000
  H   H3286     1.0  0.50229  0.96654  0.16804  1.0000
  S   S753      1.0  0.40890  0.95821  0.17509  1.0000
  C   C2764     1.0  0.44859  0.64587  0.02137  1.0000
  H   H3287     1.0  0.43454  0.65351  0.03206  1.0000
  H   H3288     1.0  0.44990  0.93418  0.09149  1.0000
  C   C2765     1.0  0.50055  0.67047  0.02098  1.0000
  C   C2766     1.0  0.49512  0.66796  0.03198  1.0000
  C   C2767     1.0  0.49117  0.67617  0.03810  1.0000
  C   C2768     1.0  0.49223  0.68698  0.03309  1.0000
  C   C2769     1.0  0.49726  0.68956  0.02197  1.0000
  C   C2770     1.0  0.50162  0.68127  0.01600  1.0000
  H   H3289     1.0  0.49444  0.65959  0.03591  1.0000
  H   H3290     1.0  0.48738  0.67414  0.04673  1.0000
  H   H3291     1.0  0.49822  0.69785  0.01810  1.0000
  H   H3292     1.0  0.50601  0.68320  0.00757  1.0000
  H   H3293     1.0  0.45739  0.66666  0.00276  1.0000
  H   H3294     1.0  0.41432  0.89002  0.00397  1.0000
  H   H3295     1.0  0.45795  0.59343  0.04666  1.0000
  C   C2771     1.0  0.39818  0.80611  0.99090  1.0000
  S   S754      1.0  0.41132  0.97805  0.18513  1.0000
  S   S755      1.0  0.38830  0.80110  0.05203  1.0000
  H   H3296     1.0  0.50618  0.95967  0.09333  1.0000
  H   H3297     1.0  0.56508  0.50456  0.99655  1.0000
  H   H3298     1.0  0.42062  0.98059  0.07660  1.0000
  H   H3299     1.0  0.40074  0.78293  0.02374  1.0000
  H   H3300     1.0  0.52049  0.98316  0.19317  1.0000
  H   H3301     1.0  0.43937  0.77214  0.99160  1.0000
  C   C2772     1.0  0.43135  0.71448  0.99612  1.0000
  H   H3302     1.0  0.40092  0.82615  0.05549  1.0000
  H   H3303     1.0  0.39687  0.79383  0.07120  1.0000
  H   H3304     1.0  0.43203  0.95731  0.04955  1.0000
  H   H3305     1.0  0.43956  0.92645  0.09752  1.0000
  H   H3306     1.0  0.39279  0.78052  0.99961  1.0000
  C   C2773     1.0  0.44646  0.68572  0.03436  1.0000
  H   H3307     1.0  0.38942  0.77141  0.05258  1.0000
  H   H3308     1.0  0.45513  0.95691  0.22531  1.0000
  N   N184      1.0  0.39111  0.86007  0.99070  1.0000
  H   H3309     1.0  0.44175  0.93919  0.04539  1.0000
  H   H3310     1.0  0.47531  0.80641  0.99870  1.0000
  C   C2774     1.0  0.44707  0.69422  0.99679  1.0000
  C   C2775     1.0  0.48951  0.68947  0.99039  1.0000
  C   C2776     1.0  0.38957  0.77512  0.04373  1.0000
  H   H3311     1.0  0.39462  0.56090  0.99326  1.0000
  H   H3312     1.0  0.52025  0.98445  0.21694  1.0000
  C   C2777     1.0  0.48082  0.83897  0.99467  1.0000
  C   C2778     1.0  0.40472  0.84451  0.99908  1.0000
  H   H3313     1.0  0.44499  0.73837  0.00953  1.0000
  C   C2779     1.0  0.39646  0.85962  0.00825  1.0000
  H   H3314     1.0  0.40176  0.96771  0.22692  1.0000
  C   C2780     1.0  0.41533  0.96146  0.13727  1.0000
  C   C2781     1.0  0.41752  0.96160  0.12604  1.0000
  C   C2782     1.0  0.40903  0.96294  0.12092  1.0000
  H   H3315     1.0  0.42579  0.96043  0.12137  1.0000
  H   H3316     1.0  0.41078  0.96274  0.11232  1.0000
  C   C2783     1.0  0.47554  0.93393  0.08898  1.0000
  C   C2784     1.0  0.47770  0.92302  0.08791  1.0000
  C   C2785     1.0  0.47749  0.92063  0.07804  1.0000
  C   C2786     1.0  0.47506  0.92918  0.06916  1.0000
  C   C2787     1.0  0.47231  0.94005  0.07048  1.0000
  C   C2788     1.0  0.47258  0.94242  0.08030  1.0000
  H   H3317     1.0  0.47998  0.91637  0.09459  1.0000
  H   H3318     1.0  0.47984  0.91223  0.07709  1.0000
  H   H3319     1.0  0.47037  0.94671  0.06368  1.0000
  H   H3320     1.0  0.47081  0.95085  0.08102  1.0000
  C   C2789     1.0  0.39394  0.78830  0.99417  1.0000
  C   C2790     1.0  0.44833  0.96923  0.08480  1.0000
  C   C2791     1.0  0.44398  0.96262  0.08109  1.0000
  C   C2792     1.0  0.43375  0.96654  0.07862  1.0000
  C   C2793     1.0  0.42825  0.97734  0.07906  1.0000
  C   C2794     1.0  0.41145  0.77360  0.04467  1.0000
  H   H3321     1.0  0.45604  0.96603  0.08709  1.0000
  H   H3322     1.0  0.44839  0.95438  0.08049  1.0000
  C   C2795     1.0  0.39717  0.56626  0.98548  1.0000
  H   H3323     1.0  0.41902  0.82542  0.98668  1.0000
  C   C2796     1.0  0.48067  0.95661  0.16400  1.0000
  C   C2797     1.0  0.47169  0.96530  0.16523  1.0000
  C   C2798     1.0  0.46607  0.97007  0.15675  1.0000
  C   C2799     1.0  0.46953  0.96637  0.14692  1.0000
  C   C2800     1.0  0.47867  0.95788  0.14557  1.0000
  C   C2801     1.0  0.48419  0.95296  0.15414  1.0000
  H   H3324     1.0  0.46890  0.96814  0.17282  1.0000
  H   H3325     1.0  0.53055  0.56653  0.98676  1.0000
  H   H3326     1.0  0.48137  0.95497  0.13802  1.0000
  H   H3327     1.0  0.49115  0.94624  0.15314  1.0000
  C   C2802     1.0  0.52647  0.59808  0.00193  1.0000
  C   C2803     1.0  0.42839  0.75745  0.03656  1.0000
  H   H3328     1.0  0.50133  0.94158  0.09800  1.0000
  H   H3329     1.0  0.43970  0.97515  0.12599  1.0000
  H   H3330     1.0  0.45336  0.74808  0.99063  1.0000
  C   C2804     1.0  0.46713  0.92633  0.20796  1.0000
  C   C2805     1.0  0.41719  0.94931  0.21136  1.0000
  C   C2806     1.0  0.44030  0.77586  0.06703  1.0000
  H   H3331     1.0  0.43098  0.85619  0.03998  1.0000
  H   H3332     1.0  0.40565  0.95691  0.03696  1.0000
  S   S756      1.0  0.53130  0.49360  0.02432  1.0000
  S   S757      1.0  0.49730  0.98400  0.09063  1.0000
  H   H3333     1.0  0.47406  0.92636  0.21088  1.0000
  C   C2807     1.0  0.40259  0.79783  0.06467  1.0000
  C   C2808     1.0  0.54862  0.50337  0.03981  1.0000
  H   H3334     1.0  0.57273  0.51859  0.06487  1.0000
  H   H3335     1.0  0.44290  0.91894  0.21742  1.0000
  C   C2809     1.0  0.45465  0.68430  0.99863  1.0000
  C   C2810     1.0  0.44959  0.92217  0.21165  1.0000
  H   H3336     1.0  0.44588  0.96669  0.21762  1.0000
  H   H3337     1.0  0.47565  0.83410  0.00099  1.0000
  H   H3338     1.0  0.45908  0.91849  0.22382  1.0000
  H   H3339     1.0  0.50911  0.92473  0.06872  1.0000
  C   C2811     1.0  0.44815  0.93431  0.17787  1.0000
  C   C2812     1.0  0.48238  0.84843  0.99643  1.0000
  C   C2813     1.0  0.40041  0.80217  0.05419  1.0000
  H   H3340     1.0  0.44871  0.94145  0.22351  1.0000
  N   N185      1.0  0.39842  0.76869  0.03655  1.0000
  C   C2814     1.0  0.45707  0.60510  0.01094  1.0000
  N   N186      1.0  0.45697  0.93656  0.18137  1.0000
  C   C2815     1.0  0.54390  0.49682  0.03638  1.0000
  C   C2816     1.0  0.41772  0.70403  0.00444  1.0000
  N   N187      1.0  0.41772  0.92488  0.07562  1.0000
  C   C2817     1.0  0.41139  0.92201  0.08703  1.0000
  C   C2818     1.0  0.41352  0.93667  0.07117  1.0000
  C   C2819     1.0  0.41568  0.91853  0.06884  1.0000
  C   C2820     1.0  0.42942  0.92216  0.07556  1.0000
  C   C2821     1.0  0.43460  0.91127  0.07984  1.0000
  C   C2822     1.0  0.43602  0.93003  0.07113  1.0000
  C   C2823     1.0  0.44566  0.90844  0.07966  1.0000
  C   C2824     1.0  0.44709  0.92710  0.07097  1.0000
  C   C2825     1.0  0.45189  0.91634  0.07522  1.0000
  H   H3341     1.0  0.41290  0.92643  0.09245  1.0000
  H   H3342     1.0  0.40253  0.92423  0.08740  1.0000
  H   H3343     1.0  0.41331  0.91309  0.09069  1.0000
  H   H3344     1.0  0.41476  0.94199  0.07586  1.0000
  H   H3345     1.0  0.40470  0.93854  0.07152  1.0000
  H   H3346     1.0  0.41739  0.93921  0.06240  1.0000
  H   H3347     1.0  0.41781  0.90953  0.07211  1.0000
  H   H3348     1.0  0.40700  0.92062  0.06841  1.0000
  H   H3349     1.0  0.42062  0.92017  0.06031  1.0000
  H   H3350     1.0  0.43021  0.90476  0.08297  1.0000
  H   H3351     1.0  0.43289  0.93848  0.06759  1.0000
  H   H3352     1.0  0.44951  0.89998  0.08260  1.0000
  H   H3353     1.0  0.45202  0.93319  0.06735  1.0000
  H   H3354     1.0  0.46051  0.91403  0.07480  1.0000
  H   H3355     1.0  0.42335  0.77733  0.05070  1.0000
  C   C2826     1.0  0.43237  0.68078  0.02887  1.0000
  H   H3356     1.0  0.41623  0.63571  0.98818  1.0000
  H   H3357     1.0  0.44561  0.96795  0.23101  1.0000
  C   C2827     1.0  0.39884  0.77480  0.02502  1.0000
  H   H3358     1.0  0.42064  0.83862  0.06771  1.0000
  C   C2828     1.0  0.50603  0.95599  0.08686  1.0000
  C   C2829     1.0  0.45999  0.69099  0.04072  1.0000
  C   C2830     1.0  0.41593  0.73366  0.01737  1.0000
  C   C2831     1.0  0.44324  0.67946  0.02897  1.0000
  H   H3359     1.0  0.42989  0.92774  0.02259  1.0000
  C   C2832     1.0  0.54157  0.51930  0.02682  1.0000
  C   C2833     1.0  0.40452  0.94349  0.02654  1.0000
  C   C2834     1.0  0.49655  0.94916  0.05515  1.0000
  C   C2835     1.0  0.50519  0.97434  0.16554  1.0000
  C   C2836     1.0  0.42702  0.81969  0.98590  1.0000
  H   H3360     1.0  0.44534  0.61094  0.02404  1.0000
  H   H3361     1.0  0.44731  0.95170  0.18565  1.0000
  H   H3362     1.0  0.52396  0.94772  0.22780  1.0000
  H   H3363     1.0  0.40788  0.73220  0.01958  1.0000
  H   H3364     1.0  0.49379  0.92282  0.99949  1.0000
  H   H3365     1.0  0.44913  0.67346  0.02483  1.0000
  H   H3366     1.0  0.41247  0.82396  0.06828  1.0000
  C   C2837     1.0  0.45013  0.75727  0.06673  1.0000
  C   C2838     1.0  0.43600  0.62300  0.98866  1.0000
  H   H3367     1.0  0.42493  0.94084  0.01450  1.0000
  H   H3368     1.0  0.58173  0.50055  0.05115  1.0000
  H   H3369     1.0  0.50543  0.59647  0.00803  1.0000
  C   C2839     1.0  0.47313  0.76551  0.00213  1.0000
  N   N188      1.0  0.49945  0.98275  0.15746  1.0000
  H   H3370     1.0  0.47419  0.93556  0.17458  1.0000
  C   C2840     1.0  0.46225  0.67243  0.03950  1.0000
  C   C2841     1.0  0.46703  0.72666  0.99132  1.0000
  H   H3371     1.0  0.56723  0.51497  0.05550  1.0000
  H   H3372     1.0  0.43366  0.92952  0.03734  1.0000
  C   C2842     1.0  0.47147  0.78424  0.99160  1.0000
  C   C2843     1.0  0.54605  0.50994  0.99240  1.0000
  C   C2844     1.0  0.40920  0.76693  0.03894  1.0000
  Fe  Fe365     1.0  0.39428  0.64365  0.99994  1.0000
  H   H3373     1.0  0.46943  0.92378  0.17497  1.0000
  C   C2845     1.0  0.39615  0.96446  0.13815  1.0000
  S   S758      1.0  0.48265  0.97283  0.19044  1.0000
  H   H3374     1.0  0.43428  0.71310  0.00376  1.0000
  H   H3375     1.0  0.43274  0.78195  0.06739  1.0000
  H   H3376     1.0  0.47483  0.63333  0.99324  1.0000
  H   H3377     1.0  0.47324  0.93460  0.19177  1.0000
  C   C2846     1.0  0.48796  0.98607  0.16290  1.0000
  H   H3378     1.0  0.42963  0.61898  0.99471  1.0000
  C   C2847     1.0  0.43026  0.76394  0.04242  1.0000
  H   H3379     1.0  0.40625  0.81051  0.03760  1.0000
  H   H3380     1.0  0.44046  0.95166  0.21491  1.0000
  H   H3381     1.0  0.54263  0.49003  0.00221  1.0000
  H   H3382     1.0  0.51765  0.94922  0.04867  1.0000
  H   H3383     1.0  0.41345  0.69802  0.00394  1.0000
  C   C2848     1.0  0.45758  0.93117  0.19293  1.0000
  H   H3384     1.0  0.51006  0.96967  0.07404  1.0000
  C   C2849     1.0  0.42728  0.69483  0.03924  1.0000
  C   C2850     1.0  0.41794  0.74397  0.01161  1.0000
  H   H3385     1.0  0.40119  0.85800  0.02327  1.0000
  H   H3386     1.0  0.40793  0.92220  0.03453  1.0000
  C   C2851     1.0  0.50281  0.93072  0.06460  1.0000
  H   H3387     1.0  0.40534  0.78014  0.04783  1.0000
  H   H3388     1.0  0.53490  0.59604  0.99709  1.0000
  H   H3389     1.0  0.41976  0.77693  0.99315  1.0000
  H   H3390     1.0  0.39133  0.91526  0.99368  1.0000
  H   H3391     1.0  0.41597  0.68956  0.03387  1.0000
  C   C2852     1.0  0.39735  0.85478  0.99940  1.0000
  C   C2853     1.0  0.44525  0.63434  0.01152  1.0000
  S   S759      1.0  0.47095  0.93663  0.23026  1.0000
  H   H3392     1.0  0.45890  0.97652  0.15786  1.0000
  C   C2854     1.0  0.43389  0.94298  0.04340  1.0000
  N   N189      1.0  0.51842  0.60157  0.99492  1.0000
  C   C2855     1.0  0.56480  0.50085  0.98989  1.0000
  C   C2856     1.0  0.41097  0.83165  0.06235  1.0000
  C   C2857     1.0  0.49488  0.67881  0.98947  1.0000
  C   C2858     1.0  0.44671  0.96187  0.22602  1.0000
  H   H3393     1.0  0.58099  0.53921  0.04644  1.0000
  H   H3394     1.0  0.40286  0.96318  0.15190  1.0000
  H   H3395     1.0  0.42996  0.84758  0.98933  1.0000
  C   C2859     1.0  0.43750  0.64829  0.02619  1.0000
  S   S760      1.0  0.39416  0.89140  0.02202  1.0000
  H   H3396     1.0  0.49507  0.94542  0.04910  1.0000
  C   C2860     1.0  0.57267  0.51990  0.05606  1.0000
  N   N190      1.0  0.42464  0.89066  0.98768  1.0000
  C   C2861     1.0  0.45237  0.63919  0.01376  1.0000
  H   H3397     1.0  0.45933  0.60181  0.05491  1.0000
  C   C2862     1.0  0.51881  0.59319  0.98902  1.0000
  H   H3398     1.0  0.41963  0.86667  0.03630  1.0000
  H   H3399     1.0  0.47306  0.68608  0.02281  1.0000
  H   H3400     1.0  0.44494  0.61694  0.04973  1.0000
  H   H3401     1.0  0.45003  0.70164  0.99486  1.0000
  C   C2863     1.0  0.51648  0.98560  0.23385  1.0000
  H   H3402     1.0  0.50504  0.95499  0.22690  1.0000
  C   C2864     1.0  0.46726  0.93288  0.17369  1.0000
  H   H3403     1.0  0.46548  0.89130  0.00226  1.0000
  H   H3404     1.0  0.47071  0.59680  0.04497  1.0000
  S   S761      1.0  0.48497  0.73370  0.99088  1.0000
  Fe  Fe366     1.0  0.38727  0.65207  0.02074  1.0000
  H   H3405     1.0  0.42010  0.98142  0.13492  1.0000
  C   C2865     1.0  0.49644  0.76862  0.99497  1.0000
  H   H3406     1.0  0.49160  0.69341  0.99560  1.0000
  S   S762      1.0  0.41135  0.98237  0.15886  1.0000
  C   C2866     1.0  0.41358  0.95273  0.03848  1.0000
  C   C2867     1.0  0.42846  0.95320  0.04572  1.0000
  H   H3407     1.0  0.43443  0.94219  0.22610  1.0000
  H   H3408     1.0  0.41878  0.92081  0.04087  1.0000
  N   N191      1.0  0.45869  0.61003  0.03811  1.0000
  C   C2868     1.0  0.46451  0.61837  0.03788  1.0000
  C   C2869     1.0  0.55106  0.49099  0.00091  1.0000
  C   C2870     1.0  0.46179  0.60009  0.04652  1.0000
  C   C2871     1.0  0.46169  0.60714  0.02722  1.0000
  C   C2872     1.0  0.47270  0.60308  0.02247  1.0000
  C   C2873     1.0  0.50342  0.98391  0.19939  1.0000
  C   C2874     1.0  0.47575  0.60027  0.01223  1.0000
  H   H3409     1.0  0.52045  0.61824  0.99117  1.0000
  C   C2875     1.0  0.46795  0.60129  0.00647  1.0000
  H   H3410     1.0  0.46274  0.62583  0.03137  1.0000
  C   C2876     1.0  0.53661  0.51280  0.02359  1.0000
  C   C2877     1.0  0.52550  0.57472  0.98516  1.0000
  H   H3411     1.0  0.41609  0.83136  0.00694  1.0000
  H   H3412     1.0  0.42788  0.85392  0.00615  1.0000
  H   H3413     1.0  0.43828  0.76271  0.04380  1.0000
  H   H3414     1.0  0.43299  0.76277  0.06769  1.0000
  H   H3415     1.0  0.41719  0.75398  0.02977  1.0000
  C   C2878     1.0  0.42636  0.87097  0.99795  1.0000
  H   H3416     1.0  0.47906  0.60208  0.02664  1.0000
  C   C2879     1.0  0.41169  0.95944  0.21403  1.0000
  H   H3417     1.0  0.48421  0.59731  0.00873  1.0000
  C   C2880     1.0  0.49990  0.97742  0.14855  1.0000
  N   N192      1.0  0.44186  0.93518  0.10828  1.0000
  C   C2881     1.0  0.45048  0.92608  0.11234  1.0000
  C   C2882     1.0  0.44473  0.94574  0.10705  1.0000
  C   C2883     1.0  0.43135  0.93486  0.11624  1.0000
  C   C2884     1.0  0.42172  0.93522  0.11313  1.0000
  C   C2885     1.0  0.43041  0.93476  0.12744  1.0000
  C   C2886     1.0  0.41184  0.93540  0.12082  1.0000
  C   C2887     1.0  0.42050  0.93490  0.13504  1.0000
  C   C2888     1.0  0.41123  0.93526  0.13173  1.0000
  H   H3418     1.0  0.44820  0.91802  0.11428  1.0000
  H   H3419     1.0  0.45831  0.92565  0.10617  1.0000
  H   H3420     1.0  0.45230  0.92709  0.11980  1.0000
  H   H3421     1.0  0.44554  0.94680  0.11495  1.0000
  H   H3422     1.0  0.45260  0.94639  0.10110  1.0000
  H   H3423     1.0  0.43841  0.95281  0.10409  1.0000
  H   H3424     1.0  0.42155  0.93564  0.10478  1.0000
  H   H3425     1.0  0.43723  0.93501  0.13034  1.0000
  H   H3426     1.0  0.40450  0.93599  0.11827  1.0000
  H   H3427     1.0  0.41992  0.93523  0.14344  1.0000
  H   H3428     1.0  0.40348  0.93580  0.13755  1.0000
  N   N193      1.0  0.45888  0.87824  0.01434  1.0000
  C   C2889     1.0  0.45844  0.89005  0.00915  1.0000
  C   C2890     1.0  0.45025  0.87779  0.02458  1.0000
  C   C2891     1.0  0.45754  0.87207  0.00698  1.0000
  C   C2892     1.0  0.45441  0.86181  0.01128  1.0000
  C   C2893     1.0  0.45321  0.85589  0.00439  1.0000
  C   C2894     1.0  0.46278  0.76841  0.00861  1.0000
  H   H3429     1.0  0.45087  0.89399  0.00611  1.0000
  H   H3430     1.0  0.45880  0.89473  0.01499  1.0000
  H   H3431     1.0  0.51749  0.96585  0.22115  1.0000
  H   H3432     1.0  0.44208  0.88039  0.02267  1.0000
  H   H3433     1.0  0.45066  0.88315  0.02974  1.0000
  H   H3434     1.0  0.45309  0.85811  0.01996  1.0000
  H   H3435     1.0  0.45074  0.84812  0.00785  1.0000
  H   H3436     1.0  0.41225  0.96694  0.20789  1.0000
  H   H3437     1.0  0.44834  0.62884  0.00593  1.0000
  H   H3438     1.0  0.41260  0.90320  0.99507  1.0000
  C   C2895     1.0  0.48806  0.89105  0.99835  1.0000
  H   H3439     1.0  0.47344  0.61528  0.03638  1.0000
  C   C2896     1.0  0.44097  0.67423  0.00134  1.0000
  H   H3440     1.0  0.45102  0.60596  0.00640  1.0000
  H   H3441     1.0  0.42184  0.64499  0.02793  1.0000
  C   C2897     1.0  0.39321  0.67712  0.02393  1.0000
  C   C2898     1.0  0.47784  0.77336  0.99345  1.0000
  C   C2899     1.0  0.45685  0.77917  0.00671  1.0000
  H   H3442     1.0  0.53751  0.50927  0.99377  1.0000
  H   H3443     1.0  0.46212  0.62106  0.04580  1.0000
  S   S763      1.0  0.42559  0.94841  0.19832  1.0000
  C   C2900     1.0  0.42766  0.85984  0.99841  1.0000
  H   H3444     1.0  0.54652  0.51241  0.99978  1.0000
  C   C2901     1.0  0.44693  0.61461  0.04165  1.0000
  H   H3445     1.0  0.42676  0.96627  0.22253  1.0000
  C   C2902     1.0  0.50549  0.94651  0.06988  1.0000
  C   C2903     1.0  0.43479  0.72693  0.01803  1.0000
  H   H3446     1.0  0.45466  0.95305  0.17155  1.0000
  H   H3447     1.0  0.41164  0.71193  0.00382  1.0000
  H   H3448     1.0  0.40056  0.70424  0.98977  1.0000
  C   C2904     1.0  0.52555  0.58247  0.99073  1.0000
  H   H3449     1.0  0.44904  0.78146  0.01208  1.0000
  C   C2905     1.0  0.41658  0.93965  0.21943  1.0000
  H   H3450     1.0  0.38789  0.96545  0.14291  1.0000
  C   C2906     1.0  0.40462  0.96318  0.14325  1.0000
  H   H3451     1.0  0.45098  0.86951  0.03004  1.0000
  H   H3452     1.0  0.40493  0.85896  0.04124  1.0000
  Fe  Fe367     1.0  0.38896  0.95514  0.08542  1.0000
  C   C2907     1.0  0.47082  0.62292  0.98539  1.0000
  Fe  Fe368     1.0  0.39333  0.74667  0.01162  1.0000
  C   C2908     1.0  0.46116  0.78706  0.99817  1.0000
  C   C2909     1.0  0.54744  0.51463  0.03508  1.0000
  S   S764      1.0  0.46949  0.98354  0.10687  1.0000
  C   C2910     1.0  0.45392  0.60795  0.02117  1.0000
  H   H3453     1.0  0.42270  0.71724  0.02518  1.0000
  C   C2911     1.0  0.42434  0.72515  0.02058  1.0000
  N   N194      1.0  0.43874  0.95476  0.23090  1.0000
  H   H3454     1.0  0.40044  0.75352  0.03153  1.0000
  H   H3455     1.0  0.53179  0.51652  0.01747  1.0000
  H   H3456     1.0  0.47094  0.87757  0.02296  1.0000
  C   C2912     1.0  0.46951  0.87332  0.01731  1.0000
  H   H3457     1.0  0.43001  0.75363  0.00428  1.0000
  H   H3458     1.0  0.44329  0.61648  0.98675  1.0000
  H   H3459     1.0  0.47627  0.87374  0.00990  1.0000
  C   C2913     1.0  0.41808  0.75899  0.03470  1.0000
  Fe  Fe369     1.0  0.39219  0.96427  0.10333  1.0000
  C   C2914     1.0  0.42440  0.68846  0.03399  1.0000
  C   C2915     1.0  0.53773  0.50155  0.02839  1.0000
  N   N195      1.0  0.45803  0.68404  0.03445  1.0000
  C   C2916     1.0  0.40919  0.86916  0.05640  1.0000
  C   C2917     1.0  0.46913  0.81264  0.99510  1.0000
  H   H3460     1.0  0.47016  0.86453  0.02155  1.0000
  H   H3461     1.0  0.43613  0.94126  0.09320  1.0000
  C   C2918     1.0  0.43811  0.69350  0.03950  1.0000
  H   H3462     1.0  0.40737  0.89265  0.99315  1.0000
  H   H3463     1.0  0.52491  0.59085  0.00866  1.0000
  C   C2919     1.0  0.41046  0.94006  0.23009  1.0000
  S   S765      1.0  0.40212  0.65230  0.00709  1.0000
  Fe  Fe370     1.0  0.38687  0.72455  0.02075  1.0000
  C   C2920     1.0  0.42535  0.85736  0.06159  1.0000
  H   H3464     1.0  0.39865  0.66941  0.02271  1.0000
  H   H3465     1.0  0.49090  0.75280  0.99044  1.0000
  H   H3466     1.0  0.47771  0.78812  0.06027  1.0000
  H   H3467     1.0  0.50107  0.60782  0.99734  1.0000
  H   H3468     1.0  0.46677  0.93641  0.16493  1.0000
  C   C2921     1.0  0.45506  0.94856  0.18014  1.0000
  H   H3469     1.0  0.47760  0.76945  0.04976  1.0000
  H   H3470     1.0  0.49351  0.88341  0.00100  1.0000
  H   H3471     1.0  0.50960  0.96174  0.05923  1.0000
  H   H3472     1.0  0.46740  0.78935  0.05333  1.0000
  H   H3473     1.0  0.41215  0.87610  0.05707  1.0000
  H   H3474     1.0  0.40558  0.92874  0.04569  1.0000
  C   C2922     1.0  0.46974  0.78612  0.06141  1.0000
  H   H3475     1.0  0.40431  0.87251  0.05002  1.0000
  H   H3476     1.0  0.40351  0.86662  0.06432  1.0000
  Fe  Fe371     1.0  0.40837  0.63539  0.01637  1.0000
  C   C2923     1.0  0.47952  0.76849  0.05781  1.0000
  H   H3477     1.0  0.46399  0.79091  0.06736  1.0000
  H   H3478     1.0  0.48200  0.75957  0.06124  1.0000
  Fe  Fe372     1.0  0.42001  0.96087  0.18397  1.0000
  H   H3479     1.0  0.45448  0.76016  0.99395  1.0000
  H   H3480     1.0  0.42107  0.70094  0.04305  1.0000
  H   H3481     1.0  0.43976  0.69888  0.04352  1.0000
  C   C2924     1.0  0.40517  0.95015  0.23288  1.0000
  H   H3482     1.0  0.47843  0.85094  0.00413  1.0000
  C   C2925     1.0  0.41905  0.94242  0.03573  1.0000
  S   S766      1.0  0.55311  0.52270  0.03988  1.0000
  H   H3483     1.0  0.50076  0.93326  0.08384  1.0000
  H   H3484     1.0  0.45027  0.74892  0.06664  1.0000
  C   C2926     1.0  0.50751  0.60403  0.00211  1.0000
  C   C2927     1.0  0.43031  0.64351  0.02384  1.0000
  N   N196      1.0  0.47017  0.77413  0.06526  1.0000
  C   C2928     1.0  0.47221  0.77065  0.07649  1.0000
  H   H3485     1.0  0.48688  0.77181  0.05609  1.0000
  C   C2929     1.0  0.40934  0.84412  0.01596  1.0000
  C   C2930     1.0  0.41062  0.83929  0.00724  1.0000
  H   H3486     1.0  0.39777  0.94553  0.03351  1.0000
  H   H3487     1.0  0.44001  0.93803  0.18228  1.0000
  C   C2931     1.0  0.50798  0.95698  0.06755  1.0000
  Fe  Fe373     1.0  0.38916  0.81729  0.01186  1.0000
  S   S767      1.0  0.42618  0.62838  0.01523  1.0000
  H   H3488     1.0  0.45760  0.69987  0.03700  1.0000
  H   H3489     1.0  0.47982  0.77263  0.07672  1.0000
  C   C2932     1.0  0.50309  0.94108  0.08114  1.0000
  H   H3490     1.0  0.54057  0.52798  0.02317  1.0000
  C   C2933     1.0  0.40230  0.85428  0.01644  1.0000
  C   C2934     1.0  0.40453  0.83283  0.05508  1.0000
  C   C2935     1.0  0.42243  0.93352  0.02053  1.0000
  S   S768      1.0  0.39576  0.70691  0.02578  1.0000
  C   C2936     1.0  0.51569  0.94107  0.05279  1.0000
  H   H3491     1.0  0.39029  0.78377  0.04205  1.0000
  H   H3492     1.0  0.46544  0.77479  0.08233  1.0000
  H   H3493     1.0  0.43233  0.85039  0.06003  1.0000
  C   C2937     1.0  0.40783  0.80730  0.04574  1.0000
  N   N197      1.0  0.42778  0.70474  0.99577  1.0000
  N   N198      1.0  0.41820  0.85983  0.05378  1.0000
  C   C2938     1.0  0.47773  0.62846  0.98710  1.0000
  H   H3494     1.0  0.42891  0.86444  0.06080  1.0000
  H   H3495     1.0  0.46295  0.68437  0.99824  1.0000
  H   H3496     1.0  0.39104  0.77611  0.02259  1.0000
  H   H3497     1.0  0.43236  0.82292  0.98892  1.0000
  H   H3498     1.0  0.47033  0.59922  0.99847  1.0000
  H   H3499     1.0  0.46872  0.68945  0.04076  1.0000
  H   H3500     1.0  0.44414  0.62221  0.03567  1.0000
  C   C2939     1.0  0.41160  0.92668  0.03820  1.0000
  H   H3501     1.0  0.51578  0.93719  0.04612  1.0000
  C   C2940     1.0  0.45867  0.92191  0.21527  1.0000
  C   C2941     1.0  0.41827  0.95798  0.04339  1.0000
  H   H3502     1.0  0.44454  0.97800  0.17415  1.0000
  H   H3503     1.0  0.43838  0.62802  0.99288  1.0000
  C   C2942     1.0  0.45997  0.77120  0.06561  1.0000
  C   C2943     1.0  0.50827  0.96160  0.07594  1.0000
  H   H3504     1.0  0.41396  0.96583  0.04544  1.0000
  C   C2944     1.0  0.41370  0.85042  0.05427  1.0000
  H   H3505     1.0  0.45737  0.66999  0.04793  1.0000
  H   H3506     1.0  0.46697  0.75377  0.06580  1.0000
  H   H3507     1.0  0.44913  0.78743  0.06615  1.0000
  H   H3508     1.0  0.45560  0.68936  0.04946  1.0000
  C   C2945     1.0  0.45535  0.85980  0.99305  1.0000
  H   H3509     1.0  0.40604  0.95124  0.02064  1.0000
  H   H3510     1.0  0.47082  0.67097  0.04009  1.0000
  C   C2946     1.0  0.42467  0.86326  0.04255  1.0000
  H   H3511     1.0  0.42891  0.86972  0.04210  1.0000
  C   C2947     1.0  0.39735  0.68606  0.02371  1.0000
  H   H3512     1.0  0.53083  0.57976  0.99645  1.0000
  H   H3513     1.0  0.49495  0.76181  0.00224  1.0000
  H   H3514     1.0  0.55154  0.49327  0.00839  1.0000
  C   C2948     1.0  0.46441  0.68664  0.02302  1.0000
  N   N199      1.0  0.41443  0.93671  0.03034  1.0000
  H   H3515     1.0  0.42085  0.85534  0.07028  1.0000
  H   H3516     1.0  0.46436  0.72725  0.99979  1.0000
  C   C2949     1.0  0.45974  0.76021  0.06608  1.0000
  C   C2950     1.0  0.44988  0.77892  0.06628  1.0000
  H   H3517     1.0  0.40526  0.77039  0.01919  1.0000
  C   C2951     1.0  0.45156  0.67434  0.00106  1.0000
  H   H3518     1.0  0.46160  0.95082  0.18231  1.0000
  S   S769      1.0  0.40726  0.75462  0.00803  1.0000
  C   C2952     1.0  0.44899  0.92675  0.20067  1.0000
  H   H3519     1.0  0.42466  0.72194  0.99602  1.0000
  C   C2953     1.0  0.40702  0.85136  0.04704  1.0000
  C   C2954     1.0  0.41430  0.89426  0.99529  1.0000
  C   C2955     1.0  0.43688  0.73713  0.01196  1.0000
  H   H3520     1.0  0.46082  0.63753  0.00979  1.0000
  H   H3521     1.0  0.46442  0.68090  0.01811  1.0000
  C   C2956     1.0  0.43428  0.63625  0.01674  1.0000
  H   H3522     1.0  0.49485  0.93077  0.07041  1.0000
  H   H3523     1.0  0.40599  0.68516  0.02233  1.0000
  C   C2957     1.0  0.42921  0.93757  0.03866  1.0000
  H   H3524     1.0  0.58532  0.58039  0.99876  1.0000
  S   S770      1.0  0.40157  0.62671  0.00810  1.0000
  H   H3525     1.0  0.47758  0.75716  0.00431  1.0000
  Fe  Fe374     1.0  0.40116  0.97591  0.17501  1.0000
  H   H3526     1.0  0.52240  0.93605  0.05689  1.0000
  H   H3527     1.0  0.46218  0.66665  0.03466  1.0000
  H   H3528     1.0  0.42081  0.93180  0.21742  1.0000
  H   H3529     1.0  0.47441  0.79081  0.98535  1.0000
  H   H3530     1.0  0.57085  0.49295  0.99044  1.0000
  C   C2958     1.0  0.46011  0.87558  0.99532  1.0000
  C   C2959     1.0  0.42786  0.96201  0.23098  1.0000
  H   H3531     1.0  0.40582  0.84037  0.99260  1.0000
  H   H3532     1.0  0.56864  0.52858  0.05323  1.0000
  C   C2960     1.0  0.40270  0.84259  0.04733  1.0000
  C   C2961     1.0  0.43631  0.77029  0.98561  1.0000
  H   H3533     1.0  0.46265  0.62350  0.99027  1.0000
  S   S771      1.0  0.55286  0.55692  0.98959  1.0000
  C   C2962     1.0  0.42520  0.70669  0.98491  1.0000
  H   H3534     1.0  0.39770  0.84338  0.04170  1.0000
  H   H3535     1.0  0.50115  0.67445  0.99400  1.0000
  C   C2963     1.0  0.46053  0.72319  0.98670  1.0000
  C   C2964     1.0  0.50304  0.91116  0.98958  1.0000
  C   C2965     1.0  0.48903  0.85465  0.98828  1.0000
  H   H3536     1.0  0.48401  0.97894  0.16613  1.0000
  C   C2966     1.0  0.47424  0.91094  0.99150  1.0000
  C   C2967     1.0  0.39035  0.69609  0.02538  1.0000
  H   H3537     1.0  0.39632  0.75268  0.04613  1.0000
  C   C2968     1.0  0.52055  0.61183  0.98695  1.0000
  H   H3538     1.0  0.46321  0.88289  0.99122  1.0000
  H   H3539     1.0  0.44762  0.98530  0.11916  1.0000
  C   C2969     1.0  0.42889  0.85624  0.98892  1.0000
  N   N200      1.0  0.55378  0.49943  0.99085  1.0000
  C   C2970     1.0  0.51787  0.98030  0.22545  1.0000
  H   H3540     1.0  0.57795  0.51563  0.03594  1.0000
  H   H3541     1.0  0.50559  0.90502  0.99650  1.0000
  H   H3542     1.0  0.39762  0.79427  0.00625  1.0000
  S   S772      1.0  0.39226  0.91782  0.01673  1.0000
  C   C2971     1.0  0.38969  0.72008  0.98761  1.0000
  Fe  Fe375     1.0  0.38678  0.62845  0.02166  1.0000
  H   H3543     1.0  0.49514  0.77612  0.99814  1.0000
  N   N201      1.0  0.58378  0.51692  0.04939  1.0000
  H   H3544     1.0  0.38728  0.87674  0.99275  1.0000
  H   H3545     1.0  0.46269  0.98539  0.22928  1.0000
  C   C2972     1.0  0.45310  0.82887  0.98601  1.0000
  H   H3546     1.0  0.58007  0.52884  0.03485  1.0000
  N   N202      1.0  0.48922  0.77040  0.98743  1.0000
  H   H3547     1.0  0.39642  0.66971  0.98590  1.0000
  C   C2973     1.0  0.38978  0.91085  0.98856  1.0000
  H   H3548     1.0  0.47758  0.70348  0.98507  1.0000
  H   H3549     1.0  0.39023  0.84491  0.98735  1.0000
  H   H3550     1.0  0.43275  0.90109  0.99126  1.0000
  C   C2974     1.0  0.43371  0.89232  0.99122  1.0000
  Fe  Fe376     1.0  0.38887  0.97942  0.08169  1.0000
  H   H3551     1.0  0.38906  0.58837  0.99813  1.0000
  H   H3552     1.0  0.39114  0.86743  0.00919  1.0000
  H   H3553     1.0  0.38727  0.71993  0.99629  1.0000
  C   C2975     1.0  0.48591  0.89366  0.98782  1.0000
  S   S773      1.0  0.38759  0.96514  0.12112  1.0000
  H   H3554     1.0  0.50512  0.76650  0.99080  1.0000
  H   H3555     1.0  0.46899  0.91870  0.98877  1.0000
  H   H3556     1.0  0.49021  0.86203  0.98966  1.0000
  C   C2976     1.0  0.49639  0.92120  0.99129  1.0000
  H   H3557     1.0  0.42567  0.81180  0.99167  1.0000
  C   C2977     1.0  0.47684  0.72933  0.98503  1.0000
  C   C2978     1.0  0.45888  0.86957  0.98852  1.0000
  C   C2979     1.0  0.45733  0.75521  0.98760  1.0000
  H   H3558     1.0  0.45444  0.85515  0.98774  1.0000
  H   H3559     1.0  0.46615  0.75193  0.98724  1.0000
  C   C2980     1.0  0.42618  0.87889  0.98790  1.0000
  H   H3560     1.0  0.57886  0.55134  0.98485  1.0000
  H   H3561     1.0  0.38697  0.75923  0.03728  1.0000
  H   H3562     1.0  0.42491  0.98668  0.22119  1.0000
  H   H3563     1.0  0.44158  0.88974  0.98558  1.0000
  H   H3564     1.0  0.48599  0.98718  0.20439  1.0000
  S   S774      1.0  0.45386  0.98729  0.20374  1.0000
  Fe  Fe377     1.0  0.48622  0.96153  0.36716  1.0000
  S   S775      1.0  0.49079  0.94399  0.37585  1.0000
  S   S776      1.0  0.49194  0.96830  0.34916  1.0000
  Fe  Fe378     1.0  0.47179  0.96827  0.38788  1.0000
  S   S777      1.0  0.47500  0.95130  0.39837  1.0000
  C   C2981     1.0  0.44781  0.94219  0.25811  1.0000
  Fe  Fe379     1.0  0.49239  0.95069  0.38941  1.0000
  S   S778      1.0  0.50762  0.94516  0.39626  1.0000
  Fe  Fe380     1.0  0.47304  0.94632  0.38384  1.0000
  S   S779      1.0  0.46359  0.93365  0.38554  1.0000
  S   S780      1.0  0.48927  0.96805  0.37993  1.0000
  S   S781      1.0  0.46843  0.96343  0.37419  1.0000
  Fe  Fe381     1.0  0.41208  0.96055  0.36321  1.0000
  S   S782      1.0  0.42137  0.97191  0.35032  1.0000
  S   S783      1.0  0.42089  0.94305  0.36798  1.0000
  Fe  Fe382     1.0  0.39171  0.97832  0.36691  1.0000
  C   C2982     1.0  0.43000  0.96964  0.40740  1.0000
  H   H3565     1.0  0.53174  0.94563  0.44103  1.0000
  C   C2983     1.0  0.41857  0.95836  0.39821  1.0000
  C   C2984     1.0  0.50798  0.94789  0.25327  1.0000
  Fe  Fe383     1.0  0.40619  0.97868  0.34389  1.0000
  H   H3566     1.0  0.42598  0.94051  0.24439  1.0000
  S   S784      1.0  0.39730  0.96623  0.35587  1.0000
  S   S785      1.0  0.40571  0.97149  0.37526  1.0000
  Fe  Fe384     1.0  0.48246  0.95045  0.30348  1.0000
  S   S786      1.0  0.47838  0.96877  0.29804  1.0000
  S   S787      1.0  0.48147  0.94165  0.32116  1.0000
  Fe  Fe385     1.0  0.48489  0.94686  0.28064  1.0000
  S   S788      1.0  0.48115  0.96483  0.27313  1.0000
  S   S789      1.0  0.48879  0.93319  0.27179  1.0000
  Fe  Fe386     1.0  0.49177  0.96614  0.28328  1.0000
  C   C2985     1.0  0.41273  0.95076  0.39854  1.0000
  Fe  Fe387     1.0  0.46819  0.96577  0.28850  1.0000
  S   S790      1.0  0.45123  0.97538  0.28933  1.0000
  S   S791      1.0  0.49676  0.94795  0.28950  1.0000
  S   S792      1.0  0.47099  0.94770  0.29522  1.0000
  C   C2986     1.0  0.45735  0.92743  0.33129  1.0000
  S   S793      1.0  0.53222  0.96289  0.45241  1.0000
  H   H3567     1.0  0.48321  0.94889  0.35541  1.0000
  Fe  Fe388     1.0  0.39944  0.96339  0.25415  1.0000
  C   C2987     1.0  0.58101  0.95230  0.45030  1.0000
  H   H3568     1.0  0.50909  0.96610  0.25598  1.0000
  Fe  Fe389     1.0  0.39848  0.96870  0.27602  1.0000
  H   H3569     1.0  0.48178  0.98593  0.25530  1.0000
  H   H3570     1.0  0.47893  0.91854  0.24628  1.0000
  C   C2988     1.0  0.52221  0.97229  0.38841  1.0000
  H   H3571     1.0  0.41764  0.93737  0.29756  1.0000
  S   S794      1.0  0.39549  0.96217  0.29449  1.0000
  H   H3572     1.0  0.50688  0.93936  0.25479  1.0000
  H   H3573     1.0  0.40459  0.95355  0.39710  1.0000
  S   S795      1.0  0.41154  0.95937  0.26461  1.0000
  C   C2989     1.0  0.43217  0.94122  0.24796  1.0000
  C   C2990     1.0  0.53038  0.98339  0.47548  1.0000
  S   S796      1.0  0.51147  0.96170  0.43632  1.0000
  C   C2991     1.0  0.43946  0.93866  0.29282  1.0000
  N   N203      1.0  0.45614  0.97903  0.33659  1.0000
  H   H3574     1.0  0.52824  0.94560  0.24034  1.0000
  H   H3575     1.0  0.45305  0.95368  0.24385  1.0000
  H   H3576     1.0  0.43290  0.92375  0.29965  1.0000
  C   C2992     1.0  0.45645  0.96861  0.34506  1.0000
  H   H3577     1.0  0.54648  0.91865  0.42140  1.0000
  H   H3578     1.0  0.46107  0.92918  0.34997  1.0000
  H   H3579     1.0  0.54240  0.93986  0.44838  1.0000
  H   H3580     1.0  0.44974  0.91104  0.29412  1.0000
  H   H3581     1.0  0.50693  0.93195  0.43342  1.0000
  C   C2993     1.0  0.40796  0.98122  0.30558  1.0000
  C   C2994     1.0  0.45018  0.95154  0.32432  1.0000
  H   H3582     1.0  0.55225  0.91415  0.43832  1.0000
  H   H3583     1.0  0.51425  0.92202  0.41835  1.0000
  S   S797      1.0  0.40403  0.97909  0.24416  1.0000
  S   S798      1.0  0.43239  0.97725  0.24934  1.0000
  C   C2995     1.0  0.57842  0.98536  0.46918  1.0000
  Fe  Fe390     1.0  0.41412  0.98328  0.36179  1.0000
  H   H3584     1.0  0.43419  0.94864  0.30946  1.0000
  H   H3585     1.0  0.51879  0.93582  0.44233  1.0000
  H   H3586     1.0  0.40742  0.97938  0.28979  1.0000
  H   H3587     1.0  0.43160  0.92728  0.40349  1.0000
  C   C2996     1.0  0.51560  0.92891  0.43101  1.0000
  C   C2997     1.0  0.44605  0.97561  0.27831  1.0000
  H   H3588     1.0  0.44099  0.97699  0.38679  1.0000
  C   C2998     1.0  0.55986  0.98340  0.47611  1.0000
  C   C2999     1.0  0.43609  0.97088  0.38788  1.0000
  C   C3000     1.0  0.42939  0.95497  0.39963  1.0000
  C   C3001     1.0  0.45229  0.96997  0.27012  1.0000
  C   C3002     1.0  0.43277  0.93489  0.25851  1.0000
  H   H3589     1.0  0.39125  0.95877  0.31798  1.0000
  H   H3590     1.0  0.43927  0.98537  0.34317  1.0000
  H   H3591     1.0  0.47294  0.95368  0.23983  1.0000
  C   C3003     1.0  0.48308  0.92522  0.25756  1.0000
  C   C3004     1.0  0.48327  0.93471  0.26047  1.0000
  C   C3005     1.0  0.47942  0.94502  0.25418  1.0000
  H   H3592     1.0  0.48601  0.91724  0.26241  1.0000
  H   H3593     1.0  0.47945  0.95238  0.25646  1.0000
  H   H3594     1.0  0.43745  0.93157  0.35369  1.0000
  H   H3595     1.0  0.45047  0.96956  0.35287  1.0000
  H   H3596     1.0  0.42711  0.92960  0.26274  1.0000
  C   C3006     1.0  0.44266  0.92737  0.34706  1.0000
  N   N204      1.0  0.51269  0.98161  0.38793  1.0000
  H   H3597     1.0  0.55177  0.98406  0.47533  1.0000
  S   S799      1.0  0.39834  0.95024  0.24661  1.0000
  Fe  Fe391     1.0  0.52584  0.96755  0.43698  1.0000
  H   H3598     1.0  0.44120  0.93027  0.27162  1.0000
  C   C3007     1.0  0.53085  0.91963  0.41920  1.0000
  H   H3599     1.0  0.42983  0.97264  0.31675  1.0000
  H   H3600     1.0  0.45451  0.96216  0.34231  1.0000
  C   C3008     1.0  0.47910  0.92595  0.24841  1.0000
  H   H3601     1.0  0.44708  0.95285  0.40840  1.0000
  C   C3009     1.0  0.40483  0.97787  0.31704  1.0000
  C   C3010     1.0  0.39885  0.96971  0.32149  1.0000
  C   C3011     1.0  0.47580  0.94574  0.24472  1.0000
  C   C3012     1.0  0.39886  0.96859  0.30301  1.0000
  C   C3013     1.0  0.40493  0.97668  0.29859  1.0000
  H   H3602     1.0  0.57947  0.94616  0.45779  1.0000
  H   H3603     1.0  0.44897  0.98576  0.35618  1.0000
  H   H3604     1.0  0.53399  0.91528  0.41256  1.0000
  N   N205      1.0  0.43553  0.96323  0.39881  1.0000
  C   C3014     1.0  0.39591  0.96506  0.31449  1.0000
  C   C3015     1.0  0.51053  0.95770  0.42477  1.0000
  C   C3016     1.0  0.50031  0.95758  0.42358  1.0000
  C   C3017     1.0  0.49928  0.95393  0.41478  1.0000
  C   C3018     1.0  0.50852  0.95004  0.40728  1.0000
  C   C3019     1.0  0.51876  0.94999  0.40857  1.0000
  C   C3020     1.0  0.51976  0.95405  0.41712  1.0000
  H   H3605     1.0  0.49313  0.96032  0.42952  1.0000
  H   H3606     1.0  0.49136  0.95394  0.41391  1.0000
  H   H3607     1.0  0.52594  0.94685  0.40289  1.0000
  H   H3608     1.0  0.52767  0.95397  0.41803  1.0000
  C   C3021     1.0  0.45239  0.93658  0.37947  1.0000
  C   C3022     1.0  0.44814  0.94716  0.37395  1.0000
  C   C3023     1.0  0.43837  0.94936  0.37050  1.0000
  C   C3024     1.0  0.43308  0.94086  0.37217  1.0000
  C   C3025     1.0  0.43774  0.93018  0.37706  1.0000
  C   C3026     1.0  0.44727  0.92808  0.38078  1.0000
  H   H3609     1.0  0.45230  0.95363  0.37253  1.0000
  H   H3610     1.0  0.43492  0.95760  0.36657  1.0000
  H   H3611     1.0  0.43378  0.92355  0.37829  1.0000
  H   H3612     1.0  0.45054  0.91986  0.38494  1.0000
  C   C3027     1.0  0.48973  0.96045  0.34135  1.0000
  C   C3028     1.0  0.49231  0.96345  0.32985  1.0000
  C   C3029     1.0  0.49006  0.95752  0.32358  1.0000
  C   C3030     1.0  0.48526  0.94855  0.32880  1.0000
  C   C3031     1.0  0.48302  0.94531  0.34028  1.0000
  C   C3032     1.0  0.48515  0.95132  0.34655  1.0000
  H   H3613     1.0  0.49598  0.97039  0.32577  1.0000
  H   H3614     1.0  0.49205  0.95990  0.31471  1.0000
  H   H3615     1.0  0.47962  0.93817  0.34437  1.0000
  S   S800      1.0  0.54227  0.96533  0.42562  1.0000
  Fe  Fe392     1.0  0.54855  0.96224  0.44089  1.0000
  C   C3033     1.0  0.44499  0.96149  0.31856  1.0000
  C   C3034     1.0  0.53639  0.93776  0.44518  1.0000
  H   H3616     1.0  0.50431  0.97549  0.40451  1.0000
  H   H3617     1.0  0.45125  0.96478  0.39938  1.0000
  C   C3035     1.0  0.43938  0.94831  0.24217  1.0000
  Fe  Fe393     1.0  0.54071  0.98304  0.42521  1.0000
  H   H3618     1.0  0.41460  0.96693  0.39660  1.0000
  H   H3619     1.0  0.46141  0.91934  0.33567  1.0000
  C   C3036     1.0  0.51151  0.96967  0.24734  1.0000
  C   C3037     1.0  0.42640  0.95399  0.28539  1.0000
  C   C3038     1.0  0.57613  0.96325  0.43329  1.0000
  S   S801      1.0  0.56276  0.94947  0.44598  1.0000
  C   C3039     1.0  0.44682  0.95837  0.40017  1.0000
  H   H3620     1.0  0.46200  0.98342  0.31897  1.0000
  C   C3040     1.0  0.44918  0.94213  0.28698  1.0000
  H   H3621     1.0  0.41274  0.94823  0.30458  1.0000
  C   C3041     1.0  0.45871  0.93466  0.28377  1.0000
  C   C3042     1.0  0.45892  0.92350  0.28635  1.0000
  H   H3622     1.0  0.42529  0.94908  0.28021  1.0000
  H   H3623     1.0  0.41873  0.96017  0.28709  1.0000
  H   H3624     1.0  0.43263  0.95869  0.28035  1.0000
  H   H3625     1.0  0.43982  0.96642  0.38116  1.0000
  C   C3043     1.0  0.53402  0.92775  0.43265  1.0000
  H   H3626     1.0  0.49578  0.98497  0.39580  1.0000
  H   H3627     1.0  0.43694  0.95903  0.29725  1.0000
  H   H3628     1.0  0.54571  0.94272  0.42311  1.0000
  N   N206      1.0  0.42940  0.94686  0.29566  1.0000
  H   H3629     1.0  0.44948  0.95070  0.28480  1.0000
  C   C3044     1.0  0.44485  0.98376  0.33532  1.0000
  H   H3630     1.0  0.46600  0.93756  0.27927  1.0000
  H   H3631     1.0  0.50009  0.95267  0.25711  1.0000
  S   S802      1.0  0.54855  0.97977  0.43929  1.0000
  H   H3632     1.0  0.46263  0.94140  0.33971  1.0000
  C   C3045     1.0  0.51971  0.92331  0.42251  1.0000
  H   H3633     1.0  0.46033  0.96523  0.27065  1.0000
  C   C3046     1.0  0.58046  0.98049  0.47968  1.0000
  H   H3634     1.0  0.46640  0.91777  0.28384  1.0000
  H   H3635     1.0  0.42761  0.94391  0.34229  1.0000
  C   C3047     1.0  0.43386  0.94349  0.40178  1.0000
  C   C3048     1.0  0.44062  0.93532  0.26354  1.0000
  H   H3636     1.0  0.51417  0.94740  0.25781  1.0000
  C   C3049     1.0  0.42007  0.94189  0.30226  1.0000
  S   S803      1.0  0.52388  0.98556  0.43552  1.0000
  N   N207      1.0  0.51128  0.95268  0.24135  1.0000
  H   H3637     1.0  0.45286  0.92594  0.32596  1.0000
  C   C3050     1.0  0.43111  0.95377  0.30210  1.0000
  C   C3051     1.0  0.54749  0.91996  0.44369  1.0000
  C   C3052     1.0  0.43990  0.92719  0.29532  1.0000
  H   H3638     1.0  0.58136  0.98351  0.44760  1.0000
  H   H3639     1.0  0.45289  0.96602  0.25492  1.0000
  C   C3053     1.0  0.51053  0.98405  0.37677  1.0000
  H   H3640     1.0  0.46462  0.96538  0.34698  1.0000
  H   H3641     1.0  0.42348  0.95958  0.30494  1.0000
  C   C3054     1.0  0.43282  0.94838  0.33560  1.0000
  C   C3055     1.0  0.44426  0.94461  0.33298  1.0000
  H   H3642     1.0  0.46028  0.96972  0.32398  1.0000
  H   H3643     1.0  0.45152  0.95362  0.39377  1.0000
  H   H3644     1.0  0.50114  0.98626  0.32406  1.0000
  C   C3056     1.0  0.43756  0.97641  0.26058  1.0000
  S   S804      1.0  0.50450  0.97593  0.27466  1.0000
  C   C3057     1.0  0.46276  0.97626  0.32601  1.0000
  H   H3645     1.0  0.43736  0.92530  0.34298  1.0000
  N   N208      1.0  0.54172  0.93027  0.43750  1.0000
  H   H3646     1.0  0.41299  0.93376  0.40036  1.0000
  H   H3647     1.0  0.54169  0.91568  0.45036  1.0000
  H   H3648     1.0  0.55500  0.93866  0.43208  1.0000
  N   N209      1.0  0.45001  0.93421  0.33907  1.0000
  H   H3649     1.0  0.57088  0.96560  0.42757  1.0000
  H   H3650     1.0  0.44969  0.96663  0.31197  1.0000
  H   H3651     1.0  0.42180  0.93635  0.31010  1.0000
  H   H3652     1.0  0.52955  0.97460  0.38245  1.0000
  H   H3653     1.0  0.44722  0.91952  0.35134  1.0000
  H   H3654     1.0  0.42798  0.97552  0.38647  1.0000
  C   C3058     1.0  0.54979  0.93560  0.42869  1.0000
  H   H3655     1.0  0.53529  0.96771  0.47105  1.0000
  H   H3656     1.0  0.52082  0.96501  0.38649  1.0000
  C   C3059     1.0  0.44804  0.97037  0.26125  1.0000
  C   C3060     1.0  0.57407  0.95537  0.44299  1.0000
  C   C3061     1.0  0.44954  0.91975  0.29214  1.0000
  H   H3657     1.0  0.55545  0.92993  0.42356  1.0000
  S   S805      1.0  0.46178  0.98330  0.39392  1.0000
  C   C3062     1.0  0.52259  0.93112  0.43605  1.0000
  C   C3063     1.0  0.53417  0.97202  0.47739  1.0000
  H   H3658     1.0  0.46405  0.93129  0.32582  1.0000
  C   C3064     1.0  0.45653  0.93675  0.34525  1.0000
  H   H3659     1.0  0.41898  0.96104  0.33185  1.0000
  H   H3660     1.0  0.45131  0.94177  0.35124  1.0000
  H   H3661     1.0  0.47144  0.97322  0.32630  1.0000
  H   H3662     1.0  0.53078  0.93402  0.45252  1.0000
  H   H3663     1.0  0.55165  0.98645  0.45765  1.0000
  H   H3664     1.0  0.43466  0.97564  0.40728  1.0000
  H   H3665     1.0  0.55329  0.92157  0.44755  1.0000
  H   H3666     1.0  0.45891  0.94939  0.32198  1.0000
  H   H3667     1.0  0.52412  0.96947  0.39665  1.0000
  H   H3668     1.0  0.42182  0.97446  0.40630  1.0000
  C   C3065     1.0  0.53792  0.92171  0.42424  1.0000
  Fe  Fe394     1.0  0.53185  0.98073  0.44982  1.0000
  H   H3669     1.0  0.39635  0.96708  0.33032  1.0000
  C   C3066     1.0  0.43379  0.96489  0.32125  1.0000
  H   H3670     1.0  0.50125  0.97110  0.39417  1.0000
  H   H3671     1.0  0.44205  0.94006  0.40286  1.0000
  C   C3067     1.0  0.42772  0.95831  0.32970  1.0000
  C   C3068     1.0  0.42790  0.93597  0.40219  1.0000
  H   H3672     1.0  0.42903  0.96413  0.41573  1.0000
  H   H3673     1.0  0.50928  0.97672  0.37488  1.0000
  Fe  Fe395     1.0  0.41509  0.97575  0.25555  1.0000
  C   C3069     1.0  0.50311  0.97816  0.39595  1.0000
  C   C3070     1.0  0.41742  0.93960  0.40043  1.0000
  H   H3674     1.0  0.47240  0.98663  0.37136  1.0000
  H   H3675     1.0  0.51769  0.98205  0.40698  1.0000
  H   H3676     1.0  0.48855  0.98028  0.23785  1.0000
  H   H3677     1.0  0.41000  0.93254  0.23626  1.0000
  C   C3071     1.0  0.51294  0.96399  0.23897  1.0000
  H   H3678     1.0  0.57050  0.97641  0.45160  1.0000
  H   H3679     1.0  0.56470  0.98562  0.41697  1.0000
  H   H3680     1.0  0.45402  0.94243  0.26195  1.0000
  S   S806      1.0  0.40821  0.98442  0.32541  1.0000
  C   C3072     1.0  0.44720  0.94863  0.24761  1.0000
  H   H3681     1.0  0.49506  0.95842  0.23872  1.0000
  C   C3073     1.0  0.50272  0.95262  0.23602  1.0000
  C   C3074     1.0  0.51331  0.98030  0.24476  1.0000
  H   H3682     1.0  0.43069  0.98592  0.28400  1.0000
  H   H3683     1.0  0.52066  0.93670  0.23894  1.0000
  H   H3684     1.0  0.42646  0.96833  0.23573  1.0000
  H   H3685     1.0  0.42133  0.95749  0.23492  1.0000
  C   C3075     1.0  0.52147  0.94538  0.23690  1.0000
  C   C3076     1.0  0.43553  0.98149  0.27772  1.0000
  H   H3686     1.0  0.44170  0.97822  0.33246  1.0000
  C   C3077     1.0  0.43132  0.98195  0.26883  1.0000
  C   C3078     1.0  0.47565  0.93618  0.24183  1.0000
  S   S807      1.0  0.40306  0.98483  0.26770  1.0000
  H   H3687     1.0  0.57632  0.95310  0.47572  1.0000
  H   H3688     1.0  0.51737  0.98677  0.37027  1.0000
  C   C3079     1.0  0.57250  0.98467  0.44850  1.0000
  H   H3689     1.0  0.50088  0.94432  0.23804  1.0000
  C   C3080     1.0  0.58519  0.96787  0.43078  1.0000
  H   H3690     1.0  0.51224  0.98444  0.25129  1.0000
  H   H3691     1.0  0.45263  0.98465  0.24164  1.0000
  C   C3081     1.0  0.56800  0.98710  0.46710  1.0000
  Fe  Fe396     1.0  0.39150  0.98675  0.25714  1.0000
  H   H3692     1.0  0.42338  0.98692  0.26822  1.0000
  H   H3693     1.0  0.48856  0.98712  0.29089  1.0000
  C   C3082     1.0  0.45999  0.98695  0.34002  1.0000
  C   C3083     1.0  0.57660  0.95150  0.48431  1.0000
  C   C3084     1.0  0.42315  0.95641  0.69901  1.0000
  H   H3694     1.0  0.40182  0.97381  0.63400  1.0000
  H   H3695     1.0  0.49088  0.97332  0.65943  1.0000
  S   S808      1.0  0.53250  0.96672  0.56291  1.0000
  H   H3696     1.0  0.43568  0.96038  0.60734  1.0000
  C   C3085     1.0  0.57229  0.97701  0.48832  1.0000
  H   H3697     1.0  0.46694  0.98406  0.64976  1.0000
  H   H3698     1.0  0.42530  0.93167  0.66078  1.0000
  H   H3699     1.0  0.43265  0.97157  0.57701  1.0000
  H   H3700     1.0  0.49308  0.98727  0.66728  1.0000
  H   H3701     1.0  0.55981  0.94978  0.50956  1.0000
  S   S809      1.0  0.40630  0.95785  0.59254  1.0000
  H   H3702     1.0  0.49415  0.97571  0.63926  1.0000
  C   C3086     1.0  0.41409  0.96495  0.59582  1.0000
  C   C3087     1.0  0.57714  0.94783  0.50641  1.0000
  H   H3703     1.0  0.42459  0.95032  0.60284  1.0000
  H   H3704     1.0  0.45075  0.96390  0.67720  1.0000
  C   C3088     1.0  0.46464  0.92761  0.65309  1.0000
  C   C3089     1.0  0.56732  0.94963  0.50336  1.0000
  C   C3090     1.0  0.43658  0.93387  0.63974  1.0000
  C   C3091     1.0  0.49655  0.96580  0.57535  1.0000
  S   S810      1.0  0.48297  0.94463  0.69726  1.0000
  C   C3092     1.0  0.41825  0.98208  0.59550  1.0000
  H   H3705     1.0  0.42579  0.95280  0.69186  1.0000
  S   S811      1.0  0.50020  0.96709  0.68286  1.0000
  S   S812      1.0  0.45692  0.95334  0.69831  1.0000
  S   S813      1.0  0.45356  0.97016  0.62491  1.0000
  C   C3093     1.0  0.41477  0.96569  0.69925  1.0000
  Fe  Fe397     1.0  0.53862  0.97135  0.54455  1.0000
  C   C3094     1.0  0.46461  0.93764  0.64551  1.0000
  Fe  Fe398     1.0  0.46847  0.95284  0.70826  1.0000
  S   S814      1.0  0.57823  0.96748  0.52346  1.0000
  S   S815      1.0  0.41801  0.96622  0.66556  1.0000
  H   H3706     1.0  0.51620  0.96710  0.55171  1.0000
  H   H3707     1.0  0.56961  0.94027  0.57025  1.0000
  N   N210      1.0  0.56773  0.95777  0.56381  1.0000
  H   H3708     1.0  0.43234  0.92714  0.64115  1.0000
  H   H3709     1.0  0.44535  0.94286  0.71894  1.0000
  Fe  Fe399     1.0  0.54076  0.97196  0.52040  1.0000
  S   S816      1.0  0.53810  0.96371  0.50862  1.0000
  H   H3710     1.0  0.56138  0.96849  0.57527  1.0000
  H   H3711     1.0  0.40522  0.98086  0.58924  1.0000
  C   C3095     1.0  0.50147  0.96644  0.56418  1.0000
  H   H3712     1.0  0.57669  0.94677  0.51506  1.0000
  H   H3713     1.0  0.46649  0.91852  0.66931  1.0000
  C   C3096     1.0  0.43903  0.97131  0.56931  1.0000
  C   C3097     1.0  0.56507  0.94818  0.57257  1.0000
  C   C3098     1.0  0.46933  0.98006  0.72442  1.0000
  H   H3714     1.0  0.43849  0.97994  0.56455  1.0000
  H   H3715     1.0  0.46591  0.95440  0.64279  1.0000
  C   C3099     1.0  0.39811  0.95145  0.63739  1.0000
  N   N211      1.0  0.43006  0.95175  0.72691  1.0000
  C   C3100     1.0  0.46777  0.93523  0.66670  1.0000
  C   C3101     1.0  0.41642  0.96589  0.71725  1.0000
  N   N212      1.0  0.42958  0.94279  0.64528  1.0000
  H   H3716     1.0  0.43948  0.95729  0.66926  1.0000
  H   H3717     1.0  0.42941  0.96754  0.72980  1.0000
  H   H3718     1.0  0.51841  0.96573  0.58444  1.0000
  S   S817      1.0  0.46271  0.93861  0.63234  1.0000
  S   S818      1.0  0.45944  0.95818  0.60415  1.0000
  C   C3102     1.0  0.42494  0.95637  0.71734  1.0000
  C   C3103     1.0  0.46184  0.93810  0.58766  1.0000
  H   H3719     1.0  0.43936  0.93681  0.63073  1.0000
  C   C3104     1.0  0.50839  0.98049  0.73337  1.0000
  H   H3720     1.0  0.55635  0.95794  0.55460  1.0000
  H   H3721     1.0  0.49680  0.96653  0.55851  1.0000
  Fe  Fe400     1.0  0.56009  0.97329  0.52772  1.0000
  C   C3105     1.0  0.42280  0.95919  0.60082  1.0000
  H   H3722     1.0  0.39024  0.95323  0.63541  1.0000
  H   H3723     1.0  0.46861  0.95228  0.66157  1.0000
  C   C3106     1.0  0.49856  0.96197  0.71643  1.0000
  C   C3107     1.0  0.44228  0.94914  0.58151  1.0000
  C   C3108     1.0  0.46593  0.94661  0.64860  1.0000
  H   H3724     1.0  0.44418  0.93013  0.64278  1.0000
  C   C3109     1.0  0.53157  0.98297  0.49401  1.0000
  S   S819      1.0  0.47427  0.96316  0.67636  1.0000
  H   H3725     1.0  0.45692  0.96095  0.55648  1.0000
  Fe  Fe401     1.0  0.47156  0.94669  0.68640  1.0000
  H   H3726     1.0  0.40894  0.94664  0.65938  1.0000
  C   C3110     1.0  0.43653  0.96516  0.67157  1.0000
  C   C3111     1.0  0.46747  0.94541  0.65924  1.0000
  C   C3112     1.0  0.39885  0.95006  0.64821  1.0000
  C   C3113     1.0  0.42824  0.95180  0.70786  1.0000
  C   C3114     1.0  0.51246  0.96681  0.56030  1.0000
  C   C3115     1.0  0.43908  0.97895  0.67930  1.0000
  S   S820      1.0  0.47942  0.96060  0.61331  1.0000
  C   C3116     1.0  0.46626  0.92640  0.66360  1.0000
  S   S821      1.0  0.46449  0.98239  0.60019  1.0000
  C   C3117     1.0  0.45796  0.96648  0.56110  1.0000
  C   C3118     1.0  0.40897  0.94748  0.65086  1.0000
  H   H3727     1.0  0.56704  0.94821  0.58035  1.0000
  H   H3728     1.0  0.56198  0.97534  0.56092  1.0000
  H   H3729     1.0  0.46364  0.92065  0.65077  1.0000
  Fe  Fe402     1.0  0.46399  0.95458  0.62039  1.0000
  Fe  Fe403     1.0  0.45038  0.97441  0.60802  1.0000
  H   H3730     1.0  0.43445  0.95288  0.57952  1.0000
  H   H3731     1.0  0.51680  0.97809  0.72860  1.0000
  C   C3119     1.0  0.43531  0.95992  0.72810  1.0000
  H   H3732     1.0  0.56777  0.96381  0.54664  1.0000
  S   S822      1.0  0.55175  0.98377  0.51432  1.0000
  C   C3120     1.0  0.42936  0.93871  0.65722  1.0000
  Fe  Fe404     1.0  0.48433  0.96184  0.68822  1.0000
  C   C3121     1.0  0.43460  0.95245  0.64130  1.0000
  C   C3122     1.0  0.41872  0.94601  0.64270  1.0000
  C   C3123     1.0  0.41765  0.94803  0.63168  1.0000
  C   C3124     1.0  0.42909  0.96488  0.60334  1.0000
  C   C3125     1.0  0.40748  0.95057  0.62912  1.0000
  H   H3733     1.0  0.49436  0.97679  0.72201  1.0000
  H   H3734     1.0  0.43696  0.96680  0.56433  1.0000
  H   H3735     1.0  0.42946  0.95939  0.64510  1.0000
  H   H3736     1.0  0.44264  0.95054  0.64341  1.0000
  H   H3737     1.0  0.42525  0.94523  0.66190  1.0000
  S   S823      1.0  0.48275  0.96525  0.57981  1.0000
  Fe  Fe405     1.0  0.47393  0.96586  0.59734  1.0000
  S   S824      1.0  0.47021  0.93295  0.67992  1.0000
  H   H3738     1.0  0.43590  0.95538  0.63222  1.0000
  H   H3739     1.0  0.45407  0.92457  0.59577  1.0000
  H   H3740     1.0  0.43768  0.93592  0.65884  1.0000
  H   H3741     1.0  0.42468  0.94754  0.62497  1.0000
  C   C3126     1.0  0.51013  0.94656  0.72580  1.0000
  H   H3742     1.0  0.40684  0.95177  0.62069  1.0000
  S   S825      1.0  0.54984  0.96081  0.53310  1.0000
  H   H3743     1.0  0.45085  0.98191  0.57360  1.0000
  S   S826      1.0  0.38974  0.96485  0.68423  1.0000
  C   C3127     1.0  0.41149  0.97049  0.70830  1.0000
  S   S827      1.0  0.46264  0.94902  0.72661  1.0000
  C   C3128     1.0  0.44347  0.93837  0.58776  1.0000
  C   C3129     1.0  0.50949  0.97778  0.69185  1.0000
  C   C3130     1.0  0.43844  0.94148  0.72602  1.0000
  C   C3131     1.0  0.42627  0.97142  0.67035  1.0000
  S   S828      1.0  0.44688  0.98358  0.68522  1.0000
  H   H3744     1.0  0.55629  0.94814  0.57437  1.0000
  Fe  Fe406     1.0  0.46862  0.97652  0.61675  1.0000
  C   C3132     1.0  0.48154  0.94123  0.73417  1.0000
  H   H3745     1.0  0.51653  0.98584  0.69963  1.0000
  H   H3746     1.0  0.41345  0.96979  0.72417  1.0000
  H   H3747     1.0  0.41083  0.96917  0.69239  1.0000
  C   C3133     1.0  0.56046  0.96781  0.56725  1.0000
  H   H3748     1.0  0.45722  0.97489  0.55579  1.0000
  H   H3749     1.0  0.40495  0.97770  0.70848  1.0000
  S   S829      1.0  0.52856  0.98140  0.53235  1.0000
  C   C3134     1.0  0.53508  0.97154  0.49597  1.0000
  C   C3135     1.0  0.49870  0.96833  0.72342  1.0000
  H   H3750     1.0  0.45155  0.98557  0.64435  1.0000
  S   S830      1.0  0.39016  0.97644  0.65809  1.0000
  C   C3136     1.0  0.51369  0.96596  0.57876  1.0000
  C   C3137     1.0  0.44289  0.96887  0.67616  1.0000
  S   S831      1.0  0.47066  0.96986  0.70011  1.0000
  S   S832      1.0  0.54984  0.98274  0.54037  1.0000
  H   H3751     1.0  0.49893  0.96521  0.59126  1.0000
  C   C3138     1.0  0.49325  0.98068  0.65402  1.0000
  Fe  Fe407     1.0  0.38882  0.96702  0.59425  1.0000
  H   H3752     1.0  0.48445  0.93631  0.72802  1.0000
  C   C3139     1.0  0.57939  0.95763  0.56188  1.0000
  C   C3140     1.0  0.45090  0.95476  0.57821  1.0000
  Fe  Fe408     1.0  0.46049  0.96962  0.68914  1.0000
  C   C3141     1.0  0.56706  0.95133  0.49236  1.0000
  C   C3142     1.0  0.41181  0.97640  0.59325  1.0000
  N   N213      1.0  0.44993  0.96621  0.57173  1.0000
  H   H3753     1.0  0.41492  0.98670  0.67187  1.0000
  C   C3143     1.0  0.45215  0.97310  0.57785  1.0000
  C   C3144     1.0  0.58317  0.96583  0.56410  1.0000
  C   C3145     1.0  0.51863  0.96648  0.56759  1.0000
  H   H3754     1.0  0.43674  0.93431  0.59027  1.0000
  C   C3146     1.0  0.42264  0.98166  0.67315  1.0000
  H   H3755     1.0  0.55571  0.97558  0.49324  1.0000
  C   C3147     1.0  0.50266  0.96567  0.58263  1.0000
  H   H3756     1.0  0.39151  0.95087  0.65461  1.0000
  H   H3757     1.0  0.57392  0.97307  0.49641  1.0000
  H   H3758     1.0  0.46645  0.96382  0.56223  1.0000
  Fe  Fe409     1.0  0.40038  0.97390  0.67004  1.0000
  H   H3759     1.0  0.40106  0.97628  0.61995  1.0000
  H   H3760     1.0  0.58514  0.94239  0.55600  1.0000
  C   C3148     1.0  0.42679  0.97636  0.60071  1.0000
  H   H3761     1.0  0.38766  0.96325  0.70751  1.0000
  C   C3149     1.0  0.56518  0.95717  0.55361  1.0000
  C   C3150     1.0  0.50434  0.95115  0.71753  1.0000
  H   H3762     1.0  0.57349  0.98406  0.53638  1.0000
  H   H3763     1.0  0.43478  0.94471  0.70703  1.0000
  H   H3764     1.0  0.57779  0.97276  0.56720  1.0000
  S   S833      1.0  0.43434  0.98380  0.60389  1.0000
  H   H3765     1.0  0.46063  0.97066  0.57889  1.0000
  H   H3766     1.0  0.46562  0.97529  0.72116  1.0000
  C   C3151     1.0  0.49523  0.98194  0.64268  1.0000
  C   C3152     1.0  0.46075  0.94885  0.58138  1.0000
  H   H3767     1.0  0.53907  0.95727  0.48910  1.0000
  H   H3768     1.0  0.53055  0.98721  0.50042  1.0000
  C   C3153     1.0  0.45321  0.93288  0.59086  1.0000
  C   C3154     1.0  0.51005  0.95273  0.73308  1.0000
  H   H3769     1.0  0.46763  0.98623  0.66249  1.0000
  H   H3770     1.0  0.44147  0.96222  0.72052  1.0000
  H   H3771     1.0  0.42089  0.98658  0.65092  1.0000
  H   H3772     1.0  0.48895  0.98062  0.60629  1.0000
  H   H3773     1.0  0.50426  0.94629  0.71201  1.0000
  C   C3155     1.0  0.53637  0.96611  0.48763  1.0000
  C   C3156     1.0  0.49050  0.98507  0.69184  1.0000
  H   H3774     1.0  0.44683  0.97247  0.58620  1.0000
  H   H3775     1.0  0.51446  0.93805  0.72676  1.0000
  H   H3776     1.0  0.51691  0.97184  0.68981  1.0000
  C   C3157     1.0  0.39019  0.95889  0.72400  1.0000
  H   H3777     1.0  0.41476  0.97933  0.63914  1.0000
  H   H3778     1.0  0.46769  0.95254  0.57916  1.0000
  C   C3158     1.0  0.40422  0.97894  0.62566  1.0000
  H   H3779     1.0  0.56923  0.94927  0.55108  1.0000
  H   H3780     1.0  0.45554  0.98349  0.66134  1.0000
  C   C3159     1.0  0.38665  0.96615  0.71480  1.0000
  H   H3781     1.0  0.55177  0.96776  0.56840  1.0000
  H   H3782     1.0  0.46941  0.93386  0.59013  1.0000
  H   H3783     1.0  0.44802  0.98125  0.73124  1.0000
  C   C3160     1.0  0.58210  0.98064  0.53474  1.0000
  C   C3161     1.0  0.50435  0.96387  0.73207  1.0000
  H   H3784     1.0  0.41320  0.97696  0.62290  1.0000
  H   H3785     1.0  0.49400  0.96542  0.71004  1.0000
  C   C3162     1.0  0.56201  0.97848  0.48654  1.0000
  H   H3786     1.0  0.47322  0.97416  0.73099  1.0000
  H   H3787     1.0  0.47588  0.98300  0.71764  1.0000
  C   C3163     1.0  0.47148  0.94854  0.73471  1.0000
  C   C3164     1.0  0.50007  0.97740  0.68917  1.0000
  H   H3788     1.0  0.43502  0.93491  0.72523  1.0000
  C   C3165     1.0  0.50925  0.98563  0.69749  1.0000
  H   H3789     1.0  0.50353  0.98598  0.72740  1.0000
  H   H3790     1.0  0.44211  0.93823  0.73336  1.0000
  C   C3166     1.0  0.38885  0.96257  0.73356  1.0000
  H   H3791     1.0  0.55939  0.95278  0.49008  1.0000
  C   C3167     1.0  0.42908  0.98546  0.67752  1.0000
  H   H3792     1.0  0.39390  0.95040  0.72375  1.0000
  H   H3793     1.0  0.48331  0.98508  0.68944  1.0000
  C   C3168     1.0  0.39031  0.74369  0.93534  1.0000
  S   S834      1.0  0.44772  0.97355  0.79074  1.0000
  Fe  Fe410     1.0  0.39646  0.87376  0.94487  1.0000
  C   C3169     1.0  0.49257  0.97433  0.74528  1.0000
  S   S835      1.0  0.48167  0.97231  0.88507  1.0000
  S   S836      1.0  0.50444  0.96634  0.86708  1.0000
  H   H3794     1.0  0.46502  0.68256  0.97000  1.0000
  Fe  Fe411     1.0  0.49059  0.95831  0.87680  1.0000
  S   S837      1.0  0.49283  0.93997  0.88364  1.0000
  Fe  Fe412     1.0  0.39481  0.78112  0.93909  1.0000
  S   S838      1.0  0.48173  0.96445  0.86314  1.0000
  C   C3170     1.0  0.46015  0.76008  0.92494  1.0000
  S   S839      1.0  0.40026  0.97723  0.75144  1.0000
  Fe  Fe413     1.0  0.48478  0.95313  0.79728  1.0000
  S   S840      1.0  0.47592  0.97062  0.79576  1.0000
  S   S841      1.0  0.48850  0.94507  0.81388  1.0000
  Fe  Fe414     1.0  0.48442  0.95262  0.77412  1.0000
  C   C3171     1.0  0.46676  0.68330  0.90127  1.0000
  S   S842      1.0  0.49096  0.94321  0.76057  1.0000
  H   H3795     1.0  0.48931  0.67600  0.91223  1.0000
  Fe  Fe415     1.0  0.46542  0.96592  0.78786  1.0000
  H   H3796     1.0  0.39427  0.86721  0.97329  1.0000
  H   H3797     1.0  0.43122  0.89386  0.95352  1.0000
  S   S843      1.0  0.47338  0.94802  0.79062  1.0000
  Fe  Fe416     1.0  0.46841  0.61438  0.95586  1.0000
  S   S844      1.0  0.47610  0.60191  0.94553  1.0000
  C   C3172     1.0  0.49419  0.85142  0.97833  1.0000
  Fe  Fe417     1.0  0.46603  0.63344  0.93659  1.0000
  S   S845      1.0  0.47362  0.62278  0.92427  1.0000
  S   S846      1.0  0.45850  0.65158  0.93335  1.0000
  Fe  Fe418     1.0  0.46356  0.61105  0.93565  1.0000
  S   S847      1.0  0.45816  0.60067  0.92783  1.0000
  Fe  Fe419     1.0  0.48566  0.61430  0.93491  1.0000
  S   S848      1.0  0.50328  0.60887  0.92707  1.0000
  S   S849      1.0  0.45483  0.62240  0.94705  1.0000
  S   S850      1.0  0.47902  0.62613  0.94608  1.0000
  S   S851      1.0  0.41222  0.59082  0.93328  1.0000
  H   H3798     1.0  0.56756  0.50631  0.98189  1.0000
  C   C3173     1.0  0.42902  0.65855  0.93695  1.0000
  H   H3799     1.0  0.42132  0.97492  0.79893  1.0000
  H   H3800     1.0  0.49124  0.66172  0.93486  1.0000
  S   S852      1.0  0.41061  0.87771  0.94790  1.0000
  H   H3801     1.0  0.44537  0.93536  0.75522  1.0000
  H   H3802     1.0  0.41056  0.66450  0.92134  1.0000
  C   C3174     1.0  0.48081  0.69255  0.90725  1.0000
  Fe  Fe420     1.0  0.45946  0.72146  0.93012  1.0000
  S   S853      1.0  0.44702  0.72870  0.91993  1.0000
  C   C3175     1.0  0.44552  0.96519  0.76412  1.0000
  S   S854      1.0  0.47681  0.71637  0.92200  1.0000
  H   H3803     1.0  0.45853  0.70061  0.89669  1.0000
  H   H3804     1.0  0.50959  0.97015  0.75395  1.0000
  Fe  Fe421     1.0  0.41392  0.96882  0.75980  1.0000
  H   H3805     1.0  0.45775  0.74714  0.97039  1.0000
  H   H3806     1.0  0.47723  0.66779  0.90745  1.0000
  Fe  Fe422     1.0  0.46495  0.80883  0.94595  1.0000
  S   S855      1.0  0.47847  0.80162  0.93344  1.0000
  S   S856      1.0  0.44803  0.81248  0.94390  1.0000
  H   H3807     1.0  0.49919  0.85667  0.97239  1.0000
  H   H3808     1.0  0.43462  0.62031  0.91499  1.0000
  Fe  Fe423     1.0  0.48701  0.81333  0.93580  1.0000
  S   S857      1.0  0.49638  0.82461  0.92254  1.0000
  S   S858      1.0  0.40216  0.94561  0.79633  1.0000
  S   S859      1.0  0.47292  0.82139  0.94720  1.0000
  Fe  Fe424     1.0  0.48180  0.90298  0.94225  1.0000
  S   S860      1.0  0.47654  0.89081  0.93668  1.0000
  S   S861      1.0  0.48074  0.92111  0.93508  1.0000
  Fe  Fe425     1.0  0.48645  0.88699  0.96351  1.0000
  S   S862      1.0  0.48180  0.87328  0.95986  1.0000
  H   H3809     1.0  0.43603  0.92394  0.79785  1.0000
  Fe  Fe426     1.0  0.49074  0.87864  0.94257  1.0000
  S   S863      1.0  0.50313  0.86670  0.93323  1.0000
  Fe  Fe427     1.0  0.46811  0.88630  0.95437  1.0000
  S   S864      1.0  0.45120  0.88402  0.96018  1.0000
  S   S865      1.0  0.49682  0.89122  0.94667  1.0000
  S   S866      1.0  0.47188  0.89955  0.95947  1.0000
  Fe  Fe428     1.0  0.41514  0.88362  0.92971  1.0000
  S   S867      1.0  0.43289  0.87958  0.92230  1.0000
  Fe  Fe429     1.0  0.54157  0.55271  0.94180  1.0000
  S   S868      1.0  0.55795  0.55029  0.94515  1.0000
  S   S869      1.0  0.52699  0.56281  0.95126  1.0000
  Fe  Fe430     1.0  0.54973  0.53643  0.92694  1.0000
  S   S870      1.0  0.56670  0.53231  0.92941  1.0000
  S   S871      1.0  0.54605  0.53090  0.91371  1.0000
  Fe  Fe431     1.0  0.55880  0.53243  0.94705  1.0000
  S   S872      1.0  0.56572  0.52151  0.96130  1.0000
  Fe  Fe432     1.0  0.56451  0.55038  0.92737  1.0000
  H   H3810     1.0  0.55824  0.49889  0.90609  1.0000
  S   S873      1.0  0.54195  0.53473  0.94490  1.0000
  S   S874      1.0  0.54802  0.55468  0.92362  1.0000
  S   S875      1.0  0.49660  0.95615  0.78105  1.0000
  H   H3811     1.0  0.42119  0.73197  0.93652  1.0000
  Fe  Fe433     1.0  0.49474  0.97362  0.85409  1.0000
  H   H3812     1.0  0.54658  0.53806  0.96539  1.0000
  H   H3813     1.0  0.53271  0.50772  0.89947  1.0000
  C   C3176     1.0  0.54009  0.51981  0.91550  1.0000
  H   H3814     1.0  0.49510  0.93375  0.74193  1.0000
  Fe  Fe434     1.0  0.40779  0.95103  0.86661  1.0000
  C   C3177     1.0  0.53421  0.50894  0.90677  1.0000
  C   C3178     1.0  0.53788  0.51822  0.90622  1.0000
  C   C3179     1.0  0.41747  0.73440  0.94458  1.0000
  H   H3815     1.0  0.42572  0.66589  0.94064  1.0000
  H   H3816     1.0  0.53922  0.52408  0.89847  1.0000
  H   H3817     1.0  0.45393  0.97801  0.74272  1.0000
  C   C3180     1.0  0.42474  0.64613  0.92811  1.0000
  H   H3818     1.0  0.41544  0.63033  0.91712  1.0000
  H   H3819     1.0  0.44534  0.69133  0.89936  1.0000
  C   C3181     1.0  0.44678  0.88332  0.94899  1.0000
  C   C3182     1.0  0.43633  0.88883  0.94787  1.0000
  C   C3183     1.0  0.43242  0.88805  0.93930  1.0000
  C   C3184     1.0  0.43881  0.88162  0.93186  1.0000
  C   C3185     1.0  0.44947  0.87640  0.93265  1.0000
  C   C3186     1.0  0.45350  0.87729  0.94123  1.0000
  C   C3187     1.0  0.47212  0.69934  0.90285  1.0000
  H   H3820     1.0  0.42439  0.89251  0.93851  1.0000
  H   H3821     1.0  0.45453  0.87154  0.92682  1.0000
  H   H3822     1.0  0.46167  0.87312  0.94201  1.0000
  C   C3188     1.0  0.49765  0.83644  0.92582  1.0000
  C   C3189     1.0  0.50766  0.83943  0.92205  1.0000
  C   C3190     1.0  0.50909  0.84875  0.92436  1.0000
  C   C3191     1.0  0.50048  0.85537  0.93028  1.0000
  C   C3192     1.0  0.49032  0.85260  0.93390  1.0000
  C   C3193     1.0  0.48892  0.84308  0.93171  1.0000
  H   H3823     1.0  0.51439  0.83447  0.91737  1.0000
  H   H3824     1.0  0.51694  0.85087  0.92148  1.0000
  H   H3825     1.0  0.48358  0.85776  0.93834  1.0000
  H   H3826     1.0  0.48107  0.84104  0.93438  1.0000
  C   C3194     1.0  0.39315  0.93791  0.85917  1.0000
  C   C3195     1.0  0.39299  0.93183  0.89136  1.0000
  C   C3196     1.0  0.43661  0.80206  0.93724  1.0000
  C   C3197     1.0  0.44555  0.80091  0.94150  1.0000
  C   C3198     1.0  0.47568  0.67664  0.90581  1.0000
  H   H3827     1.0  0.47058  0.95796  0.75699  1.0000
  H   H3828     1.0  0.45799  0.77661  0.96544  1.0000
  H   H3829     1.0  0.43148  0.80999  0.93499  1.0000
  S   S876      1.0  0.40884  0.78878  0.92953  1.0000
  S   S877      1.0  0.41205  0.93330  0.87558  1.0000
  C   C3199     1.0  0.44262  0.71810  0.91793  1.0000
  C   C3200     1.0  0.43308  0.72039  0.91424  1.0000
  C   C3201     1.0  0.42892  0.71176  0.91381  1.0000
  C   C3202     1.0  0.45906  0.93354  0.76188  1.0000
  H   H3830     1.0  0.40437  0.65340  0.94001  1.0000
  C   C3203     1.0  0.44829  0.70727  0.92062  1.0000
  H   H3831     1.0  0.42866  0.72878  0.91217  1.0000
  H   H3832     1.0  0.42126  0.71351  0.91146  1.0000
  H   H3833     1.0  0.48777  0.61166  0.96440  1.0000
  H   H3834     1.0  0.45578  0.70549  0.92326  1.0000
  S   S878      1.0  0.48896  0.73937  0.92461  1.0000
  C   C3204     1.0  0.40773  0.91584  0.89211  1.0000
  H   H3835     1.0  0.41755  0.85458  0.95849  1.0000
  C   C3205     1.0  0.43192  0.62751  0.91852  1.0000
  C   C3206     1.0  0.48795  0.75183  0.95032  1.0000
  C   C3207     1.0  0.48794  0.74464  0.94403  1.0000
  C   C3208     1.0  0.44027  0.94270  0.79946  1.0000
  S   S879      1.0  0.39275  0.95324  0.74520  1.0000
  H   H3836     1.0  0.48828  0.74874  0.95888  1.0000
  H   H3837     1.0  0.48820  0.73605  0.94776  1.0000
  H   H3838     1.0  0.44848  0.66739  0.90657  1.0000
  H   H3839     1.0  0.47654  0.76338  0.90705  1.0000
  H   H3840     1.0  0.49312  0.83496  0.95269  1.0000
  C   C3209     1.0  0.51011  0.59630  0.93396  1.0000
  C   C3210     1.0  0.50561  0.59154  0.94477  1.0000
  C   C3211     1.0  0.51086  0.58124  0.94995  1.0000
  C   C3212     1.0  0.52065  0.57565  0.94439  1.0000
  C   C3213     1.0  0.52522  0.58042  0.93362  1.0000
  C   C3214     1.0  0.51996  0.59075  0.92843  1.0000
  H   H3841     1.0  0.49810  0.59582  0.94914  1.0000
  H   H3842     1.0  0.50726  0.57752  0.95824  1.0000
  H   H3843     1.0  0.53277  0.57616  0.92927  1.0000
  H   H3844     1.0  0.52345  0.59438  0.92005  1.0000
  H   H3845     1.0  0.42379  0.66737  0.91746  1.0000
  H   H3846     1.0  0.45400  0.69184  0.88578  1.0000
  H   H3847     1.0  0.53853  0.59117  0.96554  1.0000
  C   C3215     1.0  0.48265  0.68124  0.90860  1.0000
  H   H3848     1.0  0.53945  0.58764  0.94371  1.0000
  C   C3216     1.0  0.44514  0.59812  0.93025  1.0000
  C   C3217     1.0  0.44425  0.58985  0.92585  1.0000
  C   C3218     1.0  0.43413  0.58769  0.92698  1.0000
  C   C3219     1.0  0.42470  0.59397  0.93227  1.0000
  C   C3220     1.0  0.42553  0.60227  0.93676  1.0000
  C   C3221     1.0  0.43578  0.60422  0.93593  1.0000
  H   H3849     1.0  0.45142  0.58510  0.92145  1.0000
  H   H3850     1.0  0.43359  0.58125  0.92353  1.0000
  H   H3851     1.0  0.41832  0.60715  0.94089  1.0000
  H   H3852     1.0  0.43640  0.61064  0.93936  1.0000
  C   C3222     1.0  0.46586  0.66045  0.93460  1.0000
  C   C3223     1.0  0.46062  0.67130  0.93523  1.0000
  C   C3224     1.0  0.46639  0.67874  0.93560  1.0000
  C   C3225     1.0  0.47747  0.67535  0.93544  1.0000
  C   C3226     1.0  0.48267  0.66443  0.93503  1.0000
  C   C3227     1.0  0.47691  0.65702  0.93456  1.0000
  H   H3853     1.0  0.45205  0.67395  0.93542  1.0000
  H   H3854     1.0  0.46229  0.68713  0.93584  1.0000
  S   S880      1.0  0.38819  0.97002  0.83563  1.0000
  H   H3855     1.0  0.48109  0.64871  0.93396  1.0000
  C   C3228     1.0  0.43434  0.70089  0.91700  1.0000
  H   H3856     1.0  0.42411  0.93300  0.80375  1.0000
  H   H3857     1.0  0.44833  0.69032  0.92268  1.0000
  H   H3858     1.0  0.47119  0.93246  0.77043  1.0000
  S   S881      1.0  0.38679  0.70417  0.95162  1.0000
  C   C3229     1.0  0.54901  0.54586  0.97674  1.0000
  Fe  Fe435     1.0  0.42096  0.96693  0.85025  1.0000
  H   H3859     1.0  0.45646  0.96002  0.77502  1.0000
  C   C3230     1.0  0.55394  0.57267  0.96284  1.0000
  H   H3860     1.0  0.45006  0.67548  0.91489  1.0000
  C   C3231     1.0  0.54634  0.50186  0.97397  1.0000
  S   S882      1.0  0.39196  0.96331  0.86579  1.0000
  H   H3861     1.0  0.45377  0.75585  0.93064  1.0000
  S   S883      1.0  0.41414  0.95384  0.84826  1.0000
  C   C3232     1.0  0.45508  0.93655  0.78029  1.0000
  C   C3233     1.0  0.48929  0.93484  0.89795  1.0000
  C   C3234     1.0  0.49029  0.92349  0.90205  1.0000
  C   C3235     1.0  0.48765  0.91915  0.91343  1.0000
  C   C3236     1.0  0.48400  0.92617  0.92075  1.0000
  C   C3237     1.0  0.48289  0.93752  0.91664  1.0000
  C   C3238     1.0  0.48552  0.94186  0.90527  1.0000
  H   H3862     1.0  0.49322  0.91802  0.89643  1.0000
  H   H3863     1.0  0.48852  0.91039  0.91654  1.0000
  H   H3864     1.0  0.48004  0.94299  0.92227  1.0000
  H   H3865     1.0  0.48474  0.95060  0.90219  1.0000
  C   C3239     1.0  0.49804  0.96724  0.82950  1.0000
  C   C3240     1.0  0.50500  0.96362  0.82027  1.0000
  C   C3241     1.0  0.50189  0.95718  0.81516  1.0000
  C   C3242     1.0  0.49176  0.95445  0.81919  1.0000
  C   C3243     1.0  0.48455  0.95863  0.82801  1.0000
  C   C3244     1.0  0.48769  0.96498  0.83319  1.0000
  C   C3245     1.0  0.54630  0.49819  0.96484  1.0000
  H   H3866     1.0  0.50748  0.95401  0.80831  1.0000
  H   H3867     1.0  0.47655  0.95689  0.83089  1.0000
  H   H3868     1.0  0.48211  0.96806  0.84007  1.0000
  H   H3869     1.0  0.40423  0.95008  0.83185  1.0000
  C   C3246     1.0  0.50597  0.90877  0.97916  1.0000
  C   C3247     1.0  0.51888  0.57737  0.97770  1.0000
  H   H3870     1.0  0.41702  0.94372  0.73621  1.0000
  H   H3871     1.0  0.57019  0.50262  0.89652  1.0000
  H   H3872     1.0  0.51436  0.94851  0.73954  1.0000
  C   C3248     1.0  0.46521  0.69485  0.89983  1.0000
  N   N214      1.0  0.43080  0.91940  0.90872  1.0000
  C   C3249     1.0  0.42042  0.92447  0.91537  1.0000
  C   C3250     1.0  0.43152  0.92569  0.89716  1.0000
  C   C3251     1.0  0.43048  0.90803  0.90899  1.0000
  C   C3252     1.0  0.43995  0.91914  0.91337  1.0000
  C   C3253     1.0  0.44033  0.91349  0.92438  1.0000
  C   C3254     1.0  0.44880  0.92410  0.90719  1.0000
  C   C3255     1.0  0.44908  0.91267  0.92885  1.0000
  C   C3256     1.0  0.45747  0.92332  0.91180  1.0000
  C   C3257     1.0  0.45762  0.91758  0.92258  1.0000
  H   H3873     1.0  0.42046  0.93291  0.91571  1.0000
  H   H3874     1.0  0.41339  0.92502  0.91191  1.0000
  H   H3875     1.0  0.41868  0.91967  0.92397  1.0000
  H   H3876     1.0  0.43155  0.93443  0.89637  1.0000
  H   H3877     1.0  0.42446  0.92582  0.89397  1.0000
  H   H3878     1.0  0.43885  0.92199  0.89154  1.0000
  H   H3879     1.0  0.42896  0.90303  0.91750  1.0000
  H   H3880     1.0  0.42390  0.90780  0.90533  1.0000
  H   H3881     1.0  0.43828  0.90370  0.90449  1.0000
  H   H3882     1.0  0.43391  0.90955  0.92959  1.0000
  H   H3883     1.0  0.44927  0.92858  0.89878  1.0000
  H   H3884     1.0  0.44927  0.90811  0.93722  1.0000
  H   H3885     1.0  0.46419  0.92712  0.90700  1.0000
  H   H3886     1.0  0.46438  0.91692  0.92609  1.0000
  N   N215      1.0  0.48899  0.57885  0.92249  1.0000
  C   C3258     1.0  0.49144  0.58949  0.92189  1.0000
  C   C3259     1.0  0.48284  0.58068  0.91392  1.0000
  C   C3260     1.0  0.48181  0.57558  0.93334  1.0000
  C   C3261     1.0  0.49917  0.57037  0.92126  1.0000
  C   C3262     1.0  0.50592  0.56771  0.92885  1.0000
  C   C3263     1.0  0.50267  0.56449  0.91270  1.0000
  C   C3264     1.0  0.51549  0.55964  0.92799  1.0000
  C   C3265     1.0  0.51230  0.55646  0.91190  1.0000
  C   C3266     1.0  0.51869  0.55403  0.91953  1.0000
  H   H3887     1.0  0.49752  0.59189  0.91428  1.0000
  H   H3888     1.0  0.48407  0.59626  0.92205  1.0000
  H   H3889     1.0  0.49473  0.58924  0.92894  1.0000
  H   H3890     1.0  0.48762  0.58359  0.90556  1.0000
  H   H3891     1.0  0.47524  0.58710  0.91511  1.0000
  H   H3892     1.0  0.48033  0.57311  0.91416  1.0000
  H   H3893     1.0  0.48535  0.57516  0.94030  1.0000
  H   H3894     1.0  0.47389  0.58157  0.93441  1.0000
  H   H3895     1.0  0.48012  0.56740  0.93433  1.0000
  H   H3896     1.0  0.50386  0.57188  0.93553  1.0000
  H   H3897     1.0  0.49814  0.56594  0.90651  1.0000
  H   H3898     1.0  0.52049  0.55772  0.93391  1.0000
  H   H3899     1.0  0.51487  0.55205  0.90533  1.0000
  H   H3900     1.0  0.52615  0.54780  0.91887  1.0000
  N   N216      1.0  0.49212  0.93141  0.85314  1.0000
  C   C3267     1.0  0.49371  0.92204  0.86261  1.0000
  C   C3268     1.0  0.49700  0.92721  0.84291  1.0000
  C   C3269     1.0  0.49822  0.93946  0.85300  1.0000
  C   C3270     1.0  0.48044  0.93662  0.85431  1.0000
  C   C3271     1.0  0.47456  0.93765  0.84629  1.0000
  C   C3272     1.0  0.47457  0.94089  0.86374  1.0000
  C   C3273     1.0  0.46357  0.94278  0.84763  1.0000
  C   C3274     1.0  0.46361  0.94605  0.86497  1.0000
  C   C3275     1.0  0.45811  0.94696  0.85694  1.0000
  H   H3901     1.0  0.48876  0.91607  0.86342  1.0000
  H   H3902     1.0  0.50234  0.91759  0.86177  1.0000
  H   H3903     1.0  0.49143  0.92471  0.87053  1.0000
  H   H3904     1.0  0.49298  0.92090  0.84255  1.0000
  H   H3905     1.0  0.50575  0.92333  0.84227  1.0000
  H   H3906     1.0  0.49648  0.93396  0.83544  1.0000
  H   H3907     1.0  0.49567  0.94244  0.86074  1.0000
  H   H3908     1.0  0.50707  0.93590  0.85196  1.0000
  H   H3909     1.0  0.49709  0.94676  0.84618  1.0000
  H   H3910     1.0  0.47830  0.93487  0.83872  1.0000
  H   H3911     1.0  0.47849  0.94045  0.87018  1.0000
  H   H3912     1.0  0.45929  0.94377  0.84128  1.0000
  H   H3913     1.0  0.44963  0.95106  0.85784  1.0000
  C   C3276     1.0  0.44924  0.76595  0.91137  1.0000
  S   S884      1.0  0.40610  0.90085  0.92997  1.0000
  Fe  Fe436     1.0  0.47976  0.80819  0.96019  1.0000
  C   C3277     1.0  0.46597  0.67151  0.89015  1.0000
  C   C3278     1.0  0.45074  0.68628  0.89348  1.0000
  H   H3914     1.0  0.46075  0.66788  0.88740  1.0000
  S   S885      1.0  0.50243  0.97471  0.83613  1.0000
  C   C3279     1.0  0.44416  0.69867  0.92014  1.0000
  C   C3280     1.0  0.45444  0.67093  0.90827  1.0000
  H   H3915     1.0  0.47208  0.66450  0.89353  1.0000
  H   H3916     1.0  0.40920  0.94038  0.81664  1.0000
  S   S886      1.0  0.40821  0.68460  0.94662  1.0000
  H   H3917     1.0  0.46046  0.66391  0.91171  1.0000
  H   H3918     1.0  0.45840  0.93672  0.78691  1.0000
  C   C3281     1.0  0.57108  0.58518  0.92645  1.0000
  C   C3282     1.0  0.58409  0.56301  0.97029  1.0000
  H   H3919     1.0  0.44540  0.68220  0.89144  1.0000
  C   C3283     1.0  0.38928  0.66360  0.92344  1.0000
  N   N217      1.0  0.45955  0.67820  0.89832  1.0000
  H   H3920     1.0  0.47039  0.67657  0.88276  1.0000
  Fe  Fe437     1.0  0.40414  0.69988  0.95284  1.0000
  H   H3921     1.0  0.48602  0.69602  0.90983  1.0000
  C   C3284     1.0  0.40023  0.95336  0.82505  1.0000
  H   H3922     1.0  0.45940  0.94953  0.87209  1.0000
  H   H3923     1.0  0.39902  0.83377  0.96321  1.0000
  C   C3285     1.0  0.50239  0.91654  0.97003  1.0000
  C   C3286     1.0  0.53473  0.50277  0.92603  1.0000
  H   H3924     1.0  0.41781  0.56495  0.96281  1.0000
  S   S887      1.0  0.40194  0.81893  0.93125  1.0000
  C   C3287     1.0  0.43626  0.61358  0.97010  1.0000
  H   H3925     1.0  0.43050  0.79032  0.91175  1.0000
  C   C3288     1.0  0.43337  0.60689  0.96515  1.0000
  C   C3289     1.0  0.41535  0.61823  0.96667  1.0000
  C   C3290     1.0  0.42291  0.60917  0.96352  1.0000
  C   C3291     1.0  0.47440  0.61696  0.97713  1.0000
  Fe  Fe438     1.0  0.40189  0.80126  0.94004  1.0000
  H   H3926     1.0  0.45895  0.97203  0.84032  1.0000
  H   H3927     1.0  0.43476  0.74211  0.93416  1.0000
  C   C3292     1.0  0.48828  0.74842  0.93279  1.0000
  C   C3293     1.0  0.39449  0.90474  0.97144  1.0000
  C   C3294     1.0  0.42425  0.89794  0.97667  1.0000
  H   H3928     1.0  0.40841  0.66132  0.94658  1.0000
  C   C3295     1.0  0.55340  0.48858  0.96243  1.0000
  H   H3929     1.0  0.38773  0.55170  0.97975  1.0000
  C   C3296     1.0  0.44205  0.80996  0.97457  1.0000
  H   H3930     1.0  0.43930  0.59993  0.96251  1.0000
  C   C3297     1.0  0.39874  0.83558  0.95464  1.0000
  H   H3931     1.0  0.42066  0.60391  0.95977  1.0000
  N   N218      1.0  0.43173  0.84332  0.92467  1.0000
  C   C3298     1.0  0.42837  0.84078  0.91584  1.0000
  C   C3299     1.0  0.42802  0.83592  0.93522  1.0000
  C   C3300     1.0  0.42596  0.85471  0.92556  1.0000
  C   C3301     1.0  0.44368  0.84159  0.92233  1.0000
  C   C3302     1.0  0.45034  0.83133  0.92052  1.0000
  C   C3303     1.0  0.44905  0.84972  0.92224  1.0000
  C   C3304     1.0  0.46161  0.82933  0.91871  1.0000
  C   C3305     1.0  0.46034  0.84764  0.92038  1.0000
  C   C3306     1.0  0.46661  0.83747  0.91862  1.0000
  H   H3932     1.0  0.43124  0.83198  0.91544  1.0000
  H   H3933     1.0  0.41938  0.84243  0.91719  1.0000
  H   H3934     1.0  0.43151  0.84576  0.90766  1.0000
  H   H3935     1.0  0.43079  0.82721  0.93469  1.0000
  H   H3936     1.0  0.41905  0.83750  0.93783  1.0000
  H   H3937     1.0  0.43125  0.83674  0.94188  1.0000
  H   H3938     1.0  0.42745  0.85701  0.93254  1.0000
  H   H3939     1.0  0.42841  0.86074  0.91786  1.0000
  H   H3940     1.0  0.41703  0.85578  0.92708  1.0000
  H   H3941     1.0  0.44686  0.82460  0.92089  1.0000
  H   H3942     1.0  0.44472  0.85774  0.92359  1.0000
  H   H3943     1.0  0.46650  0.82135  0.91754  1.0000
  H   H3944     1.0  0.46429  0.85394  0.92031  1.0000
  H   H3945     1.0  0.47536  0.83587  0.91724  1.0000
  C   C3307     1.0  0.41760  0.64230  0.92441  1.0000
  C   C3308     1.0  0.50499  0.84527  0.95784  1.0000
  S   S888      1.0  0.40873  0.69971  0.96818  1.0000
  C   C3309     1.0  0.48782  0.76294  0.94554  1.0000
  S   S889      1.0  0.42799  0.69022  0.91872  1.0000
  H   H3946     1.0  0.40813  0.58409  0.95721  1.0000
  C   C3310     1.0  0.42475  0.84816  0.95934  1.0000
  S   S890      1.0  0.40524  0.97291  0.77609  1.0000
  S   S891      1.0  0.40972  0.71063  0.93662  1.0000
  N   N219      1.0  0.42072  0.65594  0.93297  1.0000
  H   H3947     1.0  0.51179  0.84555  0.96116  1.0000
  H   H3948     1.0  0.50868  0.84236  0.95003  1.0000
  H   H3949     1.0  0.50033  0.85379  0.95541  1.0000
  Fe  Fe439     1.0  0.47993  0.72570  0.93258  1.0000
  H   H3950     1.0  0.39671  0.71944  0.95678  1.0000
  S   S892      1.0  0.46243  0.73173  0.93968  1.0000
  H   H3951     1.0  0.45931  0.78957  0.94715  1.0000
  H   H3952     1.0  0.39183  0.59202  0.96931  1.0000
  Fe  Fe440     1.0  0.49481  0.98094  0.87425  1.0000
  C   C3311     1.0  0.48753  0.93976  0.74207  1.0000
  Fe  Fe441     1.0  0.47701  0.70210  0.93657  1.0000
  C   C3312     1.0  0.40140  0.91016  0.90135  1.0000
  C   C3313     1.0  0.44016  0.98159  0.86637  1.0000
  H   H3953     1.0  0.54491  0.57301  0.94690  1.0000
  H   H3954     1.0  0.46437  0.74941  0.90270  1.0000
  C   C3314     1.0  0.57859  0.58866  0.93970  1.0000
  H   H3955     1.0  0.43390  0.94491  0.80668  1.0000
  H   H3956     1.0  0.56921  0.58726  0.95608  1.0000
  S   S893      1.0  0.48797  0.77153  0.95382  1.0000
  H   H3957     1.0  0.41587  0.91177  0.88876  1.0000
  H   H3958     1.0  0.39745  0.74680  0.97827  1.0000
  H   H3959     1.0  0.41269  0.72821  0.94973  1.0000
  H   H3960     1.0  0.53990  0.51344  0.93274  1.0000
  H   H3961     1.0  0.39813  0.81610  0.97465  1.0000
  Fe  Fe442     1.0  0.39272  0.71362  0.93474  1.0000
  H   H3962     1.0  0.51439  0.90193  0.94961  1.0000
  C   C3315     1.0  0.44046  0.93812  0.77172  1.0000
  S   S894      1.0  0.45930  0.70661  0.94399  1.0000
  H   H3963     1.0  0.48751  0.97964  0.73948  1.0000
  C   C3316     1.0  0.44803  0.93563  0.76228  1.0000
  H   H3964     1.0  0.43201  0.93944  0.77171  1.0000
  S   S895      1.0  0.48516  0.68453  0.93544  1.0000
  C   C3317     1.0  0.44939  0.96592  0.77280  1.0000
  C   C3318     1.0  0.48362  0.94577  0.75035  1.0000
  H   H3965     1.0  0.41363  0.67315  0.92797  1.0000
  H   H3966     1.0  0.40917  0.64639  0.92507  1.0000
  H   H3967     1.0  0.42265  0.90676  0.97685  1.0000
  C   C3319     1.0  0.54618  0.59211  0.95931  1.0000
  H   H3968     1.0  0.40722  0.62000  0.96535  1.0000
  C   C3320     1.0  0.41701  0.66562  0.92459  1.0000
  H   H3969     1.0  0.43594  0.66059  0.93011  1.0000
  H   H3970     1.0  0.46493  0.93163  0.75455  1.0000
  H   H3971     1.0  0.42701  0.79388  0.93286  1.0000
  H   H3972     1.0  0.54182  0.55228  0.97605  1.0000
  S   S896      1.0  0.47525  0.97000  0.77079  1.0000
  H   H3973     1.0  0.44834  0.62850  0.96879  1.0000
  S   S897      1.0  0.46549  0.61091  0.97426  1.0000
  H   H3974     1.0  0.41773  0.89700  0.97337  1.0000
  C   C3321     1.0  0.55177  0.53783  0.97062  1.0000
  C   C3322     1.0  0.48829  0.75953  0.92795  1.0000
  H   H3975     1.0  0.40466  0.90176  0.90508  1.0000
  C   C3323     1.0  0.47376  0.95340  0.75058  1.0000
  H   H3976     1.0  0.47059  0.70814  0.90203  1.0000
  C   C3324     1.0  0.42114  0.63312  0.91975  1.0000
  Fe  Fe443     1.0  0.39551  0.96099  0.75735  1.0000
  Fe  Fe444     1.0  0.46424  0.71638  0.95269  1.0000
  S   S898      1.0  0.41003  0.95228  0.76453  1.0000
  H   H3977     1.0  0.48872  0.76247  0.91923  1.0000
  H   H3978     1.0  0.48788  0.77536  0.93056  1.0000
  Fe  Fe445     1.0  0.48651  0.97322  0.77886  1.0000
  S   S899      1.0  0.48211  0.71081  0.94640  1.0000
  H   H3979     1.0  0.42937  0.71759  0.95681  1.0000
  C   C3325     1.0  0.53831  0.51220  0.92551  1.0000
  C   C3326     1.0  0.43398  0.79284  0.93611  1.0000
  C   C3327     1.0  0.48784  0.76683  0.93435  1.0000
  Fe  Fe446     1.0  0.48423  0.78998  0.94812  1.0000
  Fe  Fe447     1.0  0.39677  0.60365  0.93576  1.0000
  C   C3328     1.0  0.42875  0.62285  0.97350  1.0000
  C   C3329     1.0  0.45790  0.97829  0.85440  1.0000
  H   H3980     1.0  0.39580  0.75526  0.94059  1.0000
  S   S900      1.0  0.49445  0.80080  0.94901  1.0000
  C   C3330     1.0  0.45219  0.79049  0.94415  1.0000
  C   C3331     1.0  0.49237  0.77900  0.97763  1.0000
  C   C3332     1.0  0.47818  0.66326  0.97626  1.0000
  C   C3333     1.0  0.54222  0.58058  0.95021  1.0000
  H   H3981     1.0  0.45197  0.84325  0.94969  1.0000
  Fe  Fe448     1.0  0.39135  0.68971  0.94384  1.0000
  S   S901      1.0  0.47000  0.79662  0.96047  1.0000
  S   S902      1.0  0.38938  0.78100  0.97850  1.0000
  H   H3982     1.0  0.55786  0.56526  0.95932  1.0000
  C   C3334     1.0  0.53284  0.50107  0.91658  1.0000
  H   H3983     1.0  0.48430  0.84628  0.95842  1.0000
  H   H3984     1.0  0.43656  0.72159  0.94292  1.0000
  C   C3335     1.0  0.43995  0.78236  0.93970  1.0000
  H   H3985     1.0  0.54676  0.57073  0.96933  1.0000
  C   C3336     1.0  0.43917  0.63101  0.92205  1.0000
  C   C3337     1.0  0.48002  0.72867  0.97399  1.0000
  C   C3338     1.0  0.43401  0.78196  0.91080  1.0000
  C   C3339     1.0  0.48949  0.83794  0.96044  1.0000
  H   H3986     1.0  0.38828  0.56238  0.96062  1.0000
  H   H3987     1.0  0.50909  0.82402  0.96036  1.0000
  N   N220      1.0  0.49795  0.83812  0.96583  1.0000
  S   S903      1.0  0.39617  0.61817  0.94202  1.0000
  C   C3340     1.0  0.56460  0.49832  0.92437  1.0000
  S   S904      1.0  0.43463  0.77106  0.94090  1.0000
  H   H3988     1.0  0.39329  0.98605  0.81475  1.0000
  H   H3989     1.0  0.46632  0.97861  0.85220  1.0000
  C   C3341     1.0  0.43343  0.72409  0.95096  1.0000
  S   S905      1.0  0.41592  0.96307  0.86859  1.0000
  H   H3990     1.0  0.43013  0.86095  0.97147  1.0000
  H   H3991     1.0  0.49761  0.91375  0.94660  1.0000
  N   N221      1.0  0.55089  0.58243  0.95424  1.0000
  C   C3342     1.0  0.56510  0.50283  0.90492  1.0000
  C   C3343     1.0  0.44090  0.63477  0.97090  1.0000
  C   C3344     1.0  0.43161  0.74348  0.94265  1.0000
  S   S906      1.0  0.52912  0.48908  0.91659  1.0000
  H   H3992     1.0  0.44064  0.72399  0.95381  1.0000
  H   H3993     1.0  0.55169  0.59341  0.96368  1.0000
  N   N222      1.0  0.50544  0.91440  0.95883  1.0000
  C   C3345     1.0  0.43570  0.64019  0.92677  1.0000
  S   S907      1.0  0.40643  0.98022  0.84756  1.0000
  H   H3994     1.0  0.43863  0.74378  0.94560  1.0000
  C   C3346     1.0  0.49557  0.91533  0.95502  1.0000
  C   C3347     1.0  0.51217  0.58778  0.97587  1.0000
  H   H3995     1.0  0.49241  0.78662  0.97991  1.0000
  H   H3996     1.0  0.47594  0.72493  0.96077  1.0000
  C   C3348     1.0  0.56136  0.52987  0.97088  1.0000
  H   H3997     1.0  0.45981  0.96004  0.74328  1.0000
  S   S908      1.0  0.57816  0.55832  0.91677  1.0000
  S   S909      1.0  0.43072  0.97078  0.75143  1.0000
  H   H3998     1.0  0.49931  0.75831  0.97809  1.0000
  C   C3349     1.0  0.56061  0.58424  0.94548  1.0000
  H   H3999     1.0  0.50644  0.93108  0.95032  1.0000
  C   C3350     1.0  0.56772  0.52930  0.97811  1.0000
  C   C3351     1.0  0.41147  0.65425  0.94246  1.0000
  H   H4000     1.0  0.42616  0.75179  0.94205  1.0000
  C   C3352     1.0  0.50475  0.82688  0.96809  1.0000
  N   N223      1.0  0.42579  0.73495  0.94997  1.0000
  H   H4001     1.0  0.39521  0.73645  0.93950  1.0000
  C   C3353     1.0  0.46257  0.93400  0.77085  1.0000
  C   C3354     1.0  0.40359  0.92669  0.88712  1.0000
  H   H4002     1.0  0.43220  0.65165  0.94332  1.0000
  C   C3355     1.0  0.45116  0.98160  0.86387  1.0000
  H   H4003     1.0  0.41190  0.74250  0.94274  1.0000
  C   C3356     1.0  0.46767  0.95462  0.74285  1.0000
  C   C3357     1.0  0.44932  0.78116  0.94335  1.0000
  S   S910      1.0  0.45605  0.71722  0.97017  1.0000
  C   C3358     1.0  0.47046  0.81597  0.98374  1.0000
  Fe  Fe449     1.0  0.41682  0.77864  0.94333  1.0000
  H   H4004     1.0  0.51296  0.96547  0.81729  1.0000
  H   H4005     1.0  0.49014  0.92361  0.95451  1.0000
  C   C3359     1.0  0.44374  0.93879  0.78098  1.0000
  S   S911      1.0  0.41083  0.79161  0.95323  1.0000
  Fe  Fe450     1.0  0.41233  0.69558  0.93011  1.0000
  C   C3360     1.0  0.42434  0.74111  0.97737  1.0000
  H   H4006     1.0  0.41571  0.83669  0.97028  1.0000
  H   H4007     1.0  0.48889  0.96714  0.74967  1.0000
  H   H4008     1.0  0.41902  0.71443  0.98327  1.0000
  H   H4009     1.0  0.45410  0.77309  0.94591  1.0000
  H   H4010     1.0  0.44587  0.93510  0.80275  1.0000
  S   S912      1.0  0.40349  0.90388  0.95874  1.0000
  H   H4011     1.0  0.42345  0.80555  0.97604  1.0000
  H   H4012     1.0  0.44705  0.83532  0.98247  1.0000
  H   H4013     1.0  0.43705  0.73573  0.96453  1.0000
  C   C3361     1.0  0.41051  0.56831  0.96827  1.0000
  C   C3362     1.0  0.42788  0.77610  0.90845  1.0000
  C   C3363     1.0  0.57940  0.58793  0.92901  1.0000
  C   C3364     1.0  0.42314  0.63889  0.98221  1.0000
  C   C3365     1.0  0.48492  0.61640  0.97069  1.0000
  C   C3366     1.0  0.47889  0.90358  0.98448  1.0000
  H   H4014     1.0  0.44944  0.95859  0.75993  1.0000
  Fe  Fe451     1.0  0.40086  0.97577  0.86584  1.0000
  H   H4015     1.0  0.54062  0.50275  0.95968  1.0000
  C   C3367     1.0  0.45972  0.77150  0.97346  1.0000
  C   C3368     1.0  0.51015  0.96482  0.74833  1.0000
  C   C3369     1.0  0.51148  0.92260  0.95113  1.0000
  C   C3370     1.0  0.42064  0.77123  0.97893  1.0000
  H   H4016     1.0  0.42735  0.97881  0.86115  1.0000
  H   H4017     1.0  0.44472  0.94950  0.79608  1.0000
  H   H4018     1.0  0.51090  0.82654  0.97261  1.0000
  S   S913      1.0  0.39581  0.69946  0.92668  1.0000
  H   H4019     1.0  0.51421  0.92101  0.94267  1.0000
  C   C3371     1.0  0.39799  0.84029  0.93252  1.0000
  H   H4020     1.0  0.42547  0.93085  0.79047  1.0000
  C   C3372     1.0  0.48414  0.67918  0.97663  1.0000
  N   N224      1.0  0.43559  0.94112  0.79101  1.0000
  S   S914      1.0  0.38885  0.64399  0.91976  1.0000
  C   C3373     1.0  0.49128  0.67070  0.96093  1.0000
  C   C3374     1.0  0.42736  0.76652  0.97032  1.0000
  H   H4021     1.0  0.51875  0.92247  0.95393  1.0000
  H   H4022     1.0  0.44752  0.62646  0.92124  1.0000
  C   C3375     1.0  0.43010  0.93181  0.79598  1.0000
  H   H4023     1.0  0.51887  0.57130  0.97343  1.0000
  H   H4024     1.0  0.53494  0.57939  0.95690  1.0000
  H   H4025     1.0  0.42129  0.95331  0.79569  1.0000
  H   H4026     1.0  0.53338  0.49688  0.93373  1.0000
  C   C3376     1.0  0.46246  0.82405  0.97913  1.0000
  H   H4027     1.0  0.49193  0.97914  0.75140  1.0000
  H   H4028     1.0  0.51890  0.96205  0.74474  1.0000
  C   C3377     1.0  0.43425  0.98097  0.77647  1.0000
  H   H4029     1.0  0.48409  0.83240  0.96566  1.0000
  H   H4030     1.0  0.50068  0.77629  0.97280  1.0000
  H   H4031     1.0  0.47088  0.67576  0.95880  1.0000
  C   C3378     1.0  0.42378  0.83783  0.96604  1.0000
  H   H4032     1.0  0.55964  0.57378  0.96711  1.0000
  C   C3379     1.0  0.47345  0.72531  0.96930  1.0000
  H   H4033     1.0  0.43206  0.89625  0.97068  1.0000
  H   H4034     1.0  0.39761  0.84215  0.92397  1.0000
  H   H4035     1.0  0.41195  0.77334  0.97973  1.0000
  H   H4036     1.0  0.48454  0.82823  0.98386  1.0000
  C   C3380     1.0  0.38930  0.63988  0.96793  1.0000
  H   H4037     1.0  0.41377  0.64673  0.94872  1.0000
  N   N225      1.0  0.57158  0.49731  0.91341  1.0000
  H   H4038     1.0  0.42191  0.69995  0.98426  1.0000
  H   H4039     1.0  0.45634  0.77670  0.97963  1.0000
  C   C3381     1.0  0.41404  0.97643  0.80564  1.0000
  C   C3382     1.0  0.39130  0.57720  0.98242  1.0000
  C   C3383     1.0  0.38931  0.63934  0.97882  1.0000
  C   C3384     1.0  0.42733  0.95124  0.78823  1.0000
  S   S915      1.0  0.40179  0.87838  0.92640  1.0000
  H   H4040     1.0  0.48764  0.73060  0.96909  1.0000
  H   H4041     1.0  0.55770  0.49421  0.92638  1.0000
  C   C3385     1.0  0.46111  0.75456  0.96867  1.0000
  C   C3386     1.0  0.42131  0.73771  0.96091  1.0000
  H   H4042     1.0  0.51081  0.90068  0.97856  1.0000
  S   S916      1.0  0.40339  0.76977  0.95201  1.0000
  H   H4043     1.0  0.57514  0.52312  0.97838  1.0000
  H   H4044     1.0  0.43110  0.95836  0.78412  1.0000
  H   H4045     1.0  0.42259  0.95052  0.78275  1.0000
  H   H4046     1.0  0.38976  0.92298  0.85067  1.0000
  H   H4047     1.0  0.42306  0.98572  0.76583  1.0000
  H   H4048     1.0  0.43846  0.63952  0.96308  1.0000
  H   H4049     1.0  0.44176  0.64243  0.92932  1.0000
  C   C3387     1.0  0.49269  0.92896  0.98256  1.0000
  C   C3388     1.0  0.56938  0.58679  0.94786  1.0000
  N   N226      1.0  0.48154  0.67353  0.96957  1.0000
  H   H4050     1.0  0.49429  0.67817  0.95589  1.0000
  C   C3389     1.0  0.39641  0.91047  0.97810  1.0000
  Fe  Fe452     1.0  0.47401  0.97911  0.87051  1.0000
  H   H4051     1.0  0.44073  0.80200  0.98017  1.0000
  C   C3390     1.0  0.40030  0.82696  0.94939  1.0000
  H   H4052     1.0  0.42009  0.64475  0.97510  1.0000
  H   H4053     1.0  0.41608  0.81902  0.97169  1.0000
  Fe  Fe453     1.0  0.40058  0.89460  0.94803  1.0000
  C   C3391     1.0  0.39481  0.71961  0.96538  1.0000
  H   H4054     1.0  0.44789  0.81260  0.97746  1.0000
  Fe  Fe454     1.0  0.39219  0.89534  0.92831  1.0000
  H   H4055     1.0  0.40401  0.74108  0.96093  1.0000
  C   C3392     1.0  0.44319  0.83136  0.96097  1.0000
  N   N227      1.0  0.43205  0.62980  0.97872  1.0000
  C   C3393     1.0  0.39664  0.84654  0.94887  1.0000
  H   H4056     1.0  0.47277  0.74599  0.91235  1.0000
  H   H4057     1.0  0.50810  0.89674  0.96347  1.0000
  C   C3394     1.0  0.39075  0.91519  0.90551  1.0000
  H   H4058     1.0  0.44448  0.61147  0.97117  1.0000
  H   H4059     1.0  0.49979  0.62182  0.96709  1.0000
  H   H4060     1.0  0.43565  0.85820  0.94844  1.0000
  C   C3395     1.0  0.43491  0.85016  0.95361  1.0000
  H   H4061     1.0  0.42772  0.88027  0.97032  1.0000
  H   H4062     1.0  0.46868  0.76936  0.97242  1.0000
  C   C3396     1.0  0.43608  0.97237  0.76157  1.0000
  S   S917      1.0  0.43740  0.97019  0.84157  1.0000
  H   H4063     1.0  0.40377  0.86817  0.98036  1.0000
  C   C3397     1.0  0.41001  0.74091  0.96520  1.0000
  S   S918      1.0  0.39426  0.85720  0.95571  1.0000
  C   C3398     1.0  0.44336  0.76495  0.97725  1.0000
  S   S919      1.0  0.45624  0.98632  0.87235  1.0000
  H   H4064     1.0  0.48844  0.98658  0.79940  1.0000
  C   C3399     1.0  0.41820  0.62503  0.97154  1.0000
  H   H4065     1.0  0.44325  0.75985  0.96251  1.0000
  C   C3400     1.0  0.42173  0.94921  0.73706  1.0000
  C   C3401     1.0  0.40505  0.57910  0.96512  1.0000
  C   C3402     1.0  0.49175  0.62208  0.97227  1.0000
  C   C3403     1.0  0.39565  0.58353  0.97209  1.0000
  C   C3404     1.0  0.39723  0.80828  0.98003  1.0000
  H   H4066     1.0  0.49077  0.90933  0.96057  1.0000
  H   H4067     1.0  0.39990  0.93058  0.85863  1.0000
  H   H4068     1.0  0.49256  0.93298  0.96557  1.0000
  H   H4069     1.0  0.56927  0.49451  0.93093  1.0000
  Fe  Fe455     1.0  0.39658  0.78380  0.96053  1.0000
  H   H4070     1.0  0.40186  0.81852  0.95387  1.0000
  H   H4071     1.0  0.40849  0.97132  0.80577  1.0000
  H   H4072     1.0  0.47711  0.90570  0.97645  1.0000
  C   C3405     1.0  0.38776  0.67095  0.93014  1.0000
  S   S920      1.0  0.38696  0.79457  0.94831  1.0000
  C   C3406     1.0  0.39815  0.95224  0.80737  1.0000
  C   C3407     1.0  0.40309  0.94791  0.81638  1.0000
  C   C3408     1.0  0.44450  0.77697  0.91230  1.0000
  H   H4073     1.0  0.52014  0.90212  0.96046  1.0000
  H   H4074     1.0  0.48686  0.78109  0.97191  1.0000
  C   C3409     1.0  0.39712  0.71113  0.98394  1.0000
  H   H4075     1.0  0.58054  0.55350  0.93953  1.0000
  H   H4076     1.0  0.50855  0.98561  0.73889  1.0000
  H   H4077     1.0  0.46104  0.75910  0.96004  1.0000
  H   H4078     1.0  0.50689  0.58981  0.97019  1.0000
  C   C3410     1.0  0.51234  0.90332  0.95811  1.0000
  S   S921      1.0  0.48244  0.81018  0.97557  1.0000
  H   H4079     1.0  0.55579  0.58107  0.93192  1.0000
  Fe  Fe456     1.0  0.39889  0.96677  0.84753  1.0000
  C   C3411     1.0  0.41324  0.74442  0.98120  1.0000
  C   C3412     1.0  0.42836  0.73786  0.96734  1.0000
  N   N228      1.0  0.45517  0.76157  0.97670  1.0000
  C   C3413     1.0  0.46810  0.76744  0.90610  1.0000
  H   H4080     1.0  0.39678  0.68399  0.98212  1.0000
  H   H4081     1.0  0.44590  0.80819  0.96630  1.0000
  C   C3414     1.0  0.44409  0.84176  0.95438  1.0000
  C   C3415     1.0  0.43299  0.82911  0.96713  1.0000
  H   H4082     1.0  0.39046  0.67855  0.92670  1.0000
  C   C3416     1.0  0.42439  0.81382  0.97093  1.0000
  H   H4083     1.0  0.48517  0.76064  0.97882  1.0000
  C   C3417     1.0  0.43045  0.98028  0.76771  1.0000
  Fe  Fe457     1.0  0.39990  0.95712  0.78015  1.0000
  H   H4084     1.0  0.42749  0.81306  0.96219  1.0000
  Fe  Fe458     1.0  0.39103  0.97998  0.76813  1.0000
  N   N229      1.0  0.43174  0.81831  0.97445  1.0000
  H   H4085     1.0  0.41968  0.77994  0.90748  1.0000
  C   C3418     1.0  0.39285  0.79057  0.98331  1.0000
  H   H4086     1.0  0.41195  0.63189  0.97375  1.0000
  C   C3419     1.0  0.55351  0.49587  0.98106  1.0000
  H   H4087     1.0  0.48401  0.98302  0.81389  1.0000
  N   N230      1.0  0.50396  0.97068  0.73965  1.0000
  C   C3420     1.0  0.44364  0.97368  0.77909  1.0000
  C   C3421     1.0  0.45369  0.97470  0.84758  1.0000
  C   C3422     1.0  0.58355  0.55760  0.98124  1.0000
  H   H4088     1.0  0.47591  0.65894  0.97123  1.0000
  H   H4089     1.0  0.46794  0.76872  0.89731  1.0000
  H   H4090     1.0  0.39304  0.94067  0.86656  1.0000
  H   H4091     1.0  0.48478  0.65725  0.97988  1.0000
  H   H4092     1.0  0.46079  0.87245  0.97965  1.0000
  H   H4093     1.0  0.45942  0.74379  0.91708  1.0000
  C   C3423     1.0  0.48158  0.69512  0.98446  1.0000
  C   C3424     1.0  0.39635  0.84887  0.93778  1.0000
  H   H4094     1.0  0.54430  0.59971  0.95296  1.0000
  H   H4095     1.0  0.57093  0.51922  0.91088  1.0000
  H   H4096     1.0  0.56133  0.51155  0.90515  1.0000
  H   H4097     1.0  0.40416  0.85536  0.97736  1.0000
  C   C3425     1.0  0.39453  0.80054  0.97625  1.0000
  H   H4098     1.0  0.44334  0.64038  0.97439  1.0000
  H   H4099     1.0  0.49804  0.66480  0.96439  1.0000
  C   C3426     1.0  0.49568  0.92672  0.97206  1.0000
  C   C3427     1.0  0.43593  0.97820  0.85945  1.0000
  H   H4100     1.0  0.38932  0.90273  0.88562  1.0000
  C   C3428     1.0  0.55562  0.54571  0.98353  1.0000
  N   N231      1.0  0.46026  0.76078  0.91333  1.0000
  H   H4101     1.0  0.46802  0.75550  0.92707  1.0000
  H   H4102     1.0  0.44552  0.75171  0.90838  1.0000
  H   H4103     1.0  0.46647  0.77563  0.90802  1.0000
  S   S922      1.0  0.39484  0.64853  0.98195  1.0000
  H   H4104     1.0  0.39320  0.66553  0.91483  1.0000
  C   C3429     1.0  0.39209  0.96293  0.82494  1.0000
  H   H4105     1.0  0.50692  0.95756  0.75366  1.0000
  H   H4106     1.0  0.45847  0.76830  0.92679  1.0000
  C   C3430     1.0  0.46433  0.74953  0.91124  1.0000
  C   C3431     1.0  0.44274  0.76019  0.90902  1.0000
  H   H4107     1.0  0.44874  0.78171  0.91458  1.0000
  C   C3432     1.0  0.44270  0.97456  0.85016  1.0000
  C   C3433     1.0  0.39971  0.71094  0.97282  1.0000
  H   H4108     1.0  0.39244  0.64623  0.96142  1.0000
  C   C3434     1.0  0.57899  0.51406  0.91040  1.0000
  C   C3435     1.0  0.42753  0.87493  0.97835  1.0000
  C   C3436     1.0  0.43223  0.76524  0.90759  1.0000
  S   S923      1.0  0.49698  0.63478  0.98260  1.0000
  C   C3437     1.0  0.38694  0.96707  0.81608  1.0000
  H   H4109     1.0  0.45057  0.82515  0.96097  1.0000
  H   H4110     1.0  0.46366  0.82682  0.97031  1.0000
  H   H4111     1.0  0.48955  0.66679  0.95519  1.0000
  C   C3438     1.0  0.47267  0.68025  0.96399  1.0000
  C   C3439     1.0  0.38636  0.91769  0.87337  1.0000
  H   H4112     1.0  0.57195  0.58419  0.91820  1.0000
  C   C3440     1.0  0.46380  0.72237  0.97570  1.0000
  C   C3441     1.0  0.56181  0.58333  0.93451  1.0000
  H   H4113     1.0  0.46982  0.75158  0.96896  1.0000
  S   S924      1.0  0.49215  0.88438  0.97909  1.0000
  H   H4114     1.0  0.42738  0.76065  0.90594  1.0000
  C   C3442     1.0  0.42890  0.86376  0.97890  1.0000
  C   C3443     1.0  0.40610  0.74423  0.97519  1.0000
  H   H4115     1.0  0.54066  0.50940  0.97530  1.0000
  C   C3444     1.0  0.58079  0.50255  0.91146  1.0000
  C   C3445     1.0  0.39988  0.82933  0.93831  1.0000
  C   C3446     1.0  0.49275  0.84180  0.97627  1.0000
  H   H4116     1.0  0.41674  0.97318  0.81354  1.0000
  H   H4117     1.0  0.39536  0.94437  0.85180  1.0000
  H   H4118     1.0  0.49991  0.82072  0.97308  1.0000
  H   H4119     1.0  0.48730  0.93664  0.98402  1.0000
  H   H4120     1.0  0.58529  0.59049  0.94164  1.0000
  H   H4121     1.0  0.40304  0.91465  0.97516  1.0000
  H   H4122     1.0  0.39340  0.80247  0.96795  1.0000
  H   H4123     1.0  0.56106  0.50704  0.92488  1.0000
  H   H4124     1.0  0.39459  0.85728  0.93331  1.0000
  H   H4125     1.0  0.47493  0.68783  0.95830  1.0000
  H   H4126     1.0  0.39407  0.91525  0.86801  1.0000
  C   C3447     1.0  0.45169  0.98479  0.73582  1.0000
  H   H4127     1.0  0.42384  0.76521  0.96432  1.0000
  H   H4128     1.0  0.47275  0.69508  0.97320  1.0000
  C   C3448     1.0  0.56475  0.53716  0.98457  1.0000
  C   C3449     1.0  0.43856  0.76340  0.96943  1.0000
  C   C3450     1.0  0.39013  0.96190  0.80719  1.0000
  C   C3451     1.0  0.40662  0.56192  0.97845  1.0000
  H   H4129     1.0  0.41100  0.55357  0.98092  1.0000
  C   C3452     1.0  0.39868  0.86280  0.97999  1.0000
  H   H4130     1.0  0.58447  0.53217  0.94342  1.0000
  C   C3453     1.0  0.47889  0.69013  0.97764  1.0000
  H   H4131     1.0  0.38973  0.94020  0.88759  1.0000
  C   C3454     1.0  0.39068  0.75427  0.93592  1.0000
  H   H4132     1.0  0.43256  0.70731  0.97816  1.0000
  H   H4133     1.0  0.39752  0.98610  0.79582  1.0000
  C   C3455     1.0  0.49116  0.76014  0.98358  1.0000
  H   H4134     1.0  0.42986  0.74134  0.98207  1.0000
  H   H4135     1.0  0.47115  0.66493  0.98314  1.0000
  H   H4136     1.0  0.50648  0.60337  0.98004  1.0000
  C   C3456     1.0  0.49229  0.67372  0.98270  1.0000
  H   H4137     1.0  0.43486  0.98434  0.87356  1.0000
  S   S925      1.0  0.38762  0.61319  0.92252  1.0000
  C   C3457     1.0  0.51205  0.59554  0.98150  1.0000
  H   H4138     1.0  0.57996  0.56081  0.96536  1.0000
  H   H4139     1.0  0.42539  0.94513  0.74433  1.0000
  H   H4140     1.0  0.40284  0.98669  0.82167  1.0000
  H   H4141     1.0  0.49676  0.66545  0.98224  1.0000
  C   C3458     1.0  0.48819  0.62803  0.98053  1.0000
  H   H4142     1.0  0.51431  0.61564  0.98197  1.0000
  H   H4143     1.0  0.42107  0.98664  0.81853  1.0000
  H   H4144     1.0  0.52855  0.61032  0.98118  1.0000
  C   C3459     1.0  0.38746  0.72861  0.96903  1.0000
  C   C3460     1.0  0.38654  0.92604  0.90048  1.0000
  H   H4145     1.0  0.58590  0.52795  0.90805  1.0000
  C   C3461     1.0  0.48594  0.83567  0.98478  1.0000
  H   H4146     1.0  0.41581  0.95667  0.73918  1.0000
  H   H4147     1.0  0.42989  0.98702  0.78128  1.0000
  H   H4148     1.0  0.43953  0.95666  0.73505  1.0000
  Fe  Fe459     1.0  0.64118  0.46094  0.03205  1.0000
  S   S926      1.0  0.64370  0.47809  0.02466  1.0000
  S   S927      1.0  0.65147  0.44609  0.04069  1.0000
  Fe  Fe460     1.0  0.62091  0.46499  0.02348  1.0000
  H   H4149     1.0  0.61306  0.43496  0.06423  1.0000
  S   S928      1.0  0.61038  0.45656  0.01921  1.0000
  Fe  Fe461     1.0  0.63893  0.47660  0.01002  1.0000
  H   H4150     1.0  0.75113  0.48154  0.03058  1.0000
  H   H4151     1.0  0.68997  0.44798  0.99651  1.0000
  S   S929      1.0  0.62118  0.48263  0.01592  1.0000
  S   S930      1.0  0.63848  0.45887  0.01665  1.0000
  S   S931      1.0  0.62348  0.46576  0.03962  1.0000
  H   H4152     1.0  0.66843  0.44205  0.01394  1.0000
  C   C3462     1.0  0.67821  0.46841  0.98927  1.0000
  S   S932      1.0  0.71829  0.46676  0.02666  1.0000
  C   C3463     1.0  0.65788  0.44903  0.98730  1.0000
  Fe  Fe462     1.0  0.70886  0.47713  0.99903  1.0000
  S   S933      1.0  0.71879  0.46027  0.00380  1.0000
  C   C3464     1.0  0.63032  0.46461  0.98528  1.0000
  Fe  Fe463     1.0  0.70771  0.46014  0.02040  1.0000
  S   S934      1.0  0.70162  0.44475  0.02880  1.0000
  Fe  Fe464     1.0  0.72850  0.46837  0.00947  1.0000
  S   S935      1.0  0.74671  0.46329  0.00432  1.0000
  S   S936      1.0  0.69700  0.47639  0.01514  1.0000
  C   C3465     1.0  0.76939  0.43767  0.01962  1.0000
  C   C3466     1.0  0.60687  0.43377  0.06099  1.0000
  H   H4153     1.0  0.58860  0.46323  0.00181  1.0000
  H   H4154     1.0  0.60217  0.47172  0.98843  1.0000
  H   H4155     1.0  0.60179  0.42703  0.03954  1.0000
  C   C3467     1.0  0.77919  0.43725  0.02241  1.0000
  C   C3468     1.0  0.59039  0.45192  0.02528  1.0000
  C   C3469     1.0  0.59014  0.43106  0.05350  1.0000
  N   N232      1.0  0.59646  0.45864  0.98621  1.0000
  C   C3470     1.0  0.58786  0.43444  0.06332  1.0000
  C   C3471     1.0  0.75870  0.44651  0.03449  1.0000
  H   H4156     1.0  0.61269  0.44853  0.98539  1.0000
  H   H4157     1.0  0.68366  0.44753  0.01080  1.0000
  H   H4158     1.0  0.75089  0.45031  0.03890  1.0000
  H   H4159     1.0  0.75195  0.44256  0.02324  1.0000
  C   C3472     1.0  0.59485  0.45956  0.03799  1.0000
  H   H4160     1.0  0.69051  0.45811  0.00320  1.0000
  S   S937      1.0  0.71947  0.48537  0.00323  1.0000
  C   C3473     1.0  0.77826  0.44191  0.03140  1.0000
  C   C3474     1.0  0.75932  0.44208  0.02569  1.0000
  H   H4161     1.0  0.77245  0.48387  0.99045  1.0000
  C   C3475     1.0  0.76648  0.47391  0.02169  1.0000
  H   H4162     1.0  0.62975  0.47065  0.99910  1.0000
  C   C3476     1.0  0.66585  0.44409  0.00626  1.0000
  C   C3477     1.0  0.76557  0.46472  0.00822  1.0000
  S   S938      1.0  0.77379  0.47831  0.02840  1.0000
  C   C3478     1.0  0.66528  0.44612  0.03796  1.0000
  C   C3479     1.0  0.67279  0.43611  0.03820  1.0000
  C   C3480     1.0  0.68389  0.43584  0.03551  1.0000
  C   C3481     1.0  0.68758  0.44557  0.03258  1.0000
  C   C3482     1.0  0.68007  0.45562  0.03257  1.0000
  C   C3483     1.0  0.66890  0.45588  0.03533  1.0000
  H   H4163     1.0  0.67004  0.42853  0.04036  1.0000
  H   H4164     1.0  0.68966  0.42806  0.03563  1.0000
  H   H4165     1.0  0.68285  0.46313  0.03065  1.0000
  H   H4166     1.0  0.66310  0.46362  0.03544  1.0000
  C   C3484     1.0  0.68519  0.45310  0.00257  1.0000
  H   H4167     1.0  0.62568  0.44078  0.04956  1.0000
  C   C3485     1.0  0.60472  0.44988  0.99126  1.0000
  H   H4168     1.0  0.71933  0.48337  0.03633  1.0000
  H   H4169     1.0  0.76960  0.46010  0.00191  1.0000
  H   H4170     1.0  0.76937  0.43497  0.01249  1.0000
  H   H4171     1.0  0.75739  0.48020  0.98629  1.0000
  C   C3486     1.0  0.64125  0.47694  0.98496  1.0000
  N   N233      1.0  0.67507  0.46003  0.99928  1.0000
  C   C3487     1.0  0.65938  0.43772  0.00523  1.0000
  C   C3488     1.0  0.63341  0.47081  0.99058  1.0000
  C   C3489     1.0  0.77171  0.46791  0.01356  1.0000
  C   C3490     1.0  0.75422  0.46738  0.01112  1.0000
  C   C3491     1.0  0.74902  0.47347  0.01917  1.0000
  C   C3492     1.0  0.75515  0.47675  0.02441  1.0000
  H   H4172     1.0  0.65018  0.43542  0.99506  1.0000
  H   H4173     1.0  0.74027  0.47568  0.02136  1.0000
  Fe  Fe465     1.0  0.70841  0.48318  0.01989  1.0000
  C   C3493     1.0  0.60074  0.42920  0.04725  1.0000
  C   C3494     1.0  0.59769  0.45606  0.02812  1.0000
  H   H4174     1.0  0.68322  0.47328  0.99068  1.0000
  H   H4175     1.0  0.70800  0.46074  0.98863  1.0000
  H   H4176     1.0  0.60048  0.46272  0.04025  1.0000
  H   H4177     1.0  0.59264  0.44897  0.01779  1.0000
  H   H4178     1.0  0.78449  0.42352  0.00746  1.0000
  H   H4179     1.0  0.78557  0.44283  0.00052  1.0000
  H   H4180     1.0  0.67346  0.47039  0.01029  1.0000
  N   N234      1.0  0.62080  0.42872  0.04441  1.0000
  C   C3495     1.0  0.62764  0.41959  0.05087  1.0000
  C   C3496     1.0  0.62204  0.42601  0.03369  1.0000
  C   C3497     1.0  0.62501  0.43877  0.04204  1.0000
  C   C3498     1.0  0.60946  0.43054  0.05081  1.0000
  H   H4181     1.0  0.66145  0.47190  0.00552  1.0000
  H   H4182     1.0  0.59436  0.43850  0.07468  1.0000
  H   H4183     1.0  0.62457  0.45955  0.98988  1.0000
  C   C3499     1.0  0.65538  0.44021  0.99578  1.0000
  C   C3500     1.0  0.66862  0.46590  0.00807  1.0000
  H   H4184     1.0  0.62785  0.42145  0.05865  1.0000
  H   H4185     1.0  0.62458  0.41193  0.05308  1.0000
  H   H4186     1.0  0.63621  0.41789  0.04622  1.0000
  H   H4187     1.0  0.61951  0.41823  0.03479  1.0000
  H   H4188     1.0  0.63060  0.42494  0.02897  1.0000
  H   H4189     1.0  0.61723  0.43275  0.02836  1.0000
  H   H4190     1.0  0.63329  0.43803  0.03665  1.0000
  H   H4191     1.0  0.61962  0.44593  0.03784  1.0000
  C   C3501     1.0  0.66861  0.45313  0.99776  1.0000
  S   S939      1.0  0.64636  0.48298  0.99234  1.0000
  H   H4192     1.0  0.66543  0.46022  0.01566  1.0000
  H   H4193     1.0  0.67101  0.47447  0.98678  1.0000
  C   C3502     1.0  0.58672  0.46073  0.99514  1.0000
  H   H4194     1.0  0.65730  0.43098  0.01192  1.0000
  C   C3503     1.0  0.66438  0.45544  0.98822  1.0000
  H   H4195     1.0  0.60627  0.45195  0.99837  1.0000
  H   H4196     1.0  0.76476  0.48278  0.06325  1.0000
  Fe  Fe466     1.0  0.62575  0.48279  0.03119  1.0000
  H   H4197     1.0  0.63861  0.48530  0.04497  1.0000
  H   H4198     1.0  0.78045  0.46581  0.01137  1.0000
  C   C3504     1.0  0.76814  0.44647  0.03731  1.0000
  H   H4199     1.0  0.60208  0.44194  0.99425  1.0000
  C   C3505     1.0  0.59621  0.43575  0.06708  1.0000
  H   H4200     1.0  0.76763  0.45029  0.04391  1.0000
  H   H4201     1.0  0.77158  0.48013  0.04978  1.0000
  H   H4202     1.0  0.78303  0.47610  0.06184  1.0000
  H   H4203     1.0  0.78521  0.44236  0.03392  1.0000
  H   H4204     1.0  0.74728  0.48625  0.99652  1.0000
  H   H4205     1.0  0.73406  0.48671  0.04236  1.0000
  C   C3506     1.0  0.76629  0.48649  0.05430  1.0000
  C   C3507     1.0  0.77492  0.00662  0.47138  1.0000
  H   H4206     1.0  0.67851  0.08939  0.46153  1.0000
  H   H4207     1.0  0.69797  0.06242  0.46804  1.0000
  Fe  Fe467     1.0  0.63849  0.04515  0.43135  1.0000
  S   S940      1.0  0.62895  0.05241  0.44580  1.0000
  S   S941      1.0  0.63112  0.04582  0.41742  1.0000
  Fe  Fe468     1.0  0.65927  0.03774  0.43991  1.0000
  S   S942      1.0  0.65125  0.04412  0.45522  1.0000
  S   S943      1.0  0.67693  0.02924  0.43705  1.0000
  Fe  Fe469     1.0  0.63745  0.03708  0.45563  1.0000
  S   S944      1.0  0.62834  0.02939  0.47202  1.0000
  Fe  Fe470     1.0  0.64362  0.05882  0.44389  1.0000
  S   S945      1.0  0.64130  0.07643  0.44451  1.0000
  S   S946      1.0  0.64609  0.02925  0.44131  1.0000
  S   S947      1.0  0.65254  0.05297  0.42846  1.0000
  H   H4208     1.0  0.69472  0.07429  0.48173  1.0000
  Fe  Fe471     1.0  0.74787  0.05685  0.43092  1.0000
  S   S948      1.0  0.75800  0.03975  0.43331  1.0000
  S   S949      1.0  0.75369  0.07249  0.42689  1.0000
  Fe  Fe472     1.0  0.72648  0.04915  0.43786  1.0000
  S   S950      1.0  0.73485  0.03142  0.44112  1.0000
  S   S951      1.0  0.70839  0.05579  0.44162  1.0000
  Fe  Fe473     1.0  0.74532  0.03661  0.44872  1.0000
  S   S952      1.0  0.74925  0.02841  0.46515  1.0000
  Fe  Fe474     1.0  0.74664  0.03622  0.42537  1.0000
  S   S953      1.0  0.75323  0.02630  0.41238  1.0000
  S   S954      1.0  0.73596  0.05390  0.44689  1.0000
  S   S955      1.0  0.73752  0.05373  0.42149  1.0000
  C   C3508     1.0  0.71988  0.04281  0.47261  1.0000
  H   H4209     1.0  0.74119  0.99296  0.47920  1.0000
  C   C3509     1.0  0.77934  0.08733  0.47054  1.0000
  H   H4210     1.0  0.59652  0.07980  0.42366  1.0000
  C   C3510     1.0  0.72238  0.05074  0.47627  1.0000
  C   C3511     1.0  0.70648  0.02089  0.48207  1.0000
  C   C3512     1.0  0.77485  0.99763  0.41656  1.0000
  C   C3513     1.0  0.74577  0.01683  0.41297  1.0000
  C   C3514     1.0  0.73896  0.01275  0.42276  1.0000
  C   C3515     1.0  0.73309  0.00518  0.42306  1.0000
  C   C3516     1.0  0.73413  0.00153  0.41359  1.0000
  C   C3517     1.0  0.74093  0.00561  0.40377  1.0000
  C   C3518     1.0  0.74681  0.01319  0.40349  1.0000
  H   H4211     1.0  0.73831  0.01526  0.43017  1.0000
  H   H4212     1.0  0.72757  0.00239  0.43057  1.0000
  H   H4213     1.0  0.74172  0.00285  0.39641  1.0000
  H   H4214     1.0  0.75210  0.01630  0.39589  1.0000
  C   C3519     1.0  0.75515  0.03739  0.46830  1.0000
  C   C3520     1.0  0.75831  0.04626  0.46017  1.0000
  C   C3521     1.0  0.76268  0.05367  0.46267  1.0000
  H   H4215     1.0  0.77918  0.07989  0.44288  1.0000
  C   C3522     1.0  0.76073  0.04343  0.48151  1.0000
  C   C3523     1.0  0.61057  0.08075  0.44180  1.0000
  H   H4216     1.0  0.75743  0.04748  0.45189  1.0000
  H   H4217     1.0  0.76507  0.06050  0.45630  1.0000
  H   H4218     1.0  0.66778  0.01858  0.47541  1.0000
  H   H4219     1.0  0.69620  0.01490  0.42609  1.0000
  C   C3524     1.0  0.64810  0.07866  0.45326  1.0000
  C   C3525     1.0  0.64585  0.08914  0.45533  1.0000
  C   C3526     1.0  0.64985  0.09082  0.46349  1.0000
  C   C3527     1.0  0.65592  0.08198  0.46976  1.0000
  C   C3528     1.0  0.65872  0.07162  0.46729  1.0000
  C   C3529     1.0  0.65495  0.07002  0.45890  1.0000
  H   H4220     1.0  0.64069  0.09590  0.45089  1.0000
  H   H4221     1.0  0.64781  0.09888  0.46530  1.0000
  C   C3530     1.0  0.63427  0.06148  0.47870  1.0000
  H   H4222     1.0  0.65713  0.06203  0.45703  1.0000
  C   C3531     1.0  0.68545  0.03630  0.43928  1.0000
  C   C3532     1.0  0.69639  0.03128  0.43910  1.0000
  C   C3533     1.0  0.70352  0.03719  0.43975  1.0000
  C   C3534     1.0  0.69969  0.04805  0.44090  1.0000
  C   C3535     1.0  0.68866  0.05290  0.44163  1.0000
  C   C3536     1.0  0.68157  0.04707  0.44074  1.0000
  H   H4223     1.0  0.69944  0.02290  0.43820  1.0000
  H   H4224     1.0  0.71201  0.03339  0.43911  1.0000
  H   H4225     1.0  0.68562  0.06129  0.44257  1.0000
  H   H4226     1.0  0.67315  0.05101  0.44091  1.0000
  C   C3537     1.0  0.60753  0.00659  0.47238  1.0000
  C   C3538     1.0  0.76376  0.05236  0.47338  1.0000
  H   H4227     1.0  0.60702  0.09047  0.40976  1.0000
  C   C3539     1.0  0.62000  0.02110  0.47182  1.0000
  C   C3540     1.0  0.61993  0.01854  0.46207  1.0000
  C   C3541     1.0  0.61388  0.01108  0.46240  1.0000
  H   H4228     1.0  0.78368  0.03352  0.44996  1.0000
  N   N235      1.0  0.78279  0.01209  0.46239  1.0000
  H   H4229     1.0  0.62472  0.02211  0.45434  1.0000
  H   H4230     1.0  0.61406  0.00884  0.45493  1.0000
  C   C3542     1.0  0.75573  0.00833  0.44552  1.0000
  H   H4231     1.0  0.76901  0.00514  0.41347  1.0000
  H   H4232     1.0  0.69384  0.03008  0.46708  1.0000
  H   H4233     1.0  0.61723  0.02826  0.43084  1.0000
  C   C3543     1.0  0.64261  0.99681  0.47634  1.0000
  C   C3544     1.0  0.77494  0.06240  0.42861  1.0000
  C   C3545     1.0  0.76758  0.07198  0.42496  1.0000
  C   C3546     1.0  0.77129  0.08161  0.41961  1.0000
  C   C3547     1.0  0.78228  0.08164  0.41750  1.0000
  C   C3548     1.0  0.71056  0.07967  0.44901  1.0000
  H   H4234     1.0  0.77212  0.05496  0.43287  1.0000
  H   H4235     1.0  0.76565  0.08903  0.41680  1.0000
  H   H4236     1.0  0.62546  0.08033  0.46622  1.0000
  C   C3549     1.0  0.62720  0.00093  0.41974  1.0000
  H   H4237     1.0  0.77160  0.08673  0.46974  1.0000
  H   H4238     1.0  0.59163  0.03440  0.47431  1.0000
  H   H4239     1.0  0.77656  0.00836  0.45047  1.0000
  H   H4240     1.0  0.63091  0.07425  0.42888  1.0000
  H   H4241     1.0  0.72857  0.08173  0.46702  1.0000
  H   H4242     1.0  0.77083  0.02188  0.45315  1.0000
  H   H4243     1.0  0.67850  0.99122  0.48170  1.0000
  H   H4244     1.0  0.63366  0.07514  0.41448  1.0000
  C   C3550     1.0  0.72148  0.07991  0.44455  1.0000
  H   H4245     1.0  0.62414  0.05322  0.47027  1.0000
  C   C3551     1.0  0.71580  0.03053  0.41025  1.0000
  C   C3552     1.0  0.61007  0.05049  0.42940  1.0000
  H   H4246     1.0  0.62083  0.08527  0.40365  1.0000
  H   H4247     1.0  0.60408  0.07873  0.45923  1.0000
  C   C3553     1.0  0.69058  0.02404  0.40717  1.0000
  H   H4248     1.0  0.68888  0.08833  0.44942  1.0000
  C   C3554     1.0  0.75654  0.03587  0.47894  1.0000
  S   S956      1.0  0.76905  0.06185  0.47644  1.0000
  C   C3555     1.0  0.69228  0.06949  0.46410  1.0000
  C   C3556     1.0  0.60257  0.01745  0.43281  1.0000
  H   H4249     1.0  0.70970  0.08167  0.47500  1.0000
  H   H4250     1.0  0.70656  0.01075  0.39750  1.0000
  C   C3557     1.0  0.72794  0.08064  0.45102  1.0000
  H   H4251     1.0  0.72999  0.05334  0.47247  1.0000
  N   N236      1.0  0.62360  0.06885  0.48182  1.0000
  H   H4252     1.0  0.63332  0.00372  0.42161  1.0000
  N   N237      1.0  0.70177  0.02152  0.40888  1.0000
  C   C3558     1.0  0.62027  0.09386  0.42018  1.0000
  C   C3559     1.0  0.78601  0.06247  0.42666  1.0000
  H   H4253     1.0  0.61650  0.08613  0.47740  1.0000
  H   H4254     1.0  0.60638  0.03458  0.41660  1.0000
  N   N238      1.0  0.69413  0.08004  0.46461  1.0000
  C   C3560     1.0  0.61368  0.01657  0.48176  1.0000
  C   C3561     1.0  0.70920  0.01738  0.39925  1.0000
  C   C3562     1.0  0.60883  0.08127  0.43135  1.0000
  H   H4255     1.0  0.61242  0.07586  0.41121  1.0000
  H   H4256     1.0  0.70977  0.02409  0.39174  1.0000
  S   S957      1.0  0.65953  0.08400  0.48089  1.0000
  H   H4257     1.0  0.61675  0.02715  0.40736  1.0000
  H   H4258     1.0  0.63431  0.05282  0.48319  1.0000
  H   H4259     1.0  0.65164  0.00085  0.44866  1.0000
  C   C3563     1.0  0.60920  0.00247  0.41746  1.0000
  S   S958      1.0  0.70570  0.99385  0.46763  1.0000
  C   C3564     1.0  0.67766  0.01098  0.46225  1.0000
  C   C3565     1.0  0.74863  0.99193  0.45214  1.0000
  C   C3566     1.0  0.70056  0.04976  0.41335  1.0000
  C   C3567     1.0  0.69618  0.03572  0.47063  1.0000
  C   C3568     1.0  0.71136  0.04896  0.41319  1.0000
  H   H4260     1.0  0.71378  0.05568  0.41457  1.0000
  H   H4261     1.0  0.66709  0.99242  0.43097  1.0000
  H   H4262     1.0  0.68880  0.09721  0.45782  1.0000
  H   H4263     1.0  0.72197  0.02323  0.40930  1.0000
  C   C3569     1.0  0.61270  0.05461  0.40960  1.0000
  H   H4264     1.0  0.71527  0.03528  0.45666  1.0000
  H   H4265     1.0  0.61819  0.08166  0.44263  1.0000
  H   H4266     1.0  0.78504  0.08908  0.41308  1.0000
  H   H4267     1.0  0.75589  0.01626  0.44653  1.0000
  H   H4268     1.0  0.72585  0.03960  0.46604  1.0000
  C   C3570     1.0  0.71254  0.08116  0.46648  1.0000
  H   H4269     1.0  0.67037  0.99485  0.45062  1.0000
  H   H4270     1.0  0.59021  0.05763  0.47454  1.0000
  H   H4271     1.0  0.62392  0.09373  0.42698  1.0000
  H   H4272     1.0  0.71197  0.02210  0.46048  1.0000
  C   C3571     1.0  0.60956  0.02648  0.41430  1.0000
  N   N239      1.0  0.76915  0.98961  0.42513  1.0000
  C   C3572     1.0  0.59265  0.07754  0.45090  1.0000
  H   H4273     1.0  0.59829  0.06215  0.40321  1.0000
  C   C3573     1.0  0.76217  0.99409  0.43470  1.0000
  H   H4274     1.0  0.68441  0.02616  0.41454  1.0000
  C   C3574     1.0  0.59692  0.05974  0.47614  1.0000
  H   H4275     1.0  0.71446  0.01712  0.48434  1.0000
  H   H4276     1.0  0.63853  0.00547  0.47667  1.0000
  H   H4277     1.0  0.63660  0.06181  0.46972  1.0000
  C   C3575     1.0  0.59071  0.07787  0.44080  1.0000
  H   H4278     1.0  0.72736  0.03864  0.41171  1.0000
  N   N240      1.0  0.61741  0.08329  0.42131  1.0000
  C   C3576     1.0  0.78478  0.02134  0.46548  1.0000
  N   N241      1.0  0.70695  0.03108  0.47345  1.0000
  H   H4279     1.0  0.61331  0.04733  0.43671  1.0000
  H   H4280     1.0  0.68535  0.00315  0.44874  1.0000
  C   C3577     1.0  0.77932  0.09099  0.47970  1.0000
  C   C3578     1.0  0.71464  0.02794  0.46348  1.0000
  H   H4281     1.0  0.65255  0.01048  0.47788  1.0000
  C   C3579     1.0  0.70572  0.08035  0.46010  1.0000
  H   H4282     1.0  0.77423  0.09108  0.44978  1.0000
  H   H4283     1.0  0.66365  0.06481  0.47194  1.0000
  H   H4284     1.0  0.68862  0.01684  0.40573  1.0000
  H   H4285     1.0  0.60316  0.02503  0.41118  1.0000
  N   N242      1.0  0.61241  0.01767  0.42376  1.0000
  C   C3580     1.0  0.70490  0.03108  0.41024  1.0000
  C   C3581     1.0  0.60732  0.00946  0.48203  1.0000
  C   C3582     1.0  0.77861  0.08234  0.45063  1.0000
  H   H4286     1.0  0.68158  0.08094  0.47939  1.0000
  C   C3583     1.0  0.67826  0.00431  0.45533  1.0000
  H   H4287     1.0  0.62637  0.09588  0.41245  1.0000
  C   C3584     1.0  0.66013  0.00111  0.46496  1.0000
  C   C3585     1.0  0.61423  0.08376  0.41106  1.0000
  H   H4288     1.0  0.61298  0.10072  0.42014  1.0000
  H   H4289     1.0  0.61802  0.05472  0.40155  1.0000
  C   C3586     1.0  0.65963  0.00828  0.47166  1.0000
  H   H4290     1.0  0.72284  0.02376  0.46505  1.0000
  C   C3587     1.0  0.63046  0.99063  0.41705  1.0000
  H   H4291     1.0  0.77263  0.00021  0.46889  1.0000
  H   H4292     1.0  0.77349  0.07720  0.45714  1.0000
  H   H4293     1.0  0.70417  0.01468  0.47927  1.0000
  H   H4294     1.0  0.70599  0.07874  0.44373  1.0000
  H   H4295     1.0  0.72506  0.07921  0.43609  1.0000
  C   C3588     1.0  0.71005  0.03915  0.47743  1.0000
  H   H4296     1.0  0.59975  0.02522  0.43581  1.0000
  C   C3589     1.0  0.60365  0.07054  0.48408  1.0000
  H   H4297     1.0  0.71045  0.01065  0.42103  1.0000
  C   C3590     1.0  0.60153  0.05874  0.41053  1.0000
  H   H4298     1.0  0.68435  0.01479  0.46112  1.0000
  C   C3591     1.0  0.61702  0.05063  0.41901  1.0000
  C   C3592     1.0  0.71896  0.03935  0.41166  1.0000
  C   C3593     1.0  0.77840  0.01542  0.45231  1.0000
  C   C3594     1.0  0.66832  0.01307  0.47031  1.0000
  S   S959      1.0  0.72674  0.99216  0.41380  1.0000
  H   H4299     1.0  0.69350  0.06876  0.45550  1.0000
  C   C3595     1.0  0.61255  0.99220  0.41475  1.0000
  H   H4300     1.0  0.70128  0.00487  0.41776  1.0000
  C   C3596     1.0  0.59501  0.06765  0.48220  1.0000
  H   H4301     1.0  0.62774  0.02211  0.42101  1.0000
  H   H4302     1.0  0.59560  0.01650  0.43023  1.0000
  C   C3597     1.0  0.72349  0.08125  0.46196  1.0000
  C   C3598     1.0  0.69029  0.08114  0.47621  1.0000
  H   H4303     1.0  0.62523  0.06624  0.42375  1.0000
  C   C3599     1.0  0.60256  0.07900  0.45138  1.0000
  H   H4304     1.0  0.60091  0.00670  0.41743  1.0000
  C   C3600     1.0  0.64584  0.00136  0.45669  1.0000
  C   C3601     1.0  0.70246  0.01262  0.41886  1.0000
  H   H4305     1.0  0.78068  0.00008  0.41969  1.0000
  H   H4306     1.0  0.63082  0.08294  0.47630  1.0000
  C   C3602     1.0  0.62055  0.02059  0.42772  1.0000
  C   C3603     1.0  0.59883  0.05433  0.43034  1.0000
  C   C3604     1.0  0.61619  0.05750  0.47377  1.0000
  H   H4307     1.0  0.69460  0.05712  0.41494  1.0000
  C   C3605     1.0  0.66962  0.99954  0.45654  1.0000
  H   H4308     1.0  0.64240  0.01016  0.45671  1.0000
  C   C3606     1.0  0.61633  0.00703  0.42035  1.0000
  H   H4309     1.0  0.68876  0.04202  0.41261  1.0000
  H   H4310     1.0  0.76736  0.01268  0.47383  1.0000
  H   H4311     1.0  0.77813  0.00235  0.47887  1.0000
  C   C3607     1.0  0.62721  0.07438  0.42215  1.0000
  H   H4312     1.0  0.68942  0.03094  0.39996  1.0000
  H   H4313     1.0  0.69616  0.04362  0.46444  1.0000
  N   N243      1.0  0.65106  0.99595  0.46609  1.0000
  C   C3608     1.0  0.59457  0.05861  0.42089  1.0000
  H   H4314     1.0  0.71752  0.01358  0.40058  1.0000
  H   H4315     1.0  0.77972  0.99415  0.40932  1.0000
  H   H4316     1.0  0.74370  0.00535  0.46039  1.0000
  C   C3609     1.0  0.69731  0.04097  0.41196  1.0000
  C   C3610     1.0  0.68732  0.08913  0.45805  1.0000
  H   H4317     1.0  0.63603  0.99267  0.47707  1.0000
  H   H4318     1.0  0.73647  0.08056  0.44754  1.0000
  H   H4319     1.0  0.63911  0.99761  0.45696  1.0000
  H   H4320     1.0  0.62330  0.01405  0.43460  1.0000
  S   S960      1.0  0.60004  0.99717  0.47296  1.0000
  C   C3611     1.0  0.62410  0.08005  0.47515  1.0000
  H   H4321     1.0  0.68384  0.06858  0.46821  1.0000
  H   H4322     1.0  0.60413  0.01060  0.43992  1.0000
  C   C3612     1.0  0.76224  0.00447  0.43625  1.0000
  H   H4323     1.0  0.60896  0.04843  0.46733  1.0000
  H   H4324     1.0  0.68959  0.03725  0.47787  1.0000
  H   H4325     1.0  0.59349  0.05434  0.43837  1.0000
  H   H4326     1.0  0.76713  0.00985  0.43036  1.0000
  C   C3613     1.0  0.74887  0.00214  0.45338  1.0000
  C   C3614     1.0  0.60747  0.05464  0.47199  1.0000
  C   C3615     1.0  0.61454  0.06549  0.47998  1.0000
  H   H4327     1.0  0.75576  0.99271  0.41755  1.0000
  H   H4328     1.0  0.69110  0.08912  0.47708  1.0000
  C   C3616     1.0  0.59862  0.07976  0.43114  1.0000
  H   H4329     1.0  0.78430  0.01851  0.44490  1.0000
  C   C3617     1.0  0.78539  0.03161  0.45802  1.0000
  H   H4330     1.0  0.64085  0.06394  0.48057  1.0000
  H   H4331     1.0  0.60682  0.98867  0.41304  1.0000
  H   H4332     1.0  0.64612  0.99300  0.48373  1.0000
  S   S961      1.0  0.61542  0.98817  0.44527  1.0000
  H   H4333     1.0  0.58647  0.07610  0.45835  1.0000
  C   C3618     1.0  0.75529  0.98786  0.44304  1.0000
  C   C3619     1.0  0.74824  0.98778  0.48217  1.0000
  H   H4334     1.0  0.69097  0.01796  0.52184  1.0000
  H   H4335     1.0  0.77272  0.04679  0.53039  1.0000
  C   C3620     1.0  0.65232  0.04168  0.54830  1.0000
  H   H4336     1.0  0.76174  0.04231  0.48975  1.0000
  N   N244      1.0  0.60402  0.01406  0.51746  1.0000
  C   C3621     1.0  0.70576  0.05151  0.49007  1.0000
  C   C3622     1.0  0.59963  0.06977  0.52002  1.0000
  H   H4337     1.0  0.78299  0.01173  0.53704  1.0000
  H   H4338     1.0  0.68531  0.03470  0.52667  1.0000
  H   H4339     1.0  0.69187  0.04254  0.51416  1.0000
  H   H4340     1.0  0.71739  0.06117  0.48785  1.0000
  C   C3623     1.0  0.66512  0.02142  0.54465  1.0000
  C   C3624     1.0  0.61161  0.02154  0.51351  1.0000
  Fe  Fe475     1.0  0.66947  0.04506  0.50199  1.0000
  Fe  Fe476     1.0  0.66043  0.06935  0.49496  1.0000
  H   H4341     1.0  0.61307  0.04322  0.52662  1.0000
  C   C3625     1.0  0.62031  0.05720  0.52255  1.0000
  C   C3626     1.0  0.61004  0.03138  0.50534  1.0000
  Fe  Fe477     1.0  0.75251  0.08356  0.50610  1.0000
  S   S962      1.0  0.76343  0.06688  0.50669  1.0000
  S   S963      1.0  0.75571  0.09863  0.50869  1.0000
  Fe  Fe478     1.0  0.73470  0.07729  0.50014  1.0000
  S   S964      1.0  0.74403  0.06013  0.50007  1.0000
  C   C3627     1.0  0.77783  0.10709  0.51891  1.0000
  Fe  Fe479     1.0  0.74825  0.06080  0.51536  1.0000
  S   S965      1.0  0.74725  0.04631  0.52952  1.0000
  H   H4342     1.0  0.64588  0.02457  0.49167  1.0000
  H   H4343     1.0  0.70105  0.06055  0.52836  1.0000
  S   S966      1.0  0.73762  0.07743  0.51626  1.0000
  H   H4344     1.0  0.59559  0.02126  0.53140  1.0000
  S   S967      1.0  0.74768  0.00830  0.50813  1.0000
  C   C3628     1.0  0.74738  0.03555  0.52387  1.0000
  C   C3629     1.0  0.73984  0.02890  0.52880  1.0000
  C   C3630     1.0  0.73982  0.02050  0.52399  1.0000
  C   C3631     1.0  0.74744  0.01869  0.51436  1.0000
  C   C3632     1.0  0.75507  0.02523  0.50957  1.0000
  C   C3633     1.0  0.75498  0.03371  0.51426  1.0000
  H   H4345     1.0  0.73387  0.03040  0.53617  1.0000
  H   H4346     1.0  0.73380  0.01559  0.52760  1.0000
  H   H4347     1.0  0.76106  0.02372  0.50221  1.0000
  H   H4348     1.0  0.76082  0.03884  0.51044  1.0000
  C   C3634     1.0  0.64779  0.03434  0.54591  1.0000
  H   H4349     1.0  0.70800  0.12303  0.50440  1.0000
  S   S968      1.0  0.67958  0.06280  0.52549  1.0000
  C   C3635     1.0  0.70804  0.07774  0.50368  1.0000
  C   C3636     1.0  0.69816  0.08058  0.50049  1.0000
  C   C3637     1.0  0.68946  0.07589  0.50707  1.0000
  C   C3638     1.0  0.70274  0.10294  0.51358  1.0000
  H   H4350     1.0  0.75049  0.00014  0.48886  1.0000
  H   H4351     1.0  0.60598  0.00921  0.53429  1.0000
  H   H4352     1.0  0.68183  0.07819  0.50456  1.0000
  C   C3639     1.0  0.66041  0.02626  0.49489  1.0000
  C   C3640     1.0  0.69308  0.03721  0.52226  1.0000
  C   C3641     1.0  0.69866  0.02017  0.51659  1.0000
  C   C3642     1.0  0.66943  0.02095  0.49943  1.0000
  C   C3643     1.0  0.67088  0.00975  0.50438  1.0000
  Fe  Fe480     1.0  0.66912  0.06087  0.51545  1.0000
  C   C3644     1.0  0.71864  0.02644  0.50488  1.0000
  S   S969      1.0  0.67668  0.05972  0.49798  1.0000
  H   H4353     1.0  0.67795  0.00559  0.50775  1.0000
  H   H4354     1.0  0.71129  0.01451  0.53123  1.0000
  H   H4355     1.0  0.72432  0.11100  0.52595  1.0000
  H   H4356     1.0  0.77818  0.11401  0.52177  1.0000
  C   C3645     1.0  0.78502  0.04530  0.50937  1.0000
  C   C3646     1.0  0.77666  0.08918  0.51171  1.0000
  C   C3647     1.0  0.76778  0.09812  0.51233  1.0000
  C   C3648     1.0  0.76847  0.10708  0.51585  1.0000
  C   C3649     1.0  0.75062  0.99972  0.55087  1.0000
  C   C3650     1.0  0.71230  0.09529  0.52838  1.0000
  H   H4357     1.0  0.77624  0.08225  0.50894  1.0000
  H   H4358     1.0  0.76167  0.11401  0.51635  1.0000
  H   H4359     1.0  0.60169  0.07680  0.48875  1.0000
  C   C3651     1.0  0.71373  0.12128  0.50984  1.0000
  C   C3652     1.0  0.65196  0.00506  0.54839  1.0000
  H   H4360     1.0  0.71881  0.09426  0.53234  1.0000
  S   S970      1.0  0.63314  0.04906  0.52408  1.0000
  H   H4361     1.0  0.62915  0.07046  0.49537  1.0000
  C   C3653     1.0  0.65398  0.00940  0.50067  1.0000
  C   C3654     1.0  0.66314  0.03891  0.54896  1.0000
  C   C3655     1.0  0.70913  0.07040  0.51369  1.0000
  H   H4362     1.0  0.66074  0.00144  0.54762  1.0000
  C   C3656     1.0  0.73108  0.03837  0.50076  1.0000
  C   C3657     1.0  0.66950  0.02876  0.54722  1.0000
  H   H4363     1.0  0.65951  0.03475  0.49062  1.0000
  H   H4364     1.0  0.73306  0.02611  0.49183  1.0000
  H   H4365     1.0  0.69719  0.08661  0.49301  1.0000
  H   H4366     1.0  0.73699  0.99199  0.55797  1.0000
  N   N245      1.0  0.64966  0.01610  0.54109  1.0000
  H   H4367     1.0  0.71688  0.01973  0.50285  1.0000
  H   H4368     1.0  0.63336  0.02042  0.55047  1.0000
  H   H4369     1.0  0.70689  0.02714  0.53578  1.0000
  H   H4370     1.0  0.70048  0.05476  0.49702  1.0000
  H   H4371     1.0  0.75946  0.00901  0.52984  1.0000
  C   C3658     1.0  0.70453  0.02185  0.53187  1.0000
  C   C3659     1.0  0.66304  0.00400  0.50518  1.0000
  H   H4372     1.0  0.64845  0.00539  0.55717  1.0000
  H   H4373     1.0  0.63942  0.03716  0.54530  1.0000
  H   H4374     1.0  0.64860  0.99901  0.54649  1.0000
  C   C3660     1.0  0.72492  0.04311  0.50954  1.0000
  C   C3661     1.0  0.62660  0.03542  0.50612  1.0000
  H   H4375     1.0  0.62502  0.07267  0.51849  1.0000
  H   H4376     1.0  0.59731  0.01825  0.50309  1.0000
  H   H4377     1.0  0.77743  0.04939  0.54092  1.0000
  C   C3662     1.0  0.62837  0.02586  0.51413  1.0000
  H   H4378     1.0  0.64743  0.04968  0.54944  1.0000
  C   C3663     1.0  0.69606  0.08953  0.52933  1.0000
  N   N246      1.0  0.71943  0.10958  0.51195  1.0000
  H   H4379     1.0  0.70548  0.08321  0.54167  1.0000
  C   C3664     1.0  0.70029  0.06599  0.52049  1.0000
  C   C3665     1.0  0.62196  0.06898  0.49357  1.0000
  Fe  Fe481     1.0  0.75833  0.06748  0.49141  1.0000
  C   C3666     1.0  0.61747  0.03815  0.50173  1.0000
  S   S971      1.0  0.65316  0.07151  0.51231  1.0000
  H   H4380     1.0  0.68855  0.09681  0.51557  1.0000
  C   C3667     1.0  0.70466  0.08886  0.53388  1.0000
  C   C3668     1.0  0.71562  0.03960  0.51600  1.0000
  S   S972      1.0  0.67865  0.02842  0.49924  1.0000
  H   H4381     1.0  0.72885  0.09764  0.50249  1.0000
  H   H4382     1.0  0.70464  0.01225  0.51639  1.0000
  H   H4383     1.0  0.65326  0.02353  0.52383  1.0000
  H   H4384     1.0  0.71950  0.12679  0.50568  1.0000
  N   N247      1.0  0.70224  0.02765  0.52093  1.0000
  C   C3669     1.0  0.72798  0.03001  0.49846  1.0000
  H   H4385     1.0  0.63558  0.02371  0.51736  1.0000
  S   S973      1.0  0.65389  0.05454  0.49717  1.0000
  C   C3670     1.0  0.76754  0.00676  0.53177  1.0000
  C   C3671     1.0  0.72499  0.10651  0.50126  1.0000
  H   H4386     1.0  0.69424  0.04236  0.52716  1.0000
  C   C3672     1.0  0.71205  0.03131  0.51376  1.0000
  C   C3673     1.0  0.63775  0.01935  0.54204  1.0000
  H   H4387     1.0  0.71936  0.10801  0.49578  1.0000
  H   H4388     1.0  0.77111  0.99818  0.53082  1.0000
  H   H4389     1.0  0.66375  0.01247  0.52826  1.0000
  C   C3674     1.0  0.59468  0.01781  0.51208  1.0000
  C   C3675     1.0  0.62100  0.01901  0.51781  1.0000
  C   C3676     1.0  0.65483  0.01536  0.52954  1.0000
  H   H4390     1.0  0.63463  0.01309  0.54022  1.0000
  H   H4391     1.0  0.69735  0.01899  0.53763  1.0000
  Fe  Fe482     1.0  0.64800  0.05571  0.51481  1.0000
  H   H4392     1.0  0.65178  0.00958  0.52688  1.0000
  H   H4393     1.0  0.73290  0.10009  0.51933  1.0000
  H   H4394     1.0  0.63235  0.04069  0.50336  1.0000
  H   H4395     1.0  0.60320  0.03402  0.50150  1.0000
  H   H4396     1.0  0.70041  0.02236  0.48964  1.0000
  H   H4397     1.0  0.66663  0.04471  0.55065  1.0000
  H   H4398     1.0  0.63540  0.02712  0.53609  1.0000
  H   H4399     1.0  0.60671  0.08378  0.51644  1.0000
  S   S974      1.0  0.66329  0.04532  0.51971  1.0000
  C   C3677     1.0  0.65406  0.02392  0.54405  1.0000
  Fe  Fe483     1.0  0.73815  0.99578  0.51852  1.0000
  C   C3678     1.0  0.65275  0.02047  0.49541  1.0000
  H   H4400     1.0  0.71140  0.04325  0.52295  1.0000
  C   C3679     1.0  0.61849  0.06865  0.51968  1.0000
  H   H4401     1.0  0.68162  0.00037  0.52602  1.0000
  C   C3680     1.0  0.61175  0.05207  0.52428  1.0000
  C   C3681     1.0  0.60147  0.05832  0.52288  1.0000
  H   H4402     1.0  0.78120  0.04353  0.49492  1.0000
  H   H4403     1.0  0.60425  0.99735  0.51760  1.0000
  H   H4404     1.0  0.70183  0.10798  0.50559  1.0000
  H   H4405     1.0  0.69720  0.02403  0.50822  1.0000
  N   N248      1.0  0.76714  0.00788  0.54295  1.0000
  C   C3682     1.0  0.76153  0.01922  0.54405  1.0000
  C   C3683     1.0  0.77850  0.00620  0.54384  1.0000
  H   H4406     1.0  0.61613  0.04550  0.49544  1.0000
  C   C3684     1.0  0.76111  0.00011  0.55142  1.0000
  H   H4407     1.0  0.77241  0.01214  0.52520  1.0000
  H   H4408     1.0  0.74686  0.00491  0.54427  1.0000
  C   C3685     1.0  0.60982  0.00306  0.51536  1.0000
  H   H4409     1.0  0.69570  0.04097  0.49070  1.0000
  H   H4410     1.0  0.73842  0.04097  0.49590  1.0000
  H   H4411     1.0  0.76144  0.02055  0.55217  1.0000
  H   H4412     1.0  0.67792  0.02661  0.54776  1.0000
  H   H4413     1.0  0.75294  0.02106  0.54347  1.0000
  H   H4414     1.0  0.62035  0.06108  0.49905  1.0000
  S   S975      1.0  0.69879  0.99719  0.53686  1.0000
  C   C3686     1.0  0.59962  0.01307  0.52946  1.0000
  H   H4415     1.0  0.70901  0.12375  0.51766  1.0000
  H   H4416     1.0  0.61511  0.07561  0.49619  1.0000
  H   H4417     1.0  0.61398  0.00356  0.50655  1.0000
  H   H4418     1.0  0.61607  0.99908  0.52028  1.0000
  H   H4419     1.0  0.61390  0.01845  0.48927  1.0000
  H   H4420     1.0  0.77895  0.00783  0.55163  1.0000
  C   C3687     1.0  0.77802  0.05129  0.53190  1.0000
  H   H4421     1.0  0.71668  0.06833  0.51631  1.0000
  H   H4422     1.0  0.78301  0.99765  0.54341  1.0000
  H   H4423     1.0  0.72750  0.04930  0.51164  1.0000
  C   C3688     1.0  0.71153  0.10261  0.51804  1.0000
  C   C3689     1.0  0.60813  0.07492  0.51855  1.0000
  H   H4424     1.0  0.62278  0.01162  0.52395  1.0000
  H   H4425     1.0  0.73148  0.11108  0.49667  1.0000
  H   H4426     1.0  0.66406  0.99540  0.50915  1.0000
  C   C3690     1.0  0.68147  0.99293  0.53235  1.0000
  C   C3691     1.0  0.69050  0.06860  0.51711  1.0000
  H   H4427     1.0  0.73374  0.11388  0.51312  1.0000
  H   H4428     1.0  0.76538  0.02544  0.53749  1.0000
  H   H4429     1.0  0.59494  0.05429  0.52418  1.0000
  C   C3692     1.0  0.71531  0.05515  0.48492  1.0000
  C   C3693     1.0  0.72789  0.10858  0.51791  1.0000
  S   S976      1.0  0.64419  0.00248  0.50127  1.0000
  H   H4430     1.0  0.67052  0.01382  0.54301  1.0000
  H   H4431     1.0  0.69024  0.08440  0.53352  1.0000
  C   C3694     1.0  0.69510  0.09656  0.51921  1.0000
  S   S977      1.0  0.74872  0.08475  0.48999  1.0000
  H   H4432     1.0  0.77311  0.99266  0.56172  1.0000
  C   C3695     1.0  0.76517  0.99312  0.56063  1.0000
  S   S978      1.0  0.71872  0.08373  0.49505  1.0000
  H   H4433     1.0  0.77447  0.06021  0.52933  1.0000
  S   S979      1.0  0.73038  0.99360  0.53649  1.0000
  H   H4434     1.0  0.78126  0.03866  0.51449  1.0000
  S   S980      1.0  0.63783  0.99036  0.53253  1.0000
  H   H4435     1.0  0.60250  0.00592  0.48975  1.0000
  H   H4436     1.0  0.58898  0.01217  0.51544  1.0000
  C   C3696     1.0  0.78492  0.04801  0.49818  1.0000
  H   H4437     1.0  0.70341  0.99634  0.48967  1.0000
  C   C3697     1.0  0.75342  0.99180  0.48766  1.0000
  H   H4438     1.0  0.59352  0.00786  0.53268  1.0000
  Fe  Fe484     1.0  0.71668  0.98978  0.53206  1.0000
  S   S981      1.0  0.72377  0.99396  0.51398  1.0000
  C   C3698     1.0  0.78616  0.08930  0.51461  1.0000
  H   H4439     1.0  0.66695  0.99029  0.52979  1.0000
  H   H4440     1.0  0.58991  0.02600  0.51349  1.0000
  C   C3699     1.0  0.74477  0.99250  0.55880  1.0000
  C   C3700     1.0  0.71008  0.98952  0.48807  1.0000
  C   C3701     1.0  0.70315  0.04361  0.48642  1.0000
  H   H4441     1.0  0.58676  0.07163  0.48545  1.0000
  C   C3702     1.0  0.68952  0.98910  0.53849  1.0000
  H   H4442     1.0  0.75423  0.02896  0.48523  1.0000
  H   H4443     1.0  0.77178  0.09317  0.48551  1.0000
  S   S982      1.0  0.58687  0.07781  0.51806  1.0000
  Fe  Fe485     1.0  0.64330  0.98808  0.51525  1.0000
  H   H4444     1.0  0.76639  0.98827  0.49595  1.0000
  H   H4445     1.0  0.58636  0.04287  0.49043  1.0000
  C   C3703     1.0  0.75090  0.47393  0.93071  1.0000
  H   H4446     1.0  0.72837  0.48445  0.94805  1.0000
  C   C3704     1.0  0.70083  0.47859  0.96591  1.0000
  H   H4447     1.0  0.70690  0.41900  0.93757  1.0000
  H   H4448     1.0  0.67379  0.48368  0.92330  1.0000
  Fe  Fe486     1.0  0.61739  0.47381  0.93372  1.0000
  S   S983      1.0  0.62091  0.48080  0.94593  1.0000
  S   S984      1.0  0.59940  0.47945  0.93450  1.0000
  Fe  Fe487     1.0  0.64134  0.46308  0.92662  1.0000
  S   S985      1.0  0.64628  0.46903  0.93859  1.0000
  S   S986      1.0  0.65463  0.45345  0.91548  1.0000
  Fe  Fe488     1.0  0.63155  0.46435  0.95027  1.0000
  S   S987      1.0  0.63117  0.45650  0.96794  1.0000
  H   H4449     1.0  0.61100  0.45335  0.96764  1.0000
  C   C3705     1.0  0.73478  0.46976  0.97652  1.0000
  S   S988      1.0  0.62725  0.45688  0.93897  1.0000
  S   S989      1.0  0.63103  0.47934  0.92014  1.0000
  Fe  Fe489     1.0  0.72948  0.46940  0.91946  1.0000
  S   S990      1.0  0.72022  0.47459  0.93512  1.0000
  Fe  Fe490     1.0  0.70920  0.46581  0.91498  1.0000
  S   S991      1.0  0.69843  0.47085  0.93023  1.0000
  S   S992      1.0  0.70273  0.46044  0.90345  1.0000
  H   H4450     1.0  0.68845  0.42376  0.92717  1.0000
  H   H4451     1.0  0.65454  0.45107  0.98008  1.0000
  Fe  Fe491     1.0  0.71203  0.46077  0.93819  1.0000
  S   S993      1.0  0.71727  0.48013  0.90961  1.0000
  S   S994      1.0  0.72233  0.45456  0.92332  1.0000
  H   H4452     1.0  0.78201  0.46974  0.91939  1.0000
  H   H4453     1.0  0.75390  0.47786  0.94451  1.0000
  C   C3706     1.0  0.66775  0.45614  0.91199  1.0000
  C   C3707     1.0  0.67526  0.45261  0.90297  1.0000
  C   C3708     1.0  0.68586  0.45425  0.90024  1.0000
  C   C3709     1.0  0.68914  0.45921  0.90666  1.0000
  C   C3710     1.0  0.68167  0.46270  0.91569  1.0000
  C   C3711     1.0  0.67100  0.46128  0.91827  1.0000
  H   H4454     1.0  0.67286  0.44861  0.89806  1.0000
  H   H4455     1.0  0.69159  0.45150  0.89324  1.0000
  H   H4456     1.0  0.68412  0.46634  0.92080  1.0000
  H   H4457     1.0  0.66548  0.46385  0.92534  1.0000
  C   C3712     1.0  0.64201  0.47164  0.96824  1.0000
  C   C3713     1.0  0.60286  0.45280  0.96813  1.0000
  C   C3714     1.0  0.59538  0.46134  0.93055  1.0000
  C   C3715     1.0  0.59142  0.47013  0.93582  1.0000
  H   H4458     1.0  0.60852  0.46765  0.97575  1.0000
  C   C3716     1.0  0.67283  0.44663  0.95684  1.0000
  C   C3717     1.0  0.58837  0.45494  0.93054  1.0000
  H   H4459     1.0  0.60375  0.45970  0.92616  1.0000
  H   H4460     1.0  0.73346  0.46444  0.95291  1.0000
  H   H4461     1.0  0.59488  0.47553  0.97756  1.0000
  C   C3718     1.0  0.70332  0.47493  0.97627  1.0000
  H   H4462     1.0  0.67289  0.43625  0.93167  1.0000
  H   H4463     1.0  0.70003  0.47399  0.95158  1.0000
  S   S995      1.0  0.70798  0.45066  0.95519  1.0000
  Fe  Fe492     1.0  0.70753  0.48415  0.92569  1.0000
  C   C3719     1.0  0.73533  0.46375  0.96897  1.0000
  H   H4464     1.0  0.64537  0.47199  0.95960  1.0000
  C   C3720     1.0  0.77335  0.47092  0.92258  1.0000
  H   H4465     1.0  0.68305  0.46453  0.98227  1.0000
  C   C3721     1.0  0.60110  0.44952  0.95953  1.0000
  C   C3722     1.0  0.72983  0.48062  0.95617  1.0000
  S   S996      1.0  0.77672  0.47645  0.94022  1.0000
  H   H4466     1.0  0.65548  0.45063  0.95893  1.0000
  H   H4467     1.0  0.59141  0.44829  0.92624  1.0000
  C   C3723     1.0  0.66347  0.44329  0.94504  1.0000
  H   H4468     1.0  0.70358  0.44253  0.93821  1.0000
  C   C3724     1.0  0.73151  0.48120  0.97404  1.0000
  H   H4469     1.0  0.69362  0.41714  0.94531  1.0000
  S   S997      1.0  0.74744  0.46876  0.91287  1.0000
  C   C3725     1.0  0.76673  0.46938  0.91659  1.0000
  C   C3726     1.0  0.67335  0.43887  0.93868  1.0000
  C   C3727     1.0  0.70541  0.45983  0.96368  1.0000
  H   H4470     1.0  0.70063  0.42490  0.94929  1.0000
  C   C3728     1.0  0.63468  0.46492  0.97414  1.0000
  H   H4471     1.0  0.65135  0.48245  0.96923  1.0000
  Fe  Fe493     1.0  0.63532  0.48480  0.93292  1.0000
  H   H4472     1.0  0.77225  0.48371  0.97263  1.0000
  H   H4473     1.0  0.68828  0.48357  0.90606  1.0000
  H   H4474     1.0  0.67263  0.44970  0.96385  1.0000
  H   H4475     1.0  0.65596  0.44385  0.94279  1.0000
  H   H4476     1.0  0.77033  0.46698  0.90880  1.0000
  C   C3729     1.0  0.59431  0.45531  0.97715  1.0000
  H   H4477     1.0  0.69741  0.44901  0.92669  1.0000
  H   H4478     1.0  0.71015  0.44742  0.97742  1.0000
  H   H4479     1.0  0.69001  0.44184  0.95311  1.0000
  C   C3730     1.0  0.70639  0.46367  0.98053  1.0000
  C   C3731     1.0  0.68276  0.44216  0.95059  1.0000
  N   N249      1.0  0.69396  0.43320  0.93496  1.0000
  C   C3732     1.0  0.76875  0.47398  0.93267  1.0000
  C   C3733     1.0  0.70744  0.45610  0.97425  1.0000
  C   C3734     1.0  0.68335  0.43815  0.94128  1.0000
  H   H4480     1.0  0.68945  0.43747  0.91935  1.0000
  H   H4481     1.0  0.73772  0.45487  0.97097  1.0000
  C   C3735     1.0  0.59081  0.44869  0.95961  1.0000
  C   C3736     1.0  0.75548  0.47082  0.92065  1.0000
  H   H4482     1.0  0.70134  0.42689  0.92019  1.0000
  C   C3737     1.0  0.69322  0.43019  0.92502  1.0000
  C   C3738     1.0  0.75751  0.47549  0.93671  1.0000
  C   C3739     1.0  0.66319  0.44716  0.95409  1.0000
  H   H4483     1.0  0.70899  0.43794  0.92569  1.0000
  H   H4484     1.0  0.60775  0.44767  0.95272  1.0000
  H   H4485     1.0  0.74228  0.47514  0.93384  1.0000
  C   C3740     1.0  0.70186  0.47106  0.95964  1.0000
  C   C3741     1.0  0.69899  0.42311  0.94209  1.0000
  C   C3742     1.0  0.70127  0.44099  0.93128  1.0000
  C   C3743     1.0  0.73290  0.46916  0.95880  1.0000
  C   C3744     1.0  0.64540  0.47758  0.97369  1.0000
  S   S998      1.0  0.70210  0.48456  0.98389  1.0000
  H   H4486     1.0  0.58948  0.44608  0.95297  1.0000
  H   H4487     1.0  0.66574  0.46231  0.98145  1.0000
  C   C3745     1.0  0.60066  0.46884  0.98181  1.0000
  H   H4488     1.0  0.73111  0.48529  0.98033  1.0000
  C   C3746     1.0  0.72878  0.48699  0.96380  1.0000
  H   H4489     1.0  0.69833  0.48724  0.96260  1.0000
  H   H4490     1.0  0.73686  0.46550  0.98437  1.0000
  C   C3747     1.0  0.68656  0.51449  0.04777  1.0000
  C   C3748     1.0  0.68914  0.56239  0.01257  1.0000
  C   C3749     1.0  0.60746  0.52355  0.05603  1.0000
  H   H4491     1.0  0.60168  0.56915  0.03155  1.0000
  C   C3750     1.0  0.63867  0.53565  0.00120  1.0000
  C   C3751     1.0  0.60454  0.53495  0.05404  1.0000
  H   H4492     1.0  0.68915  0.52150  0.04132  1.0000
  C   C3752     1.0  0.77973  0.53880  0.00258  1.0000
  Fe  Fe494     1.0  0.64164  0.55243  0.03211  1.0000
  S   S999      1.0  0.64955  0.53940  0.02249  1.0000
  Fe  Fe495     1.0  0.66262  0.55047  0.03905  1.0000
  S   S1000     1.0  0.67208  0.53729  0.02997  1.0000
  S   S1001     1.0  0.66936  0.55689  0.04948  1.0000
  Fe  Fe496     1.0  0.66356  0.54752  0.01668  1.0000
  H   H4493     1.0  0.68885  0.51303  0.99746  1.0000
  Fe  Fe497     1.0  0.65716  0.53041  0.03675  1.0000
  C   C3753     1.0  0.61021  0.51345  0.01237  1.0000
  S   S1002     1.0  0.65523  0.56148  0.02510  1.0000
  S   S1003     1.0  0.64824  0.54273  0.04700  1.0000
  Fe  Fe498     1.0  0.73280  0.54720  0.03907  1.0000
  S   S1004     1.0  0.73186  0.53842  0.02705  1.0000
  S   S1005     1.0  0.71783  0.55854  0.04624  1.0000
  Fe  Fe499     1.0  0.75676  0.53671  0.03845  1.0000
  S   S1006     1.0  0.75757  0.52712  0.02627  1.0000
  S   S1007     1.0  0.77175  0.53179  0.04533  1.0000
  Fe  Fe500     1.0  0.74783  0.54257  0.01797  1.0000
  S   S1008     1.0  0.75179  0.54823  0.99964  1.0000
  Fe  Fe501     1.0  0.74165  0.52384  0.03662  1.0000
  S   S1009     1.0  0.73972  0.50644  0.04206  1.0000
  S   S1010     1.0  0.74821  0.55265  0.02926  1.0000
  S   S1011     1.0  0.74140  0.53228  0.04947  1.0000
  C   C3754     1.0  0.60084  0.51757  0.05458  1.0000
  C   C3755     1.0  0.61536  0.55576  0.02879  1.0000
  C   C3756     1.0  0.73556  0.52809  0.99563  1.0000
  C   C3757     1.0  0.71226  0.50050  0.03127  1.0000
  H   H4494     1.0  0.67351  0.52691  0.99278  1.0000
  C   C3758     1.0  0.64734  0.50833  0.04243  1.0000
  C   C3759     1.0  0.74114  0.53278  0.00016  1.0000
  H   H4495     1.0  0.76380  0.48929  0.00184  1.0000
  H   H4496     1.0  0.60675  0.52039  0.01662  1.0000
  H   H4497     1.0  0.62839  0.50210  0.00126  1.0000
  H   H4498     1.0  0.72159  0.52139  0.03351  1.0000
  H   H4499     1.0  0.74169  0.52965  0.00864  1.0000
  C   C3760     1.0  0.62961  0.50181  0.04031  1.0000
  H   H4500     1.0  0.60621  0.55458  0.99784  1.0000
  H   H4501     1.0  0.64422  0.54034  0.00136  1.0000
  S   S1012     1.0  0.61886  0.49776  0.03825  1.0000
  N   N250      1.0  0.68346  0.51701  0.05884  1.0000
  H   H4502     1.0  0.77790  0.49611  0.03450  1.0000
  H   H4503     1.0  0.64997  0.56084  0.00570  1.0000
  H   H4504     1.0  0.74762  0.50247  0.00064  1.0000
  C   C3761     1.0  0.68308  0.55704  0.04774  1.0000
  C   C3762     1.0  0.69170  0.55035  0.04182  1.0000
  C   C3763     1.0  0.70251  0.55055  0.04130  1.0000
  C   C3764     1.0  0.70464  0.55759  0.04652  1.0000
  C   C3765     1.0  0.69597  0.56428  0.05227  1.0000
  C   C3766     1.0  0.68530  0.56392  0.05298  1.0000
  H   H4505     1.0  0.69005  0.54494  0.03782  1.0000
  H   H4506     1.0  0.70913  0.54529  0.03690  1.0000
  H   H4507     1.0  0.69752  0.56972  0.05633  1.0000
  H   H4508     1.0  0.67871  0.56906  0.05761  1.0000
  H   H4509     1.0  0.71039  0.56226  0.98832  1.0000
  H   H4510     1.0  0.77176  0.54110  0.00766  1.0000
  N   N251      1.0  0.77114  0.49621  0.05160  1.0000
  C   C3767     1.0  0.58823  0.53455  0.04927  1.0000
  C   C3768     1.0  0.63261  0.53932  0.99316  1.0000
  C   C3769     1.0  0.69781  0.54701  0.99864  1.0000
  C   C3770     1.0  0.60138  0.54752  0.02179  1.0000
  C   C3771     1.0  0.66120  0.55497  0.99187  1.0000
  H   H4511     1.0  0.77194  0.55389  0.03218  1.0000
  H   H4512     1.0  0.70768  0.57385  0.02295  1.0000
  H   H4513     1.0  0.61351  0.56386  0.99868  1.0000
  C   C3772     1.0  0.60460  0.56150  0.02883  1.0000
  H   H4514     1.0  0.60984  0.53959  0.05488  1.0000
  H   H4515     1.0  0.70517  0.50716  0.05623  1.0000
  H   H4516     1.0  0.62252  0.51909  0.03626  1.0000
  N   N252      1.0  0.70563  0.55018  0.00281  1.0000
  H   H4517     1.0  0.64266  0.52287  0.01498  1.0000
  H   H4518     1.0  0.61493  0.53406  0.01938  1.0000
  H   H4519     1.0  0.67451  0.49100  0.01446  1.0000
  C   C3773     1.0  0.74597  0.54146  0.99371  1.0000
  H   H4520     1.0  0.66411  0.49975  0.02267  1.0000
  H   H4521     1.0  0.66008  0.49766  0.00660  1.0000
  C   C3774     1.0  0.72129  0.51313  0.03387  1.0000
  C   C3775     1.0  0.62538  0.53336  0.99291  1.0000
  H   H4522     1.0  0.63513  0.56948  0.99602  1.0000
  H   H4523     1.0  0.78498  0.51009  0.04684  1.0000
  H   H4524     1.0  0.60345  0.50977  0.01263  1.0000
  C   C3776     1.0  0.62234  0.50740  0.99642  1.0000
  H   H4525     1.0  0.71803  0.54146  0.01193  1.0000
  H   H4526     1.0  0.61503  0.51932  0.05849  1.0000
  H   H4527     1.0  0.64917  0.50395  0.99293  1.0000
  H   H4528     1.0  0.63791  0.52481  0.03870  1.0000
  C   C3777     1.0  0.63072  0.51972  0.00858  1.0000
  C   C3778     1.0  0.75105  0.50543  0.99173  1.0000
  H   H4529     1.0  0.76378  0.50237  0.03750  1.0000
  C   C3779     1.0  0.67268  0.49835  0.01796  1.0000
  C   C3780     1.0  0.65499  0.51872  0.98532  1.0000
  C   C3781     1.0  0.60798  0.52353  0.99442  1.0000
  C   C3782     1.0  0.71147  0.51855  0.06019  1.0000
  H   H4530     1.0  0.66954  0.52672  0.06794  1.0000
  H   H4531     1.0  0.67378  0.53305  0.05366  1.0000
  H   H4532     1.0  0.69332  0.55422  0.99349  1.0000
  S   S1013     1.0  0.59342  0.54242  0.01635  1.0000
  H   H4533     1.0  0.76653  0.51182  0.05629  1.0000
  C   C3783     1.0  0.68176  0.50687  0.06719  1.0000
  C   C3784     1.0  0.59489  0.54043  0.05077  1.0000
  C   C3785     1.0  0.69023  0.53072  0.06447  1.0000
  C   C3786     1.0  0.63857  0.49393  0.04329  1.0000
  C   C3787     1.0  0.68638  0.50573  0.00349  1.0000
  C   C3788     1.0  0.61204  0.54176  0.02193  1.0000
  C   C3789     1.0  0.60919  0.56215  0.99331  1.0000
  C   C3790     1.0  0.63824  0.51621  0.03978  1.0000
  H   H4534     1.0  0.68228  0.53598  0.06609  1.0000
  C   C3791     1.0  0.66792  0.51173  0.00124  1.0000
  H   H4535     1.0  0.76306  0.50058  0.06713  1.0000
  H   H4536     1.0  0.69709  0.54200  0.06837  1.0000
  C   C3792     1.0  0.70055  0.55871  0.00934  1.0000
  N   N253      1.0  0.75848  0.49644  0.98664  1.0000
  C   C3793     1.0  0.72906  0.50429  0.03795  1.0000
  H   H4537     1.0  0.61526  0.56023  0.98583  1.0000
  H   H4538     1.0  0.63356  0.54681  0.98706  1.0000
  H   H4539     1.0  0.62698  0.50976  0.98788  1.0000
  H   H4540     1.0  0.68793  0.49911  0.99901  1.0000
  C   C3794     1.0  0.62396  0.52353  0.00087  1.0000
  C   C3795     1.0  0.58741  0.50479  0.05240  1.0000
  C   C3796     1.0  0.71387  0.55413  0.99313  1.0000
  H   H4541     1.0  0.67780  0.49619  0.02412  1.0000
  C   C3797     1.0  0.59249  0.57383  0.00060  1.0000
  S   S1014     1.0  0.62404  0.56121  0.03295  1.0000
  H   H4542     1.0  0.61538  0.50697  0.01740  1.0000
  C   C3798     1.0  0.72824  0.49357  0.03894  1.0000
  C   C3799     1.0  0.70932  0.52834  0.06357  1.0000
  S   S1015     1.0  0.70182  0.49814  0.02703  1.0000
  C   C3800     1.0  0.69871  0.53431  0.06587  1.0000
  H   H4543     1.0  0.67948  0.50838  0.07565  1.0000
  H   H4544     1.0  0.69190  0.54308  0.00549  1.0000
  N   N254      1.0  0.60031  0.57153  0.99036  1.0000
  N   N255      1.0  0.67489  0.50823  0.00933  1.0000
  C   C3801     1.0  0.61899  0.54580  0.02544  1.0000
  H   H4545     1.0  0.75544  0.50641  0.05650  1.0000
  C   C3802     1.0  0.69218  0.52093  0.06069  1.0000
  C   C3803     1.0  0.70305  0.51482  0.05887  1.0000
  H   H4546     1.0  0.72107  0.55494  0.99543  1.0000
  C   C3804     1.0  0.67330  0.51712  0.01508  1.0000
  H   H4547     1.0  0.62712  0.54117  0.02560  1.0000
  C   C3805     1.0  0.67294  0.52511  0.05954  1.0000
  C   C3806     1.0  0.62942  0.51295  0.03860  1.0000
  C   C3807     1.0  0.76853  0.56642  0.00063  1.0000
  H   H4548     1.0  0.63049  0.51208  0.01459  1.0000
  C   C3808     1.0  0.59097  0.52292  0.05115  1.0000
  H   H4549     1.0  0.71582  0.56041  0.01147  1.0000
  S   S1016     1.0  0.65878  0.51230  0.04305  1.0000
  S   S1017     1.0  0.67161  0.54878  0.99894  1.0000
  H   H4550     1.0  0.71588  0.53140  0.06429  1.0000
  C   C3809     1.0  0.65461  0.50883  0.99296  1.0000
  C   C3810     1.0  0.59758  0.55735  0.02543  1.0000
  C   C3811     1.0  0.71992  0.49167  0.03549  1.0000
  H   H4551     1.0  0.77358  0.53522  0.99062  1.0000
  H   H4552     1.0  0.61692  0.50227  0.99629  1.0000
  H   H4553     1.0  0.65441  0.49106  0.04651  1.0000
  C   C3812     1.0  0.78210  0.49355  0.05386  1.0000
  H   H4554     1.0  0.73161  0.52156  0.00073  1.0000
  N   N256      1.0  0.61622  0.51716  0.00097  1.0000
  C   C3813     1.0  0.64746  0.49719  0.04429  1.0000
  H   H4555     1.0  0.76097  0.56499  0.00624  1.0000
  C   C3814     1.0  0.71093  0.54019  0.00983  1.0000
  C   C3815     1.0  0.65123  0.56035  0.99728  1.0000
  C   C3816     1.0  0.71287  0.51123  0.03056  1.0000
  H   H4556     1.0  0.70192  0.54091  0.99341  1.0000
  H   H4557     1.0  0.59623  0.57645  0.00587  1.0000
  H   H4558     1.0  0.70688  0.51805  0.02741  1.0000
  C   C3817     1.0  0.78076  0.53547  0.99298  1.0000
  H   H4559     1.0  0.69325  0.50714  0.04711  1.0000
  H   H4560     1.0  0.58790  0.50193  0.06119  1.0000
  H   H4561     1.0  0.71390  0.53315  0.00571  1.0000
  H   H4562     1.0  0.67587  0.52458  0.00952  1.0000
  H   H4563     1.0  0.60178  0.51888  0.99527  1.0000
  C   C3818     1.0  0.77023  0.56625  0.98956  1.0000
  H   H4564     1.0  0.60364  0.53133  0.99714  1.0000
  H   H4565     1.0  0.59546  0.50187  0.04720  1.0000
  C   C3819     1.0  0.63781  0.52582  0.00883  1.0000
  H   H4566     1.0  0.68781  0.57993  0.02826  1.0000
  C   C3820     1.0  0.69133  0.57429  0.02279  1.0000
  H   H4567     1.0  0.58858  0.55557  0.99595  1.0000
  H   H4568     1.0  0.68347  0.55932  0.01027  1.0000
  H   H4569     1.0  0.75524  0.51194  0.99125  1.0000
  H   H4570     1.0  0.60377  0.50878  0.05601  1.0000
  C   C3821     1.0  0.68465  0.57006  0.01922  1.0000
  H   H4571     1.0  0.68918  0.50018  0.06669  1.0000
  H   H4572     1.0  0.76368  0.56470  0.98718  1.0000
  C   C3822     1.0  0.77987  0.55013  0.03392  1.0000
  H   H4573     1.0  0.67520  0.50369  0.06607  1.0000
  H   H4574     1.0  0.66464  0.51952  0.01915  1.0000
  H   H4575     1.0  0.59268  0.54931  0.04919  1.0000
  H   H4576     1.0  0.66667  0.52219  0.05757  1.0000
  H   H4577     1.0  0.67979  0.51257  0.04563  1.0000
  C   C3823     1.0  0.76373  0.50408  0.05817  1.0000
  C   C3824     1.0  0.66093  0.50533  0.00084  1.0000
  H   H4578     1.0  0.71975  0.51391  0.05842  1.0000
  H   H4579     1.0  0.58944  0.56650  0.00583  1.0000
  C   C3825     1.0  0.64280  0.56530  0.99178  1.0000
  C   C3826     1.0  0.78187  0.53942  0.04016  1.0000
  C   C3827     1.0  0.70253  0.57087  0.01976  1.0000
  H   H4580     1.0  0.67804  0.51448  0.02161  1.0000
  H   H4581     1.0  0.67594  0.57248  0.02194  1.0000
  H   H4582     1.0  0.70522  0.53768  0.01772  1.0000
  H   H4583     1.0  0.69190  0.50291  0.00928  1.0000
  H   H4584     1.0  0.74403  0.50910  0.98776  1.0000
  C   C3828     1.0  0.70710  0.56314  0.01321  1.0000
  C   C3829     1.0  0.66828  0.52166  0.99315  1.0000
  H   H4585     1.0  0.60906  0.58323  0.99054  1.0000
  C   C3830     1.0  0.77647  0.56840  0.00449  1.0000
  H   H4586     1.0  0.77242  0.49736  0.99154  1.0000
  C   C3831     1.0  0.75217  0.48816  0.98799  1.0000
  H   H4587     1.0  0.59153  0.51796  0.03234  1.0000
  H   H4588     1.0  0.75834  0.48868  0.05189  1.0000
  H   H4589     1.0  0.77501  0.56864  0.01306  1.0000
  H   H4590     1.0  0.58929  0.56178  0.02558  1.0000
  H   H4591     1.0  0.67895  0.57236  0.98870  1.0000
  H   H4592     1.0  0.62105  0.53660  0.98638  1.0000
  C   C3832     1.0  0.66325  0.58138  0.98598  1.0000
  C   C3833     1.0  0.77162  0.50129  0.03976  1.0000
  C   C3834     1.0  0.76719  0.49152  0.99284  1.0000
  H   H4593     1.0  0.77347  0.50957  0.03741  1.0000
  H   H4594     1.0  0.65957  0.58042  0.99469  1.0000
  H   H4595     1.0  0.71704  0.54840  0.98745  1.0000
  C   C3835     1.0  0.58901  0.56023  0.98760  1.0000
  H   H4596     1.0  0.61161  0.52547  0.98549  1.0000
  C   C3836     1.0  0.66189  0.52508  0.98534  1.0000
  C   C3837     1.0  0.60505  0.58134  0.98502  1.0000
  C   C3838     1.0  0.78621  0.57014  0.99732  1.0000
  S   S1018     1.0  0.62800  0.94581  0.47788  1.0000
  C   C3839     1.0  0.66063  0.96806  0.44533  1.0000
  H   H4597     1.0  0.72068  0.94410  0.48218  1.0000
  H   H4598     1.0  0.68008  0.93702  0.47547  1.0000
  Fe  Fe502     1.0  0.61225  0.97168  0.44678  1.0000
  H   H4599     1.0  0.78176  0.94461  0.45094  1.0000
  C   C3840     1.0  0.58989  0.95724  0.44797  1.0000
  C   C3841     1.0  0.76794  0.95508  0.43046  1.0000
  S   S1019     1.0  0.69239  0.95976  0.44645  1.0000
  C   C3842     1.0  0.66813  0.98399  0.43553  1.0000
  C   C3843     1.0  0.68412  0.97733  0.47416  1.0000
  H   H4600     1.0  0.58685  0.97377  0.42313  1.0000
  H   H4601     1.0  0.77384  0.97356  0.43523  1.0000
  H   H4602     1.0  0.67196  0.95369  0.45145  1.0000
  H   H4603     1.0  0.63867  0.98593  0.41710  1.0000
  S   S1020     1.0  0.74232  0.95296  0.45660  1.0000
  C   C3844     1.0  0.67975  0.96730  0.44351  1.0000
  C   C3845     1.0  0.76437  0.94831  0.45332  1.0000
  H   H4604     1.0  0.75049  0.95908  0.43292  1.0000
  H   H4605     1.0  0.58844  0.97935  0.48110  1.0000
  H   H4606     1.0  0.76825  0.96325  0.46587  1.0000
  Fe  Fe503     1.0  0.62357  0.96142  0.46567  1.0000
  S   S1021     1.0  0.72264  0.96453  0.43422  1.0000
  H   H4607     1.0  0.66077  0.98257  0.45838  1.0000
  H   H4608     1.0  0.77907  0.96204  0.47220  1.0000
  Fe  Fe504     1.0  0.63211  0.97910  0.44740  1.0000
  C   C3846     1.0  0.75729  0.95596  0.43686  1.0000
  C   C3847     1.0  0.68280  0.96699  0.47430  1.0000
  H   H4609     1.0  0.75827  0.94455  0.48376  1.0000
  C   C3848     1.0  0.75557  0.95346  0.48372  1.0000
  H   H4610     1.0  0.74783  0.97448  0.47606  1.0000
  S   S1022     1.0  0.72847  0.98196  0.44476  1.0000
  C   C3849     1.0  0.77224  0.95837  0.47275  1.0000
  C   C3850     1.0  0.68139  0.94531  0.47477  1.0000
  H   H4611     1.0  0.68817  0.96306  0.46789  1.0000
  H   H4612     1.0  0.66200  0.95775  0.47200  1.0000
  S   S1023     1.0  0.62759  0.97701  0.46569  1.0000
  Fe  Fe505     1.0  0.72117  0.98274  0.43089  1.0000
  H   H4613     1.0  0.64839  0.98002  0.46710  1.0000
  Fe  Fe506     1.0  0.70577  0.96833  0.44460  1.0000
  H   H4614     1.0  0.59519  0.95492  0.45365  1.0000
  H   H4615     1.0  0.65384  0.96409  0.44832  1.0000
  H   H4616     1.0  0.62555  0.97809  0.41296  1.0000
  H   H4617     1.0  0.76931  0.95759  0.42160  1.0000
  C   C3851     1.0  0.67833  0.97822  0.43766  1.0000
  S   S1024     1.0  0.71184  0.96600  0.45975  1.0000
  H   H4618     1.0  0.69030  0.98095  0.46785  1.0000
  C   C3852     1.0  0.72665  0.97124  0.48440  1.0000
  S   S1025     1.0  0.62944  0.96281  0.44740  1.0000
  H   H4619     1.0  0.68110  0.94975  0.46618  1.0000
  Fe  Fe507     1.0  0.72856  0.96408  0.44901  1.0000
  C   C3853     1.0  0.75550  0.95246  0.44831  1.0000
  S   S1026     1.0  0.60616  0.96880  0.46502  1.0000
  H   H4620     1.0  0.76302  0.94538  0.46213  1.0000
  C   C3854     1.0  0.67090  0.96221  0.44719  1.0000
  S   S1027     1.0  0.60298  0.97148  0.43467  1.0000
  C   C3855     1.0  0.77497  0.94782  0.44698  1.0000
  H   H4621     1.0  0.77581  0.94992  0.47133  1.0000
  C   C3856     1.0  0.65923  0.97897  0.43947  1.0000
  Fe  Fe508     1.0  0.71142  0.98399  0.45457  1.0000
  C   C3857     1.0  0.59204  0.96498  0.43813  1.0000
  H   H4622     1.0  0.68513  0.98216  0.43464  1.0000
  Fe  Fe509     1.0  0.61068  0.98460  0.46352  1.0000
  C   C3858     1.0  0.77680  0.95107  0.43552  1.0000
  H   H4623     1.0  0.72355  0.97511  0.46832  1.0000
  H   H4624     1.0  0.75208  0.95711  0.47630  1.0000
  C   C3859     1.0  0.71285  0.98655  0.47793  1.0000
  H   H4625     1.0  0.75496  0.97979  0.44258  1.0000
  C   C3860     1.0  0.72121  0.97745  0.47611  1.0000
  S   S1028     1.0  0.70395  0.98660  0.44027  1.0000
  H   H4626     1.0  0.59358  0.95020  0.48066  1.0000
  H   H4627     1.0  0.68973  0.94416  0.47588  1.0000
  H   H4628     1.0  0.78279  0.97620  0.42209  1.0000
  N   N257      1.0  0.76459  0.95832  0.48354  1.0000
  H   H4629     1.0  0.65934  0.97986  0.47284  1.0000
  H   H4630     1.0  0.75910  0.97891  0.42515  1.0000
  C   C3861     1.0  0.67745  0.98316  0.48196  1.0000
  S   S1029     1.0  0.64632  0.98671  0.43762  1.0000
  C   C3862     1.0  0.66241  0.95258  0.48037  1.0000
  H   H4631     1.0  0.76747  0.98317  0.41218  1.0000
  H   H4632     1.0  0.66065  0.94457  0.48074  1.0000
  C   C3863     1.0  0.77748  0.98008  0.42895  1.0000
  C   C3864     1.0  0.75198  0.97702  0.48064  1.0000
  H   H4633     1.0  0.73286  0.96405  0.48295  1.0000
  C   C3865     1.0  0.76259  0.98594  0.41981  1.0000
  C   C3866     1.0  0.62311  0.98622  0.41469  1.0000
  H   H4634     1.0  0.70168  0.95310  0.48159  1.0000
  N   N258      1.0  0.67311  0.95117  0.48281  1.0000
  H   H4635     1.0  0.78278  0.98260  0.43269  1.0000
  C   C3867     1.0  0.65507  0.98410  0.46611  1.0000
  C   C3868     1.0  0.67480  0.96206  0.48248  1.0000
  H   H4636     1.0  0.74321  0.98715  0.45821  1.0000
  H   H4637     1.0  0.60532  0.93963  0.51526  1.0000
  Fe  Fe510     1.0  0.62645  0.97959  0.53434  1.0000
  H   H4638     1.0  0.69552  0.96986  0.52840  1.0000
  C   C3869     1.0  0.71266  0.95191  0.50666  1.0000
  H   H4639     1.0  0.68972  0.96155  0.49654  1.0000
  C   C3870     1.0  0.76072  0.96976  0.48509  1.0000
  C   C3871     1.0  0.71538  0.94758  0.48900  1.0000
  C   C3872     1.0  0.77635  0.97565  0.53906  1.0000
  C   C3873     1.0  0.66930  0.97875  0.48987  1.0000
  C   C3874     1.0  0.63903  0.93736  0.49427  1.0000
  Fe  Fe511     1.0  0.64365  0.96393  0.52169  1.0000
  H   H4640     1.0  0.76268  0.97723  0.53221  1.0000
  H   H4641     1.0  0.68488  0.97965  0.51624  1.0000
  H   H4642     1.0  0.70421  0.95689  0.52753  1.0000
  C   C3875     1.0  0.71931  0.94703  0.49807  1.0000
  H   H4643     1.0  0.63431  0.96514  0.50221  1.0000
  H   H4644     1.0  0.59378  0.93413  0.51684  1.0000
  H   H4645     1.0  0.68121  0.94288  0.49609  1.0000
  C   C3876     1.0  0.69794  0.95765  0.49721  1.0000
  C   C3877     1.0  0.59715  0.94164  0.51338  1.0000
  H   H4646     1.0  0.74899  0.95443  0.49115  1.0000
  H   H4647     1.0  0.60107  0.96195  0.52170  1.0000
  C   C3878     1.0  0.74903  0.98570  0.56765  1.0000
  S   S1030     1.0  0.74742  0.96613  0.55014  1.0000
  C   C3879     1.0  0.76613  0.97399  0.53939  1.0000
  H   H4648     1.0  0.71325  0.98548  0.50424  1.0000
  C   C3880     1.0  0.64162  0.94789  0.50570  1.0000
  H   H4649     1.0  0.69040  0.94874  0.52572  1.0000
  H   H4650     1.0  0.68134  0.95624  0.51679  1.0000
  H   H4651     1.0  0.77841  0.96274  0.56527  1.0000
  Fe  Fe512     1.0  0.73153  0.97612  0.51637  1.0000
  H   H4652     1.0  0.72768  0.94310  0.49830  1.0000
  C   C3881     1.0  0.70185  0.95773  0.50630  1.0000
  H   H4653     1.0  0.61304  0.96832  0.52900  1.0000
  S   S1031     1.0  0.64770  0.94825  0.51596  1.0000
  Fe  Fe513     1.0  0.73830  0.97583  0.53692  1.0000
  S   S1032     1.0  0.72380  0.97175  0.53425  1.0000
  H   H4654     1.0  0.68280  0.97443  0.50603  1.0000
  C   C3882     1.0  0.76514  0.96377  0.55819  1.0000
  C   C3883     1.0  0.77511  0.96578  0.55798  1.0000
  S   S1033     1.0  0.65653  0.97331  0.51848  1.0000
  C   C3884     1.0  0.63317  0.94685  0.48852  1.0000
  H   H4655     1.0  0.76085  0.95915  0.56562  1.0000
  H   H4656     1.0  0.64037  0.92959  0.49206  1.0000
  H   H4657     1.0  0.68103  0.96118  0.52846  1.0000
  H   H4658     1.0  0.69537  0.97663  0.55163  1.0000
  N   N259      1.0  0.69477  0.96349  0.51499  1.0000
  C   C3885     1.0  0.76044  0.96812  0.54903  1.0000
  H   H4659     1.0  0.59586  0.96243  0.50116  1.0000
  C   C3886     1.0  0.60176  0.95567  0.49754  1.0000
  C   C3887     1.0  0.60184  0.95698  0.55784  1.0000
  H   H4660     1.0  0.76516  0.95161  0.50057  1.0000
  C   C3888     1.0  0.68914  0.97462  0.51001  1.0000
  H   H4661     1.0  0.67218  0.93567  0.49437  1.0000
  H   H4662     1.0  0.70756  0.96906  0.51773  1.0000
  S   S1034     1.0  0.74674  0.97823  0.51919  1.0000
  Fe  Fe514     1.0  0.65012  0.97468  0.53601  1.0000
  C   C3889     1.0  0.67337  0.94395  0.49387  1.0000
  H   H4663     1.0  0.60763  0.93941  0.48693  1.0000
  H   H4664     1.0  0.71635  0.95134  0.51329  1.0000
  S   S1035     1.0  0.66198  0.97115  0.54676  1.0000
  H   H4665     1.0  0.65570  0.95655  0.48629  1.0000
  H   H4666     1.0  0.64796  0.93053  0.50707  1.0000
  C   C3890     1.0  0.70081  0.96487  0.52243  1.0000
  C   C3891     1.0  0.72411  0.97432  0.49443  1.0000
  H   H4667     1.0  0.78079  0.98002  0.53158  1.0000
  H   H4668     1.0  0.59699  0.97192  0.56358  1.0000
  C   C3892     1.0  0.59764  0.96823  0.52643  1.0000
  S   S1036     1.0  0.63817  0.96400  0.53965  1.0000
  C   C3893     1.0  0.63560  0.95738  0.50008  1.0000
  C   C3894     1.0  0.60446  0.97191  0.53049  1.0000
  C   C3895     1.0  0.68653  0.95714  0.52176  1.0000
  S   S1037     1.0  0.73148  0.96658  0.50446  1.0000
  C   C3896     1.0  0.64331  0.93790  0.50276  1.0000
  H   H4669     1.0  0.69496  0.97915  0.50375  1.0000
  H   H4670     1.0  0.77303  0.96954  0.49360  1.0000
  S   S1038     1.0  0.63106  0.97864  0.51666  1.0000
  C   C3897     1.0  0.76237  0.98510  0.49165  1.0000
  H   H4671     1.0  0.77819  0.95275  0.49148  1.0000
  C   C3898     1.0  0.70466  0.95273  0.48866  1.0000
  H   H4672     1.0  0.68059  0.96680  0.55565  1.0000
  C   C3899     1.0  0.71572  0.98341  0.49631  1.0000
  H   H4673     1.0  0.61040  0.95694  0.55603  1.0000
  C   C3900     1.0  0.60563  0.93682  0.49603  1.0000
  C   C3901     1.0  0.58709  0.94754  0.49843  1.0000
  H   H4674     1.0  0.78289  0.94968  0.53806  1.0000
  C   C3902     1.0  0.60016  0.97997  0.53668  1.0000
  C   C3903     1.0  0.58895  0.98434  0.53879  1.0000
  H   H4675     1.0  0.60332  0.95845  0.48845  1.0000
  C   C3904     1.0  0.63140  0.95687  0.49147  1.0000
  H   H4676     1.0  0.62663  0.96418  0.48729  1.0000
  C   C3905     1.0  0.67276  0.97791  0.54301  1.0000
  C   C3906     1.0  0.78066  0.97188  0.54850  1.0000
  H   H4677     1.0  0.59218  0.94809  0.51791  1.0000
  C   C3907     1.0  0.59424  0.96543  0.56213  1.0000
  C   C3908     1.0  0.68090  0.97402  0.54903  1.0000
  H   H4678     1.0  0.66684  0.94718  0.50041  1.0000
  H   H4679     1.0  0.76252  0.98061  0.57540  1.0000
  H   H4680     1.0  0.66382  0.98359  0.49559  1.0000
  H   H4681     1.0  0.60957  0.95454  0.49986  1.0000
  H   H4682     1.0  0.74459  0.97990  0.57359  1.0000
  H   H4683     1.0  0.66144  0.96531  0.49644  1.0000
  S   S1039     1.0  0.60866  0.98457  0.54190  1.0000
  N   N260      1.0  0.59767  0.94543  0.50137  1.0000
  C   C3909     1.0  0.66801  0.96831  0.49024  1.0000
  H   H4684     1.0  0.60258  0.92916  0.49820  1.0000
  H   H4685     1.0  0.77221  0.94221  0.49169  1.0000
  H   H4686     1.0  0.61356  0.93474  0.49844  1.0000
  C   C3910     1.0  0.76604  0.97425  0.49036  1.0000
  C   C3911     1.0  0.68930  0.97953  0.54672  1.0000
  C   C3912     1.0  0.59842  0.94875  0.55570  1.0000
  H   H4687     1.0  0.60439  0.94221  0.55233  1.0000
  C   C3913     1.0  0.77023  0.95096  0.49223  1.0000
  C   C3914     1.0  0.75914  0.98611  0.56863  1.0000
  C   C3915     1.0  0.58737  0.94899  0.55775  1.0000
  C   C3916     1.0  0.58645  0.97254  0.52857  1.0000
  C   C3917     1.0  0.67318  0.98726  0.53449  1.0000
  C   C3918     1.0  0.58646  0.94974  0.48725  1.0000
  C   C3919     1.0  0.63131  0.50564  0.95919  1.0000
  Fe  Fe515     1.0  0.64661  0.55284  0.94166  1.0000
  S   S1040     1.0  0.64534  0.54551  0.95963  1.0000
  S   S1041     1.0  0.66346  0.54910  0.93126  1.0000
  Fe  Fe516     1.0  0.62227  0.56249  0.94469  1.0000
  S   S1042     1.0  0.61920  0.55572  0.96287  1.0000
  S   S1043     1.0  0.60817  0.57300  0.93743  1.0000
  Fe  Fe517     1.0  0.63399  0.56147  0.96187  1.0000
  S   S1044     1.0  0.63348  0.57057  0.97431  1.0000
  Fe  Fe518     1.0  0.63086  0.54058  0.95861  1.0000
  S   S1045     1.0  0.62894  0.52357  0.96744  1.0000
  S   S1046     1.0  0.63639  0.56939  0.94399  1.0000
  S   S1047     1.0  0.63270  0.54684  0.94035  1.0000
  Fe  Fe519     1.0  0.73705  0.55334  0.94377  1.0000
  S   S1048     1.0  0.74146  0.53499  0.94820  1.0000
  S   S1049     1.0  0.75026  0.56295  0.93815  1.0000
  Fe  Fe520     1.0  0.71291  0.55369  0.94799  1.0000
  S   S1050     1.0  0.71552  0.53538  0.95291  1.0000
  S   S1051     1.0  0.69572  0.56337  0.94987  1.0000
  Fe  Fe521     1.0  0.72701  0.53652  0.96209  1.0000
  H   H4688     1.0  0.58794  0.52430  0.95589  1.0000
  Fe  Fe522     1.0  0.72959  0.53584  0.93848  1.0000
  S   S1052     1.0  0.73468  0.52426  0.92725  1.0000
  S   S1053     1.0  0.72328  0.55488  0.95850  1.0000
  S   S1054     1.0  0.72624  0.55411  0.93275  1.0000
  H   H4689     1.0  0.65824  0.51394  0.91428  1.0000
  H   H4690     1.0  0.59969  0.54438  0.90767  1.0000
  C   C3920     1.0  0.77209  0.51648  0.92113  1.0000
  C   C3921     1.0  0.71347  0.52283  0.93110  1.0000
  C   C3922     1.0  0.72438  0.51832  0.92711  1.0000
  C   C3923     1.0  0.65543  0.58573  0.95162  1.0000
  C   C3924     1.0  0.73512  0.53183  0.98454  1.0000
  C   C3925     1.0  0.59153  0.52784  0.94720  1.0000
  H   H4691     1.0  0.71122  0.53038  0.93393  1.0000
  H   H4692     1.0  0.68481  0.53800  0.95597  1.0000
  C   C3926     1.0  0.58742  0.56072  0.92283  1.0000
  C   C3927     1.0  0.67265  0.55295  0.93624  1.0000
  C   C3928     1.0  0.66876  0.55856  0.94476  1.0000
  C   C3929     1.0  0.67597  0.56145  0.94901  1.0000
  C   C3930     1.0  0.68711  0.55902  0.94460  1.0000
  C   C3931     1.0  0.69108  0.55325  0.93614  1.0000
  C   C3932     1.0  0.68384  0.55021  0.93196  1.0000
  H   H4693     1.0  0.66017  0.56071  0.94804  1.0000
  H   H4694     1.0  0.67291  0.56545  0.95584  1.0000
  H   H4695     1.0  0.69970  0.55128  0.93273  1.0000
  H   H4696     1.0  0.68692  0.54580  0.92541  1.0000
  C   C3933     1.0  0.63436  0.50026  0.95047  1.0000
  C   C3934     1.0  0.66459  0.52770  0.91292  1.0000
  H   H4697     1.0  0.65010  0.58940  0.94563  1.0000
  C   C3935     1.0  0.64098  0.51957  0.94777  1.0000
  H   H4698     1.0  0.76522  0.57196  0.96890  1.0000
  H   H4699     1.0  0.66496  0.52274  0.94273  1.0000
  H   H4700     1.0  0.64406  0.52668  0.94688  1.0000
  H   H4701     1.0  0.62640  0.50230  0.96697  1.0000
  H   H4702     1.0  0.65270  0.57823  0.95700  1.0000
  H   H4703     1.0  0.67509  0.53017  0.94796  1.0000
  N   N261      1.0  0.78194  0.56830  0.97013  1.0000
  H   H4704     1.0  0.65526  0.55857  0.96715  1.0000
  H   H4705     1.0  0.63889  0.60206  0.95629  1.0000
  C   C3936     1.0  0.77035  0.49233  0.96880  1.0000
  H   H4706     1.0  0.66369  0.58307  0.94672  1.0000
  C   C3937     1.0  0.72330  0.50438  0.97022  1.0000
  C   C3938     1.0  0.76258  0.55661  0.94231  1.0000
  C   C3939     1.0  0.76337  0.54714  0.95067  1.0000
  H   H4707     1.0  0.64259  0.60407  0.96771  1.0000
  C   C3940     1.0  0.76113  0.51124  0.96903  1.0000
  C   C3941     1.0  0.59486  0.56872  0.98330  1.0000
  H   H4708     1.0  0.75632  0.54375  0.95482  1.0000
  C   C3942     1.0  0.64423  0.56461  0.98093  1.0000
  C   C3943     1.0  0.60240  0.56919  0.92052  1.0000
  C   C3944     1.0  0.60150  0.56656  0.93189  1.0000
  C   C3945     1.0  0.59382  0.56058  0.93872  1.0000
  H   H4709     1.0  0.75575  0.51774  0.97286  1.0000
  H   H4710     1.0  0.60818  0.57397  0.91521  1.0000
  H   H4711     1.0  0.59300  0.55865  0.94751  1.0000
  C   C3946     1.0  0.74582  0.54497  0.98255  1.0000
  H   H4712     1.0  0.69700  0.52110  0.93430  1.0000
  C   C3947     1.0  0.74046  0.54010  0.97796  1.0000
  H   H4713     1.0  0.70894  0.49909  0.96238  1.0000
  H   H4714     1.0  0.61163  0.50511  0.94545  1.0000
  C   C3948     1.0  0.77178  0.56105  0.93712  1.0000
  H   H4715     1.0  0.68739  0.57401  0.96886  1.0000
  C   C3949     1.0  0.70542  0.51763  0.93123  1.0000
  C   C3950     1.0  0.59265  0.51227  0.93994  1.0000
  H   H4716     1.0  0.77675  0.50893  0.94370  1.0000
  H   H4717     1.0  0.67044  0.55035  0.97668  1.0000
  C   C3951     1.0  0.59546  0.56620  0.91601  1.0000
  C   C3952     1.0  0.76153  0.51441  0.90952  1.0000
  H   H4718     1.0  0.66219  0.53278  0.97936  1.0000
  H   H4719     1.0  0.77122  0.56838  0.93063  1.0000
  C   C3953     1.0  0.58673  0.55770  0.93420  1.0000
  H   H4720     1.0  0.77380  0.53475  0.96025  1.0000
  H   H4721     1.0  0.74035  0.54288  0.96935  1.0000
  H   H4722     1.0  0.59084  0.57501  0.95703  1.0000
  H   H4723     1.0  0.73071  0.50330  0.97324  1.0000
  H   H4724     1.0  0.67676  0.58357  0.95510  1.0000
  H   H4725     1.0  0.66004  0.60859  0.95560  1.0000
  H   H4726     1.0  0.66175  0.50345  0.96975  1.0000
  H   H4727     1.0  0.76681  0.51845  0.90207  1.0000
  H   H4728     1.0  0.71277  0.51170  0.95448  1.0000
  H   H4729     1.0  0.61162  0.51710  0.94992  1.0000
  H   H4730     1.0  0.65672  0.50379  0.95820  1.0000
  H   H4731     1.0  0.75820  0.50869  0.90707  1.0000
  C   C3954     1.0  0.66148  0.58784  0.96675  1.0000
  C   C3955     1.0  0.64010  0.50498  0.94021  1.0000
  C   C3956     1.0  0.64350  0.59792  0.96286  1.0000
  C   C3957     1.0  0.61622  0.52150  0.92674  1.0000
  C   C3958     1.0  0.59900  0.53270  0.92319  1.0000
  C   C3959     1.0  0.62146  0.52670  0.91647  1.0000
  C   C3960     1.0  0.60432  0.53791  0.91296  1.0000
  C   C3961     1.0  0.61554  0.53497  0.90963  1.0000
  C   C3962     1.0  0.63425  0.51558  0.95763  1.0000
  C   C3963     1.0  0.67590  0.50974  0.91008  1.0000
  H   H4732     1.0  0.69370  0.49172  0.91110  1.0000
  N   N262      1.0  0.67205  0.50848  0.95396  1.0000
  C   C3964     1.0  0.67378  0.53182  0.91102  1.0000
  H   H4733     1.0  0.61146  0.58003  0.97755  1.0000
  C   C3965     1.0  0.77293  0.56584  0.96712  1.0000
  H   H4734     1.0  0.59029  0.53527  0.92534  1.0000
  H   H4735     1.0  0.62132  0.51521  0.93159  1.0000
  H   H4736     1.0  0.66527  0.49627  0.92625  1.0000
  H   H4737     1.0  0.61964  0.53911  0.90175  1.0000
  H   H4738     1.0  0.63201  0.49267  0.95163  1.0000
  C   C3966     1.0  0.68815  0.51248  0.97221  1.0000
  C   C3967     1.0  0.78011  0.53166  0.92701  1.0000
  H   H4739     1.0  0.75445  0.52085  0.91210  1.0000
  C   C3968     1.0  0.64368  0.51445  0.93899  1.0000
  C   C3969     1.0  0.67270  0.58323  0.96364  1.0000
  S   S1055     1.0  0.72769  0.52634  0.97901  1.0000
  C   C3970     1.0  0.65691  0.58674  0.97821  1.0000
  H   H4740     1.0  0.59992  0.58028  0.96786  1.0000
  C   C3971     1.0  0.59535  0.57401  0.97204  1.0000
  H   H4741     1.0  0.63019  0.52433  0.91387  1.0000
  H   H4742     1.0  0.65623  0.51639  0.96165  1.0000
  C   C3972     1.0  0.78250  0.54641  0.94848  1.0000
  H   H4743     1.0  0.60460  0.51683  0.90754  1.0000
  C   C3973     1.0  0.76512  0.52599  0.92459  1.0000
  H   H4744     1.0  0.67752  0.49128  0.96133  1.0000
  S   S1056     1.0  0.69854  0.50089  0.92817  1.0000
  C   C3974     1.0  0.68243  0.50777  0.96787  1.0000
  H   H4745     1.0  0.66074  0.49891  0.90858  1.0000
  C   C3975     1.0  0.60481  0.52450  0.93052  1.0000
  C   C3976     1.0  0.65413  0.55909  0.97553  1.0000
  C   C3977     1.0  0.77508  0.49552  0.95767  1.0000
  C   C3978     1.0  0.66271  0.55443  0.98094  1.0000
  H   H4746     1.0  0.69115  0.52829  0.90730  1.0000
  H   H4747     1.0  0.75348  0.51011  0.93165  1.0000
  N   N263      1.0  0.65507  0.59349  0.95825  1.0000
  C   C3979     1.0  0.66943  0.49664  0.90454  1.0000
  H   H4748     1.0  0.67849  0.51582  0.93710  1.0000
  H   H4749     1.0  0.59580  0.53410  0.94725  1.0000
  C   C3980     1.0  0.76911  0.53346  0.92742  1.0000
  H   H4750     1.0  0.59799  0.50551  0.93593  1.0000
  C   C3981     1.0  0.65972  0.60281  0.95085  1.0000
  N   N264      1.0  0.59901  0.51929  0.94143  1.0000
  H   H4751     1.0  0.65665  0.53295  0.91493  1.0000
  C   C3982     1.0  0.68907  0.52333  0.96787  1.0000
  H   H4752     1.0  0.63942  0.59124  0.96822  1.0000
  H   H4753     1.0  0.74217  0.50061  0.95505  1.0000
  C   C3983     1.0  0.68400  0.52512  0.90859  1.0000
  N   N265      1.0  0.67678  0.49798  0.91068  1.0000
  H   H4754     1.0  0.66811  0.60006  0.94623  1.0000
  C   C3984     1.0  0.71561  0.50261  0.95637  1.0000
  H   H4755     1.0  0.64843  0.58973  0.98145  1.0000
  H   H4756     1.0  0.78447  0.58000  0.95467  1.0000
  H   H4757     1.0  0.68171  0.49943  0.97179  1.0000
  H   H4758     1.0  0.69329  0.50952  0.90634  1.0000
  C   C3985     1.0  0.68511  0.51426  0.90805  1.0000
  H   H4759     1.0  0.69094  0.49636  0.89748  1.0000
  C   C3986     1.0  0.67781  0.51369  0.95868  1.0000
  H   H4760     1.0  0.73255  0.51249  0.94999  1.0000
  H   H4761     1.0  0.66702  0.51016  0.93894  1.0000
  C   C3987     1.0  0.67863  0.52485  0.95467  1.0000
  C   C3988     1.0  0.59802  0.51291  0.90861  1.0000
  H   H4762     1.0  0.64825  0.51808  0.93118  1.0000
  H   H4763     1.0  0.78187  0.50241  0.90689  1.0000
  C   C3989     1.0  0.66123  0.50801  0.96121  1.0000
  C   C3990     1.0  0.67060  0.51458  0.94273  1.0000
  C   C3991     1.0  0.77328  0.54207  0.95374  1.0000
  N   N266      1.0  0.76758  0.50864  0.91832  1.0000
  H   H4764     1.0  0.65490  0.60749  0.94456  1.0000
  H   H4765     1.0  0.60180  0.50888  0.95703  1.0000
  H   H4766     1.0  0.72154  0.49612  0.92026  1.0000
  H   H4767     1.0  0.76432  0.52286  0.95361  1.0000
  C   C3992     1.0  0.68421  0.52952  0.95922  1.0000
  C   C3993     1.0  0.60637  0.51232  0.94874  1.0000
  C   C3994     1.0  0.71923  0.50351  0.92338  1.0000
  H   H4768     1.0  0.67072  0.50168  0.89600  1.0000
  C   C3995     1.0  0.72723  0.50872  0.92319  1.0000
  C   C3996     1.0  0.67419  0.57681  0.98263  1.0000
  H   H4769     1.0  0.58679  0.51699  0.93470  1.0000
  H   H4770     1.0  0.58664  0.58919  0.92276  1.0000
  H   H4771     1.0  0.73565  0.50525  0.92004  1.0000
  C   C3997     1.0  0.76597  0.51432  0.95790  1.0000
  C   C3998     1.0  0.66560  0.51683  0.91247  1.0000
  H   H4772     1.0  0.67298  0.54020  0.91153  1.0000
  H   H4773     1.0  0.77462  0.56606  0.95818  1.0000
  C   C3999     1.0  0.67890  0.57774  0.97148  1.0000
  C   C4000     1.0  0.70834  0.50791  0.92744  1.0000
  H   H4774     1.0  0.69189  0.50767  0.97897  1.0000
  C   C4001     1.0  0.77592  0.49943  0.91435  1.0000
  C   C4002     1.0  0.67806  0.49710  0.95321  1.0000
  H   H4775     1.0  0.76363  0.54073  0.92991  1.0000
  H   H4776     1.0  0.74969  0.55158  0.97748  1.0000
  S   S1057     1.0  0.64222  0.49969  0.92864  1.0000
  H   H4777     1.0  0.77159  0.55748  0.97150  1.0000
  H   H4778     1.0  0.73587  0.50052  0.94451  1.0000
  H   H4779     1.0  0.77626  0.58580  0.96618  1.0000
  C   C4003     1.0  0.60005  0.50160  0.90979  1.0000
  H   H4780     1.0  0.75650  0.52775  0.92514  1.0000
  N   N267      1.0  0.72557  0.49911  0.96080  1.0000
  C   C4004     1.0  0.76329  0.50009  0.97485  1.0000
  H   H4781     1.0  0.72024  0.51341  0.96793  1.0000
  H   H4782     1.0  0.69346  0.52702  0.97125  1.0000
  C   C4005     1.0  0.59161  0.49645  0.91115  1.0000
  H   H4783     1.0  0.67488  0.49361  0.94817  1.0000
  H   H4784     1.0  0.59604  0.56855  0.90723  1.0000
  C   C4006     1.0  0.59009  0.57110  0.96567  1.0000
  H   H4785     1.0  0.68677  0.49685  0.94938  1.0000
  H   H4786     1.0  0.59875  0.58873  0.98270  1.0000
  C   C4007     1.0  0.76011  0.50380  0.92820  1.0000
  C   C4008     1.0  0.73443  0.50335  0.95223  1.0000
  C   C4009     1.0  0.58750  0.51914  0.90890  1.0000
  C   C4010     1.0  0.68790  0.49222  0.90612  1.0000
  C   C4011     1.0  0.77296  0.50649  0.95227  1.0000
  H   H4787     1.0  0.60819  0.49671  0.90981  1.0000
  H   H4788     1.0  0.75622  0.49817  0.92631  1.0000
  H   H4789     1.0  0.78040  0.48942  0.95321  1.0000
  C   C4012     1.0  0.78005  0.56801  0.98199  1.0000
  H   H4790     1.0  0.77225  0.49382  0.91214  1.0000
  H   H4791     1.0  0.71702  0.50110  0.97715  1.0000
  H   H4792     1.0  0.58783  0.50847  0.94793  1.0000
  C   C4013     1.0  0.67363  0.49247  0.92237  1.0000
  H   H4793     1.0  0.78317  0.53747  0.92924  1.0000
  H   H4794     1.0  0.59379  0.48764  0.91220  1.0000
  H   H4795     1.0  0.76446  0.49902  0.93484  1.0000
  H   H4796     1.0  0.71679  0.50013  0.94854  1.0000
  H   H4797     1.0  0.67919  0.49296  0.92719  1.0000
  H   H4798     1.0  0.78029  0.49425  0.92084  1.0000
  C   C4014     1.0  0.78175  0.55594  0.94016  1.0000
  H   H4799     1.0  0.64977  0.52158  0.97951  1.0000
  C   C4015     1.0  0.78340  0.57934  0.96364  1.0000
  C   C4016     1.0  0.78330  0.51490  0.92077  1.0000
  H   H4800     1.0  0.67074  0.48793  0.90403  1.0000
  H   H4801     1.0  0.74644  0.49114  0.98242  1.0000
  H   H4802     1.0  0.93942  0.48629  0.12072  1.0000
  H   H4803     1.0  0.83993  0.48219  0.04685  1.0000
  Fe  Fe523     1.0  0.88156  0.47267  0.16277  1.0000
  C   C4017     1.0  0.92617  0.47551  0.18421  1.0000
  S   S1058     1.0  0.88688  0.46512  0.14799  1.0000
  C   C4018     1.0  0.93685  0.43776  0.22420  1.0000
  C   C4019     1.0  0.84816  0.47753  0.01520  1.0000
  H   H4804     1.0  0.87880  0.46037  0.11553  1.0000
  S   S1059     1.0  0.88945  0.46497  0.17722  1.0000
  H   H4805     1.0  0.80125  0.47236  0.06451  1.0000
  Fe  Fe524     1.0  0.95760  0.45406  0.18952  1.0000
  H   H4806     1.0  0.94826  0.45230  0.22393  1.0000
  S   S1060     1.0  0.94403  0.44546  0.19333  1.0000
  H   H4807     1.0  0.91066  0.46430  0.14138  1.0000
  C   C4020     1.0  0.95383  0.44625  0.22890  1.0000
  C   C4021     1.0  0.94497  0.44597  0.15375  1.0000
  H   H4808     1.0  0.86222  0.46729  0.05033  1.0000
  S   S1061     1.0  0.95853  0.46840  0.17512  1.0000
  C   C4022     1.0  0.93738  0.44963  0.13785  1.0000
  H   H4809     1.0  0.95612  0.44019  0.21012  1.0000
  S   S1062     1.0  0.86815  0.45981  0.08828  1.0000
  S   S1063     1.0  0.87281  0.47823  0.09871  1.0000
  H   H4810     1.0  0.93853  0.45219  0.12902  1.0000
  H   H4811     1.0  0.91551  0.44179  0.12688  1.0000
  Fe  Fe525     1.0  0.86101  0.46737  0.10318  1.0000
  S   S1064     1.0  0.85630  0.45931  0.12113  1.0000
  Fe  Fe526     1.0  0.85628  0.47382  0.08022  1.0000
  S   S1065     1.0  0.84767  0.47706  0.06635  1.0000
  H   H4812     1.0  0.94419  0.47464  0.13752  1.0000
  Fe  Fe527     1.0  0.87377  0.47318  0.18687  1.0000
  Fe  Fe528     1.0  0.89412  0.48108  0.17369  1.0000
  Fe  Fe529     1.0  0.94659  0.46534  0.10017  1.0000
  S   S1066     1.0  0.95258  0.46620  0.11431  1.0000
  S   S1067     1.0  0.92881  0.46500  0.10583  1.0000
  H   H4813     1.0  0.85924  0.44432  0.22004  1.0000
  Fe  Fe530     1.0  0.96781  0.45493  0.10810  1.0000
  Fe  Fe531     1.0  0.96016  0.47952  0.10293  1.0000
  H   H4814     1.0  0.95169  0.44546  0.15727  1.0000
  S   S1068     1.0  0.96135  0.45276  0.09464  1.0000
  C   C4023     1.0  0.92433  0.46594  0.08590  1.0000
  Fe  Fe532     1.0  0.81199  0.45960  0.01326  1.0000
  S   S1069     1.0  0.80209  0.47613  0.00726  1.0000
  S   S1070     1.0  0.81780  0.44590  0.00415  1.0000
  Fe  Fe533     1.0  0.81154  0.46453  0.03519  1.0000
  C   C4024     1.0  0.88985  0.45144  0.22720  1.0000
  S   S1071     1.0  0.81649  0.45703  0.05159  1.0000
  C   C4025     1.0  0.87993  0.47866  0.02871  1.0000
  H   H4815     1.0  0.97552  0.46474  0.22179  1.0000
  C   C4026     1.0  0.97855  0.45703  0.22700  1.0000
  C   C4027     1.0  0.93533  0.44351  0.16056  1.0000
  S   S1072     1.0  0.80115  0.45663  0.03007  1.0000
  S   S1073     1.0  0.82328  0.46590  0.01885  1.0000
  H   H4816     1.0  0.91167  0.46106  0.17809  1.0000
  H   H4817     1.0  0.84268  0.47772  0.01026  1.0000
  S   S1074     1.0  0.97903  0.47125  0.18285  1.0000
  C   C4028     1.0  0.81935  0.44804  0.98983  1.0000
  S   S1075     1.0  0.97598  0.46845  0.09745  1.0000
  H   H4818     1.0  0.87530  0.46877  0.04986  1.0000
  C   C4029     1.0  0.97716  0.44861  0.15005  1.0000
  H   H4819     1.0  0.79795  0.41834  0.00912  1.0000
  H   H4820     1.0  0.91383  0.48367  0.11353  1.0000
  H   H4821     1.0  0.96416  0.48142  0.20417  1.0000
  C   C4030     1.0  0.98454  0.44806  0.22231  1.0000
  C   C4031     1.0  0.86035  0.44339  0.22824  1.0000
  C   C4032     1.0  0.83911  0.47100  0.06265  1.0000
  C   C4033     1.0  0.83477  0.46216  0.06956  1.0000
  C   C4034     1.0  0.82787  0.45789  0.06609  1.0000
  C   C4035     1.0  0.82532  0.46239  0.05570  1.0000
  C   C4036     1.0  0.82974  0.47115  0.04881  1.0000
  C   C4037     1.0  0.83655  0.47542  0.05229  1.0000
  H   H4822     1.0  0.83667  0.45866  0.07757  1.0000
  H   H4823     1.0  0.82449  0.45109  0.07148  1.0000
  H   H4824     1.0  0.82788  0.47463  0.04079  1.0000
  C   C4038     1.0  0.98203  0.45765  0.14598  1.0000
  C   C4039     1.0  0.92045  0.46545  0.09718  1.0000
  H   H4825     1.0  0.96158  0.44901  0.22631  1.0000
  C   C4040     1.0  0.92748  0.44705  0.14450  1.0000
  C   C4041     1.0  0.84139  0.48421  0.13119  1.0000
  C   C4042     1.0  0.90237  0.46620  0.09531  1.0000
  C   C4043     1.0  0.90948  0.46553  0.10184  1.0000
  H   H4826     1.0  0.89037  0.46322  0.12596  1.0000
  S   S1076     1.0  0.84828  0.48030  0.09553  1.0000
  H   H4827     1.0  0.89400  0.46605  0.09908  1.0000
  H   H4828     1.0  0.90643  0.46506  0.11056  1.0000
  C   C4044     1.0  0.87013  0.46818  0.04467  1.0000
  N   N268      1.0  0.95539  0.43490  0.22764  1.0000
  H   H4829     1.0  0.93845  0.44439  0.21720  1.0000
  H   H4830     1.0  0.84492  0.46268  0.02663  1.0000
  C   C4045     1.0  0.84944  0.46908  0.02440  1.0000
  H   H4831     1.0  0.80808  0.46364  0.98757  1.0000
  C   C4046     1.0  0.89170  0.44816  0.21732  1.0000
  C   C4047     1.0  0.87810  0.46335  0.14095  1.0000
  C   C4048     1.0  0.88212  0.46262  0.12993  1.0000
  C   C4049     1.0  0.87551  0.46117  0.12394  1.0000
  C   C4050     1.0  0.86481  0.46041  0.12890  1.0000
  C   C4051     1.0  0.86088  0.46068  0.14007  1.0000
  C   C4052     1.0  0.86749  0.46226  0.14608  1.0000
  Fe  Fe534     1.0  0.87920  0.47163  0.08347  1.0000
  H   H4832     1.0  0.96165  0.42599  0.21467  1.0000
  H   H4833     1.0  0.85269  0.45978  0.14403  1.0000
  H   H4834     1.0  0.86443  0.46247  0.15468  1.0000
  C   C4053     1.0  0.91425  0.45962  0.13477  1.0000
  H   H4835     1.0  0.80049  0.43820  0.02200  1.0000
  H   H4836     1.0  0.84816  0.44956  0.98550  1.0000
  C   C4054     1.0  0.93332  0.45600  0.18950  1.0000
  C   C4055     1.0  0.92514  0.45390  0.18599  1.0000
  C   C4056     1.0  0.91771  0.46268  0.18119  1.0000
  C   C4057     1.0  0.94471  0.43196  0.23054  1.0000
  H   H4837     1.0  0.90780  0.46066  0.13037  1.0000
  H   H4838     1.0  0.92480  0.44553  0.18664  1.0000
  H   H4839     1.0  0.88169  0.48576  0.22053  1.0000
  N   N269      1.0  0.91846  0.44791  0.13940  1.0000
  C   C4058     1.0  0.97479  0.44386  0.14274  1.0000
  H   H4840     1.0  0.92997  0.47080  0.15435  1.0000
  C   C4059     1.0  0.92229  0.44187  0.13037  1.0000
  H   H4841     1.0  0.93466  0.44107  0.16937  1.0000
  H   H4842     1.0  0.95351  0.45088  0.13712  1.0000
  H   H4843     1.0  0.96894  0.43620  0.21366  1.0000
  C   C4060     1.0  0.93354  0.46679  0.18898  1.0000
  C   C4061     1.0  0.86190  0.47754  0.02855  1.0000
  S   S1077     1.0  0.95296  0.47984  0.08922  1.0000
  C   C4062     1.0  0.91716  0.46668  0.07933  1.0000
  S   S1078     1.0  0.86609  0.46687  0.20455  1.0000
  H   H4844     1.0  0.92068  0.46359  0.12883  1.0000
  H   H4845     1.0  0.79744  0.42502  0.02944  1.0000
  H   H4846     1.0  0.85666  0.46230  0.03808  1.0000
  H   H4847     1.0  0.91940  0.44216  0.16184  1.0000
  H   H4848     1.0  0.98344  0.46089  0.11866  1.0000
  H   H4849     1.0  0.92640  0.43323  0.13328  1.0000
  H   H4850     1.0  0.92804  0.44569  0.12325  1.0000
  C   C4063     1.0  0.78703  0.48289  0.05910  1.0000
  S   S1079     1.0  0.97379  0.44245  0.12230  1.0000
  C   C4064     1.0  0.94598  0.44903  0.14242  1.0000
  H   H4851     1.0  0.97554  0.44505  0.15878  1.0000
  C   C4065     1.0  0.90838  0.48470  0.20843  1.0000
  S   S1080     1.0  0.89710  0.46864  0.07555  1.0000
  H   H4852     1.0  0.93948  0.46848  0.19215  1.0000
  C   C4066     1.0  0.92674  0.43514  0.22673  1.0000
  C   C4067     1.0  0.92664  0.44409  0.15607  1.0000
  H   H4853     1.0  0.88609  0.45056  0.20255  1.0000
  H   H4854     1.0  0.89906  0.46814  0.20926  1.0000
  C   C4068     1.0  0.83218  0.47500  0.98612  1.0000
  S   S1081     1.0  0.97636  0.47234  0.06664  1.0000
  H   H4855     1.0  0.92962  0.46686  0.21888  1.0000
  C   C4069     1.0  0.88096  0.45984  0.22985  1.0000
  H   H4856     1.0  0.83067  0.43255  0.98945  1.0000
  S   S1082     1.0  0.86531  0.47964  0.17268  1.0000
  C   C4070     1.0  0.88465  0.45319  0.21013  1.0000
  H   H4857     1.0  0.79250  0.44876  0.00666  1.0000
  C   C4071     1.0  0.90930  0.44342  0.14724  1.0000
  Fe  Fe535     1.0  0.96829  0.46751  0.08452  1.0000
  C   C4072     1.0  0.92519  0.47427  0.21435  1.0000
  C   C4073     1.0  0.91445  0.47508  0.21418  1.0000
  S   S1083     1.0  0.95863  0.46279  0.20166  1.0000
  C   C4074     1.0  0.87548  0.46123  0.21301  1.0000
  H   H4858     1.0  0.86658  0.47080  0.22510  1.0000
  C   C4075     1.0  0.87366  0.46458  0.22287  1.0000
  C   C4076     1.0  0.96075  0.43429  0.21606  1.0000
  C   C4077     1.0  0.91843  0.47348  0.18009  1.0000
  H   H4859     1.0  0.81169  0.48686  0.05829  1.0000
  H   H4860     1.0  0.84540  0.45454  0.23293  1.0000
  C   C4078     1.0  0.92777  0.47605  0.14684  1.0000
  C   C4079     1.0  0.86973  0.43668  0.23136  1.0000
  H   H4861     1.0  0.96452  0.41893  0.23401  1.0000
  H   H4862     1.0  0.88752  0.47677  0.20437  1.0000
  C   C4080     1.0  0.85625  0.46899  0.03097  1.0000
  H   H4863     1.0  0.88344  0.47170  0.02447  1.0000
  H   H4864     1.0  0.89857  0.44166  0.21523  1.0000
  H   H4865     1.0  0.93279  0.46583  0.08223  1.0000
  H   H4866     1.0  0.84001  0.46240  0.99794  1.0000
  C   C4081     1.0  0.90613  0.46692  0.08401  1.0000
  H   H4867     1.0  0.87386  0.46050  0.04161  1.0000
  H   H4868     1.0  0.92089  0.43966  0.22172  1.0000
  Fe  Fe536     1.0  0.96095  0.47655  0.18697  1.0000
  H   H4869     1.0  0.92015  0.46719  0.07059  1.0000
  H   H4870     1.0  0.90532  0.44815  0.15378  1.0000
  H   H4871     1.0  0.91198  0.43464  0.15112  1.0000
  Fe  Fe537     1.0  0.97636  0.46167  0.17225  1.0000
  H   H4872     1.0  0.91091  0.46809  0.21863  1.0000
  H   H4873     1.0  0.90275  0.44401  0.14309  1.0000
  S   S1084     1.0  0.98597  0.46324  0.15477  1.0000
  C   C4082     1.0  0.83869  0.46480  0.98965  1.0000
  S   S1085     1.0  0.80124  0.48141  0.03101  1.0000
  N   N270      1.0  0.86892  0.47795  0.03548  1.0000
  H   H4874     1.0  0.97288  0.48709  0.21548  1.0000
  H   H4875     1.0  0.91078  0.47885  0.15400  1.0000
  Fe  Fe538     1.0  0.79196  0.47363  0.02440  1.0000
  C   C4083     1.0  0.89604  0.47636  0.20438  1.0000
  Fe  Fe539     1.0  0.81238  0.48233  0.01431  1.0000
  H   H4876     1.0  0.87586  0.43238  0.22556  1.0000
  C   C4084     1.0  0.98423  0.46209  0.13464  1.0000
  C   C4085     1.0  0.91693  0.48063  0.14663  1.0000
  H   H4877     1.0  0.97130  0.43669  0.14588  1.0000
  Fe  Fe540     1.0  0.97653  0.45662  0.19662  1.0000
  C   C4086     1.0  0.93572  0.47823  0.13739  1.0000
  C   C4087     1.0  0.89050  0.48451  0.22011  1.0000
  H   H4878     1.0  0.80675  0.42666  0.01625  1.0000
  C   C4088     1.0  0.79755  0.48061  0.06071  1.0000
  H   H4879     1.0  0.97096  0.42994  0.23194  1.0000
  C   C4089     1.0  0.79894  0.43054  0.02116  1.0000
  C   C4090     1.0  0.79200  0.44090  0.00519  1.0000
  H   H4880     1.0  0.79987  0.43790  0.99977  1.0000
  N   N271      1.0  0.78980  0.43281  0.01568  1.0000
  H   H4881     1.0  0.87997  0.48639  0.02232  1.0000
  H   H4882     1.0  0.82886  0.48036  0.99183  1.0000
  C   C4091     1.0  0.97690  0.44838  0.13140  1.0000
  S   S1086     1.0  0.86807  0.48494  0.07422  1.0000
  C   C4092     1.0  0.98155  0.45755  0.12740  1.0000
  H   H4883     1.0  0.97831  0.47966  0.11117  1.0000
  C   C4093     1.0  0.78975  0.42234  0.01322  1.0000
  S   S1087     1.0  0.97534  0.44650  0.18565  1.0000
  H   H4884     1.0  0.89286  0.47624  0.22527  1.0000
  H   H4885     1.0  0.78697  0.41644  0.02089  1.0000
  H   H4886     1.0  0.90071  0.47670  0.19583  1.0000
  C   C4094     1.0  0.84584  0.48703  0.13832  1.0000
  H   H4887     1.0  0.84758  0.48084  0.14550  1.0000
  H   H4888     1.0  0.88554  0.47844  0.03382  1.0000
  C   C4095     1.0  0.85370  0.48592  0.01251  1.0000
  C   C4096     1.0  0.93027  0.48292  0.20869  1.0000
  H   H4889     1.0  0.83996  0.47602  0.13286  1.0000
  H   H4890     1.0  0.93864  0.48222  0.20873  1.0000
  H   H4891     1.0  0.92644  0.48382  0.18379  1.0000
  C   C4097     1.0  0.96296  0.42763  0.23458  1.0000
  C   C4098     1.0  0.93286  0.48493  0.12770  1.0000
  H   H4892     1.0  0.97006  0.48208  0.14921  1.0000
  N   N272      1.0  0.89692  0.48544  0.20865  1.0000
  C   C4099     1.0  0.86033  0.48605  0.01915  1.0000
  H   H4893     1.0  0.86257  0.48361  0.14897  1.0000
  S   S1088     1.0  0.90965  0.48470  0.17385  1.0000
  H   H4894     1.0  0.83615  0.00155  0.45058  1.0000
  S   S1089     1.0  0.90207  0.44742  0.34740  1.0000
  S   S1090     1.0  0.88854  0.44838  0.37846  1.0000
  C   C4100     1.0  0.85421  0.44838  0.24592  1.0000
  S   S1091     1.0  0.93364  0.44871  0.33934  1.0000
  H   H4895     1.0  0.84791  0.45301  0.25126  1.0000
  Fe  Fe541     1.0  0.96470  0.46979  0.36600  1.0000
  H   H4896     1.0  0.85754  0.42760  0.26776  1.0000
  N   N273      1.0  0.78945  0.08068  0.45292  1.0000
  C   C4101     1.0  0.86065  0.24985  0.43883  1.0000
  H   H4897     1.0  0.97581  0.36403  0.42613  1.0000
  H   H4898     1.0  0.96837  0.19200  0.40078  1.0000
  C   C4102     1.0  0.97522  0.16859  0.43764  1.0000
  S   S1092     1.0  0.90396  0.46976  0.24247  1.0000
  C   C4103     1.0  0.78990  0.02828  0.47861  1.0000
  C   C4104     1.0  0.95026  0.27347  0.48380  1.0000
  H   H4899     1.0  0.86704  0.39478  0.40531  1.0000
  H   H4900     1.0  0.87334  0.42864  0.38425  1.0000
  H   H4901     1.0  0.83325  0.13277  0.46569  1.0000
  S   S1093     1.0  0.93430  0.46622  0.24201  1.0000
  H   H4902     1.0  0.95474  0.47199  0.23762  1.0000
  H   H4903     1.0  0.91554  0.44908  0.39585  1.0000
  Fe  Fe542     1.0  0.98005  0.20044  0.44713  1.0000
  C   C4105     1.0  0.93548  0.48537  0.26121  1.0000
  H   H4904     1.0  0.94748  0.44691  0.26198  1.0000
  C   C4106     1.0  0.92552  0.24441  0.43779  1.0000
  C   C4107     1.0  0.90716  0.42111  0.45508  1.0000
  C   C4108     1.0  0.97917  0.42902  0.39550  1.0000
  C   C4109     1.0  0.97445  0.15221  0.42800  1.0000
  Fe  Fe543     1.0  0.96021  0.39063  0.45747  1.0000
  S   S1094     1.0  0.94317  0.39412  0.46720  1.0000
  H   H4905     1.0  0.80864  0.01674  0.46182  1.0000
  Fe  Fe544     1.0  0.90781  0.39426  0.41799  1.0000
  S   S1095     1.0  0.91108  0.37584  0.42280  1.0000
  S   S1096     1.0  0.91456  0.40225  0.40040  1.0000
  H   H4906     1.0  0.89398  0.37902  0.40830  1.0000
  Fe  Fe545     1.0  0.91393  0.37767  0.43828  1.0000
  S   S1097     1.0  0.92699  0.36587  0.44611  1.0000
  H   H4907     1.0  0.95540  0.43095  0.40555  1.0000
  C   C4110     1.0  0.95009  0.44558  0.26978  1.0000
  S   S1098     1.0  0.91268  0.39587  0.43257  1.0000
  H   H4908     1.0  0.78733  0.01221  0.48184  1.0000
  C   C4111     1.0  0.81659  0.01902  0.45959  1.0000
  S   S1099     1.0  0.97361  0.11899  0.45005  1.0000
  Fe  Fe546     1.0  0.95897  0.11158  0.43290  1.0000
  S   S1100     1.0  0.94992  0.11908  0.44736  1.0000
  S   S1101     1.0  0.94897  0.10983  0.42235  1.0000
  Fe  Fe547     1.0  0.96166  0.13007  0.44064  1.0000
  H   H4909     1.0  0.94082  0.19788  0.45622  1.0000
  Fe  Fe548     1.0  0.96269  0.10728  0.45559  1.0000
  S   S1102     1.0  0.96027  0.10025  0.47367  1.0000
  H   H4910     1.0  0.85586  0.45748  0.26193  1.0000
  S   S1103     1.0  0.97076  0.09850  0.44185  1.0000
  Fe  Fe549     1.0  0.89063  0.10662  0.44353  1.0000
  S   S1104     1.0  0.88483  0.11277  0.42770  1.0000
  S   S1105     1.0  0.90545  0.09441  0.44789  1.0000
  Fe  Fe550     1.0  0.87235  0.12223  0.45526  1.0000
  S   S1106     1.0  0.86492  0.12965  0.44069  1.0000
  S   S1107     1.0  0.86542  0.12736  0.47132  1.0000
  Fe  Fe551     1.0  0.86821  0.11225  0.43874  1.0000
  S   S1108     1.0  0.85355  0.10705  0.43762  1.0000
  Fe  Fe552     1.0  0.88200  0.12957  0.43115  1.0000
  S   S1109     1.0  0.88753  0.14462  0.41978  1.0000
  S   S1110     1.0  0.87432  0.10491  0.45427  1.0000
  S   S1111     1.0  0.88917  0.12327  0.44596  1.0000
  C   C4112     1.0  0.96906  0.24620  0.42465  1.0000
  C   C4113     1.0  0.91159  0.25667  0.48330  1.0000
  Fe  Fe553     1.0  0.97020  0.21371  0.42797  1.0000
  H   H4911     1.0  0.86985  0.45680  0.25531  1.0000
  S   S1112     1.0  0.95453  0.22391  0.42369  1.0000
  H   H4912     1.0  0.93198  0.46748  0.32115  1.0000
  C   C4114     1.0  0.79874  0.08857  0.47436  1.0000
  C   C4115     1.0  0.91144  0.48103  0.28992  1.0000
  C   C4116     1.0  0.89843  0.21309  0.47372  1.0000
  S   S1113     1.0  0.97062  0.19647  0.43757  1.0000
  H   H4913     1.0  0.80467  0.08487  0.44327  1.0000
  C   C4117     1.0  0.93153  0.43840  0.37411  1.0000
  C   C4118     1.0  0.93153  0.42101  0.24219  1.0000
  Fe  Fe554     1.0  0.97764  0.28908  0.42745  1.0000
  S   S1114     1.0  0.96625  0.29083  0.41683  1.0000
  S   S1115     1.0  0.97004  0.12347  0.42550  1.0000
  H   H4914     1.0  0.92525  0.41656  0.43145  1.0000
  Fe  Fe555     1.0  0.88777  0.19604  0.44166  1.0000
  H   H4915     1.0  0.86754  0.25690  0.45294  1.0000
  S   S1116     1.0  0.87793  0.18346  0.44419  1.0000
  Fe  Fe556     1.0  0.89602  0.21702  0.43037  1.0000
  S   S1117     1.0  0.90213  0.21692  0.44471  1.0000
  S   S1118     1.0  0.89811  0.23137  0.41606  1.0000
  Fe  Fe557     1.0  0.90819  0.19897  0.44565  1.0000
  H   H4916     1.0  0.92345  0.47861  0.25889  1.0000
  H   H4917     1.0  0.89964  0.20690  0.46918  1.0000
  S   S1119     1.0  0.90355  0.19912  0.43025  1.0000
  S   S1120     1.0  0.87982  0.21395  0.44037  1.0000
  Fe  Fe558     1.0  0.89935  0.30817  0.42616  1.0000
  C   C4119     1.0  0.93172  0.14733  0.47620  1.0000
  S   S1121     1.0  0.90412  0.32339  0.41457  1.0000
  Fe  Fe559     1.0  0.88946  0.28822  0.43183  1.0000
  Fe  Fe560     1.0  0.90172  0.47797  0.34657  1.0000
  S   S1122     1.0  0.88082  0.27864  0.42641  1.0000
  H   H4918     1.0  0.88154  0.37444  0.39911  1.0000
  Fe  Fe561     1.0  0.90919  0.28653  0.43988  1.0000
  H   H4919     1.0  0.92704  0.26753  0.46814  1.0000
  S   S1123     1.0  0.88239  0.30575  0.43353  1.0000
  S   S1124     1.0  0.90600  0.29113  0.42295  1.0000
  Fe  Fe562     1.0  0.82951  0.03658  0.43028  1.0000
  S   S1125     1.0  0.83182  0.05182  0.41719  1.0000
  S   S1126     1.0  0.83524  0.01905  0.42849  1.0000
  Fe  Fe563     1.0  0.82038  0.04890  0.44832  1.0000
  S   S1127     1.0  0.82144  0.06526  0.43703  1.0000
  C   C4120     1.0  0.92409  0.42676  0.23568  1.0000
  Fe  Fe564     1.0  0.81521  0.05921  0.42604  1.0000
  H   H4920     1.0  0.91258  0.32062  0.44764  1.0000
  Fe  Fe565     1.0  0.83786  0.05674  0.42929  1.0000
  S   S1128     1.0  0.85281  0.06387  0.42454  1.0000
  S   S1129     1.0  0.81242  0.04364  0.43819  1.0000
  S   S1130     1.0  0.83722  0.04075  0.44146  1.0000
  C   C4121     1.0  0.90737  0.34201  0.44549  1.0000
  H   H4921     1.0  0.93551  0.18280  0.41652  1.0000
  H   H4922     1.0  0.98041  0.23548  0.47302  1.0000
  H   H4923     1.0  0.85808  0.43506  0.27729  1.0000
  H   H4924     1.0  0.94674  0.32521  0.46648  1.0000
  C   C4122     1.0  0.93584  0.44335  0.29999  1.0000
  C   C4123     1.0  0.91036  0.32333  0.45555  1.0000
  C   C4124     1.0  0.83986  0.12708  0.46955  1.0000
  C   C4125     1.0  0.96855  0.15317  0.47108  1.0000
  S   S1131     1.0  0.96205  0.38345  0.44319  1.0000
  S   S1132     1.0  0.97453  0.28114  0.46877  1.0000
  C   C4126     1.0  0.90562  0.26504  0.47619  1.0000
  C   C4127     1.0  0.93946  0.20304  0.44839  1.0000
  H   H4925     1.0  0.96686  0.33475  0.45121  1.0000
  C   C4128     1.0  0.97491  0.42045  0.41824  1.0000
  H   H4926     1.0  0.94814  0.47869  0.29353  1.0000
  H   H4927     1.0  0.88840  0.32716  0.46005  1.0000
  N   N274      1.0  0.94093  0.44471  0.27953  1.0000
  C   C4129     1.0  0.85705  0.43594  0.26883  1.0000
  H   H4928     1.0  0.84870  0.44077  0.26849  1.0000
  C   C4130     1.0  0.93665  0.43518  0.27997  1.0000
  C   C4131     1.0  0.82531  0.01183  0.42982  1.0000
  C   C4132     1.0  0.82813  0.00036  0.43163  1.0000
  C   C4133     1.0  0.82022  0.99432  0.43353  1.0000
  C   C4134     1.0  0.80951  0.99978  0.43328  1.0000
  C   C4135     1.0  0.80680  0.01128  0.43090  1.0000
  C   C4136     1.0  0.81464  0.01730  0.42938  1.0000
  H   H4929     1.0  0.83643  0.99613  0.43172  1.0000
  H   H4930     1.0  0.92433  0.22319  0.46610  1.0000
  H   H4931     1.0  0.79864  0.01555  0.43024  1.0000
  H   H4932     1.0  0.81247  0.02615  0.42763  1.0000
  H   H4933     1.0  0.93380  0.43612  0.27239  1.0000
  H   H4934     1.0  0.94659  0.44457  0.39200  1.0000
  H   H4935     1.0  0.86401  0.42231  0.48276  1.0000
  S   S1133     1.0  0.97266  0.37727  0.46482  1.0000
  Fe  Fe566     1.0  0.98113  0.11099  0.43571  1.0000
  H   H4936     1.0  0.87145  0.41205  0.39822  1.0000
  H   H4937     1.0  0.82035  0.01827  0.45094  1.0000
  C   C4137     1.0  0.89459  0.24443  0.41926  1.0000
  C   C4138     1.0  0.89116  0.24571  0.43015  1.0000
  C   C4139     1.0  0.88789  0.25628  0.43241  1.0000
  C   C4140     1.0  0.88777  0.26561  0.42380  1.0000
  C   C4141     1.0  0.89147  0.26430  0.41294  1.0000
  C   C4142     1.0  0.89499  0.25377  0.41069  1.0000
  H   H4938     1.0  0.89074  0.23860  0.43682  1.0000
  H   H4939     1.0  0.88505  0.25725  0.44079  1.0000
  H   H4940     1.0  0.89119  0.27146  0.40623  1.0000
  H   H4941     1.0  0.89760  0.25286  0.40226  1.0000
  C   C4143     1.0  0.95435  0.28674  0.42483  1.0000
  C   C4144     1.0  0.94559  0.28841  0.42006  1.0000
  C   C4145     1.0  0.93607  0.28511  0.42644  1.0000
  C   C4146     1.0  0.93546  0.27984  0.43750  1.0000
  C   C4147     1.0  0.94426  0.27803  0.44223  1.0000
  C   C4148     1.0  0.95361  0.28169  0.43596  1.0000
  H   H4942     1.0  0.94610  0.29241  0.41147  1.0000
  H   H4943     1.0  0.92927  0.28654  0.42275  1.0000
  C   C4149     1.0  0.94149  0.16765  0.41142  1.0000
  H   H4944     1.0  0.96019  0.28063  0.43977  1.0000
  C   C4150     1.0  0.94457  0.21690  0.43218  1.0000
  C   C4151     1.0  0.94593  0.21062  0.44257  1.0000
  H   H4945     1.0  0.95663  0.43801  0.27017  1.0000
  C   C4152     1.0  0.93138  0.20205  0.44396  1.0000
  C   C4153     1.0  0.92948  0.20892  0.43395  1.0000
  C   C4154     1.0  0.93611  0.21631  0.42804  1.0000
  H   H4946     1.0  0.95218  0.21139  0.44599  1.0000
  C   C4155     1.0  0.98570  0.25169  0.47591  1.0000
  H   H4947     1.0  0.92326  0.20815  0.43046  1.0000
  H   H4948     1.0  0.93507  0.22102  0.41997  1.0000
  C   C4156     1.0  0.98221  0.15866  0.42305  1.0000
  H   H4949     1.0  0.83775  0.01599  0.45480  1.0000
  H   H4950     1.0  0.98254  0.09624  0.46241  1.0000
  C   C4157     1.0  0.88990  0.35287  0.47523  1.0000
  C   C4158     1.0  0.86683  0.25580  0.41554  1.0000
  C   C4159     1.0  0.85319  0.07510  0.42945  1.0000
  C   C4160     1.0  0.84382  0.08113  0.43510  1.0000
  C   C4161     1.0  0.84411  0.09081  0.43769  1.0000
  C   C4162     1.0  0.85382  0.09441  0.43490  1.0000
  C   C4163     1.0  0.86330  0.08818  0.42963  1.0000
  C   C4164     1.0  0.86295  0.07860  0.42683  1.0000
  H   H4951     1.0  0.83627  0.07852  0.43722  1.0000
  H   H4952     1.0  0.83675  0.09558  0.44181  1.0000
  H   H4953     1.0  0.87080  0.09093  0.42737  1.0000
  H   H4954     1.0  0.87023  0.07401  0.42240  1.0000
  C   C4165     1.0  0.88489  0.15557  0.42636  1.0000
  C   C4166     1.0  0.88977  0.16459  0.42128  1.0000
  C   C4167     1.0  0.88790  0.17318  0.42668  1.0000
  C   C4168     1.0  0.88099  0.17284  0.43710  1.0000
  C   C4169     1.0  0.87612  0.16383  0.44211  1.0000
  C   C4170     1.0  0.87815  0.15520  0.43682  1.0000
  H   H4955     1.0  0.89498  0.16493  0.41316  1.0000
  H   H4956     1.0  0.89161  0.18014  0.42270  1.0000
  H   H4957     1.0  0.87069  0.16353  0.45012  1.0000
  H   H4958     1.0  0.87429  0.14835  0.44078  1.0000
  C   C4171     1.0  0.98612  0.45498  0.31273  1.0000
  N   N275      1.0  0.91036  0.42059  0.47367  1.0000
  H   H4959     1.0  0.81325  0.99567  0.48191  1.0000
  H   H4960     1.0  0.88129  0.13969  0.45765  1.0000
  H   H4961     1.0  0.94482  0.47056  0.31875  1.0000
  H   H4962     1.0  0.83322  0.02381  0.46499  1.0000
  H   H4963     1.0  0.82311  0.00869  0.48454  1.0000
  C   C4172     1.0  0.93699  0.10535  0.42957  1.0000
  C   C4173     1.0  0.92850  0.10760  0.42422  1.0000
  C   C4174     1.0  0.91867  0.10458  0.42993  1.0000
  C   C4175     1.0  0.91750  0.09877  0.44085  1.0000
  C   C4176     1.0  0.92606  0.09630  0.44617  1.0000
  C   C4177     1.0  0.93572  0.09980  0.44061  1.0000
  H   H4964     1.0  0.92949  0.11178  0.41565  1.0000
  H   H4965     1.0  0.91212  0.10642  0.42576  1.0000
  H   H4966     1.0  0.92519  0.09171  0.45459  1.0000
  H   H4967     1.0  0.94229  0.09795  0.44474  1.0000
  S   S1134     1.0  0.97659  0.19359  0.46522  1.0000
  H   H4968     1.0  0.93189  0.38121  0.40301  1.0000
  Fe  Fe567     1.0  0.89374  0.37808  0.43180  1.0000
  C   C4178     1.0  0.89810  0.33566  0.41920  1.0000
  C   C4179     1.0  0.90375  0.34411  0.41597  1.0000
  C   C4180     1.0  0.89919  0.35388  0.41974  1.0000
  H   H4969     1.0  0.89191  0.16074  0.47171  1.0000
  S   S1135     1.0  0.81497  0.04633  0.46654  1.0000
  H   H4970     1.0  0.91174  0.34302  0.41064  1.0000
  H   H4971     1.0  0.90368  0.36025  0.41724  1.0000
  C   C4181     1.0  0.93730  0.38521  0.46400  1.0000
  C   C4182     1.0  0.94360  0.37495  0.46239  1.0000
  C   C4183     1.0  0.94022  0.36882  0.45723  1.0000
  C   C4184     1.0  0.93033  0.37273  0.45406  1.0000
  C   C4185     1.0  0.92350  0.38244  0.45670  1.0000
  C   C4186     1.0  0.92701  0.38872  0.46164  1.0000
  H   H4972     1.0  0.95148  0.37206  0.46440  1.0000
  H   H4973     1.0  0.94556  0.36140  0.45511  1.0000
  H   H4974     1.0  0.91568  0.38535  0.45459  1.0000
  H   H4975     1.0  0.91446  0.34392  0.44702  1.0000
  H   H4976     1.0  0.91710  0.17186  0.46535  1.0000
  C   C4187     1.0  0.93175  0.47929  0.25627  1.0000
  H   H4977     1.0  0.92841  0.35193  0.46876  1.0000
  H   H4978     1.0  0.88717  0.42820  0.36703  1.0000
  C   C4188     1.0  0.96268  0.21344  0.46663  1.0000
  C   C4189     1.0  0.89117  0.13980  0.46823  1.0000
  H   H4979     1.0  0.93345  0.16616  0.41295  1.0000
  H   H4980     1.0  0.92960  0.43409  0.28696  1.0000
  H   H4981     1.0  0.89959  0.41068  0.36382  1.0000
  C   C4190     1.0  0.91750  0.44567  0.38839  1.0000
  H   H4982     1.0  0.95596  0.36209  0.48295  1.0000
  H   H4983     1.0  0.95926  0.36069  0.43689  1.0000
  H   H4984     1.0  0.89826  0.39364  0.37760  1.0000
  C   C4191     1.0  0.88105  0.17611  0.48355  1.0000
  H   H4985     1.0  0.95133  0.17397  0.48274  1.0000
  C   C4192     1.0  0.97024  0.46035  0.32651  1.0000
  C   C4193     1.0  0.87151  0.43589  0.24170  1.0000
  S   S1136     1.0  0.88649  0.47165  0.35116  1.0000
  N   N276      1.0  0.82357  0.01204  0.46718  1.0000
  C   C4194     1.0  0.79040  0.03823  0.47111  1.0000
  C   C4195     1.0  0.97578  0.41384  0.41109  1.0000
  C   C4196     1.0  0.94171  0.42353  0.23971  1.0000
  C   C4197     1.0  0.97214  0.31146  0.48092  1.0000
  H   H4986     1.0  0.95989  0.42823  0.24334  1.0000
  H   H4987     1.0  0.94163  0.45263  0.37595  1.0000
  C   C4198     1.0  0.89582  0.43552  0.38440  1.0000
  C   C4199     1.0  0.89217  0.43082  0.39552  1.0000
  C   C4200     1.0  0.89780  0.42058  0.40049  1.0000
  C   C4201     1.0  0.90709  0.41494  0.39434  1.0000
  C   C4202     1.0  0.91073  0.41961  0.38321  1.0000
  C   C4203     1.0  0.90515  0.42989  0.37826  1.0000
  H   H4988     1.0  0.88497  0.43514  0.40032  1.0000
  H   H4989     1.0  0.89497  0.41712  0.40909  1.0000
  H   H4990     1.0  0.91790  0.41526  0.37841  1.0000
  H   H4991     1.0  0.90802  0.43343  0.36968  1.0000
  C   C4204     1.0  0.93914  0.45698  0.34390  1.0000
  C   C4205     1.0  0.94817  0.45245  0.34857  1.0000
  C   C4206     1.0  0.95121  0.45852  0.35413  1.0000
  C   C4207     1.0  0.94516  0.46905  0.35513  1.0000
  C   C4208     1.0  0.88633  0.42062  0.37306  1.0000
  H   H4992     1.0  0.95254  0.44411  0.34829  1.0000
  H   H4993     1.0  0.95790  0.45479  0.35808  1.0000
  H   H4994     1.0  0.90905  0.24256  0.43995  1.0000
  H   H4995     1.0  0.97298  0.45909  0.34244  1.0000
  N   N277      1.0  0.85784  0.24691  0.45100  1.0000
  H   H4996     1.0  0.96148  0.17605  0.47022  1.0000
  C   C4209     1.0  0.95729  0.44069  0.30103  1.0000
  C   C4210     1.0  0.94880  0.42931  0.40326  1.0000
  H   H4997     1.0  0.88914  0.37996  0.38603  1.0000
  C   C4211     1.0  0.91565  0.23284  0.45361  1.0000
  C   C4212     1.0  0.87850  0.42084  0.38279  1.0000
  H   H4998     1.0  0.85185  0.06314  0.47073  1.0000
  C   C4213     1.0  0.83845  0.11101  0.46503  1.0000
  H   H4999     1.0  0.94290  0.42742  0.28101  1.0000
  C   C4214     1.0  0.95318  0.48161  0.24930  1.0000
  C   C4215     1.0  0.89984  0.33600  0.48460  1.0000
  H   H5000     1.0  0.86864  0.15724  0.48135  1.0000
  S   S1137     1.0  0.79932  0.99239  0.43639  1.0000
  Fe  Fe568     1.0  0.89418  0.47174  0.25918  1.0000
  H   H5001     1.0  0.94979  0.41332  0.41406  1.0000
  S   S1138     1.0  0.80345  0.07269  0.41763  1.0000
  H   H5002     1.0  0.91620  0.42482  0.23763  1.0000
  H   H5003     1.0  0.92452  0.45418  0.28354  1.0000
  S   S1139     1.0  0.90421  0.30370  0.44225  1.0000
  C   C4216     1.0  0.81913  0.99316  0.47492  1.0000
  Fe  Fe569     1.0  0.97785  0.45855  0.26654  1.0000
  C   C4217     1.0  0.89946  0.44925  0.31563  1.0000
  H   H5004     1.0  0.96558  0.43984  0.30148  1.0000
  H   H5005     1.0  0.92564  0.42273  0.39513  1.0000
  H   H5006     1.0  0.96083  0.18225  0.48105  1.0000
  C   C4218     1.0  0.94350  0.39141  0.39698  1.0000
  H   H5007     1.0  0.98249  0.42386  0.43724  1.0000
  H   H5008     1.0  0.79227  0.99688  0.45802  1.0000
  C   C4219     1.0  0.85776  0.06530  0.47399  1.0000
  C   C4220     1.0  0.90644  0.21286  0.47901  1.0000
  C   C4221     1.0  0.94465  0.48424  0.29939  1.0000
  N   N278      1.0  0.83387  0.08747  0.40062  1.0000
  C   C4222     1.0  0.82614  0.08914  0.39360  1.0000
  C   C4223     1.0  0.84348  0.07898  0.39712  1.0000
  C   C4224     1.0  0.82852  0.08319  0.41209  1.0000
  C   C4225     1.0  0.83725  0.09758  0.40010  1.0000
  C   C4226     1.0  0.84485  0.09716  0.40615  1.0000
  C   C4227     1.0  0.83293  0.10806  0.39402  1.0000
  C   C4228     1.0  0.84784  0.10662  0.40625  1.0000
  C   C4229     1.0  0.83605  0.11747  0.39410  1.0000
  C   C4230     1.0  0.84345  0.11676  0.40024  1.0000
  H   H5009     1.0  0.82968  0.09222  0.38478  1.0000
  H   H5010     1.0  0.82383  0.08133  0.39420  1.0000
  H   H5011     1.0  0.81840  0.09490  0.39624  1.0000
  H   H5012     1.0  0.84810  0.08208  0.38874  1.0000
  H   H5013     1.0  0.84116  0.07140  0.39707  1.0000
  H   H5014     1.0  0.84916  0.07626  0.40275  1.0000
  H   H5015     1.0  0.82149  0.08943  0.41524  1.0000
  H   H5016     1.0  0.82543  0.07585  0.41277  1.0000
  H   H5017     1.0  0.83413  0.08063  0.41776  1.0000
  H   H5018     1.0  0.84848  0.08951  0.41095  1.0000
  H   H5019     1.0  0.82710  0.10922  0.38918  1.0000
  H   H5020     1.0  0.85354  0.10607  0.41111  1.0000
  H   H5021     1.0  0.83266  0.12540  0.38943  1.0000
  H   H5022     1.0  0.84579  0.12407  0.40037  1.0000
  C   C4231     1.0  0.98471  0.25725  0.40919  1.0000
  C   C4232     1.0  0.95939  0.38512  0.40479  1.0000
  Fe  Fe570     1.0  0.97343  0.46545  0.28836  1.0000
  C   C4233     1.0  0.78970  0.07209  0.42091  1.0000
  N   N279      1.0  0.96174  0.36728  0.41934  1.0000
  Fe  Fe571     1.0  0.89519  0.39671  0.44101  1.0000
  C   C4234     1.0  0.88739  0.31020  0.47996  1.0000
  C   C4235     1.0  0.96554  0.15498  0.48191  1.0000
  C   C4236     1.0  0.89255  0.33271  0.45293  1.0000
  H   H5023     1.0  0.88473  0.36098  0.47535  1.0000
  H   H5024     1.0  0.94377  0.27405  0.45081  1.0000
  H   H5025     1.0  0.94706  0.41876  0.24510  1.0000
  H   H5026     1.0  0.87990  0.23532  0.48119  1.0000
  C   C4237     1.0  0.94624  0.48640  0.25785  1.0000
  H   H5027     1.0  0.93309  0.23976  0.41760  1.0000
  H   H5028     1.0  0.88278  0.43824  0.25605  1.0000
  C   C4238     1.0  0.97298  0.29272  0.47386  1.0000
  C   C4239     1.0  0.93496  0.43517  0.39222  1.0000
  H   H5029     1.0  0.92763  0.44421  0.36749  1.0000
  H   H5030     1.0  0.79921  0.00789  0.45343  1.0000
  H   H5031     1.0  0.92168  0.18126  0.47502  1.0000
  H   H5032     1.0  0.94261  0.46384  0.30964  1.0000
  H   H5033     1.0  0.79582  0.08461  0.43537  1.0000
  C   C4240     1.0  0.87381  0.41669  0.46829  1.0000
  N   N280      1.0  0.86350  0.07343  0.46568  1.0000
  H   H5034     1.0  0.92851  0.45959  0.37371  1.0000
  H   H5035     1.0  0.90558  0.48109  0.28546  1.0000
  C   C4241     1.0  0.87181  0.07547  0.47006  1.0000
  C   C4242     1.0  0.88286  0.07443  0.46442  1.0000
  H   H5036     1.0  0.94833  0.32095  0.48033  1.0000
  H   H5037     1.0  0.80669  0.08197  0.46023  1.0000
  H   H5038     1.0  0.98101  0.43221  0.38672  1.0000
  C   C4243     1.0  0.95863  0.22156  0.48237  1.0000
  H   H5039     1.0  0.93147  0.41669  0.46188  1.0000
  H   H5040     1.0  0.89678  0.14388  0.46166  1.0000
  H   H5041     1.0  0.86355  0.05760  0.47670  1.0000
  H   H5042     1.0  0.85433  0.23347  0.46471  1.0000
  H   H5043     1.0  0.86497  0.24580  0.46446  1.0000
  H   H5044     1.0  0.95299  0.22967  0.46751  1.0000
  H   H5045     1.0  0.88588  0.07201  0.45663  1.0000
  C   C4244     1.0  0.92622  0.16419  0.48365  1.0000
  C   C4245     1.0  0.91427  0.42024  0.46188  1.0000
  H   H5046     1.0  0.84751  0.12685  0.46311  1.0000
  S   S1140     1.0  0.89015  0.39642  0.42596  1.0000
  S   S1141     1.0  0.97440  0.30060  0.43851  1.0000
  H   H5047     1.0  0.93489  0.46208  0.27846  1.0000
  H   H5048     1.0  0.98041  0.39025  0.47878  1.0000
  H   H5049     1.0  0.86421  0.22946  0.45335  1.0000
  C   C4246     1.0  0.82711  0.07073  0.47624  1.0000
  C   C4247     1.0  0.95991  0.17468  0.47933  1.0000
  H   H5050     1.0  0.80996  0.01322  0.48114  1.0000
  H   H5051     1.0  0.93178  0.48192  0.35064  1.0000
  H   H5052     1.0  0.93918  0.14412  0.47950  1.0000
  C   C4248     1.0  0.94361  0.43712  0.39544  1.0000
  H   H5053     1.0  0.93137  0.45791  0.38685  1.0000
  C   C4249     1.0  0.96669  0.15441  0.43743  1.0000
  H   H5054     1.0  0.87612  0.39756  0.41185  1.0000
  C   C4250     1.0  0.94394  0.44330  0.29009  1.0000
  C   C4251     1.0  0.93844  0.44220  0.31004  1.0000
  S   S1142     1.0  0.97529  0.48259  0.28007  1.0000
  H   H5055     1.0  0.92844  0.43080  0.37616  1.0000
  H   H5056     1.0  0.97236  0.46302  0.24206  1.0000
  H   H5057     1.0  0.87724  0.43465  0.27045  1.0000
  C   C4252     1.0  0.93872  0.47430  0.24790  1.0000
  H   H5058     1.0  0.89946  0.29039  0.46533  1.0000
  C   C4253     1.0  0.84752  0.25420  0.45523  1.0000
  C   C4254     1.0  0.98182  0.09976  0.46928  1.0000
  H   H5059     1.0  0.87179  0.07523  0.44860  1.0000
  H   H5060     1.0  0.94798  0.36201  0.43138  1.0000
  C   C4255     1.0  0.86794  0.06921  0.45544  1.0000
  H   H5061     1.0  0.92352  0.10851  0.46499  1.0000
  H   H5062     1.0  0.90834  0.22982  0.45776  1.0000
  H   H5063     1.0  0.94546  0.35096  0.47475  1.0000
  H   H5064     1.0  0.93266  0.11265  0.47627  1.0000
  C   C4256     1.0  0.86415  0.45236  0.26193  1.0000
  H   H5065     1.0  0.89877  0.07601  0.46416  1.0000
  S   S1143     1.0  0.98530  0.20889  0.41553  1.0000
  N   N281      1.0  0.86535  0.44118  0.26034  1.0000
  H   H5066     1.0  0.89644  0.43377  0.47152  1.0000
  N   N282      1.0  0.92582  0.25219  0.42696  1.0000
  C   C4257     1.0  0.97169  0.37016  0.41986  1.0000
  C   C4258     1.0  0.78818  0.03987  0.46085  1.0000
  H   H5067     1.0  0.89556  0.39522  0.46773  1.0000
  H   H5068     1.0  0.96939  0.14260  0.46054  1.0000
  C   C4259     1.0  0.94939  0.47564  0.24426  1.0000
  H   H5069     1.0  0.88971  0.10932  0.47207  1.0000
  H   H5070     1.0  0.89848  0.42247  0.45800  1.0000
  H   H5071     1.0  0.86052  0.18142  0.47924  1.0000
  H   H5072     1.0  0.98299  0.24543  0.48326  1.0000
  H   H5073     1.0  0.90154  0.34991  0.44352  1.0000
  H   H5074     1.0  0.95648  0.18098  0.42996  1.0000
  H   H5075     1.0  0.90823  0.40399  0.47829  1.0000
  H   H5076     1.0  0.87004  0.18532  0.46654  1.0000
  H   H5077     1.0  0.90813  0.32378  0.47552  1.0000
  C   C4260     1.0  0.93242  0.45485  0.27770  1.0000
  Fe  Fe572     1.0  0.89415  0.46309  0.33721  1.0000
  H   H5078     1.0  0.95028  0.44692  0.23759  1.0000
  C   C4261     1.0  0.97037  0.25593  0.42605  1.0000
  H   H5079     1.0  0.96160  0.46336  0.32891  1.0000
  S   S1144     1.0  0.89830  0.44427  0.23642  1.0000
  C   C4262     1.0  0.92679  0.24117  0.48156  1.0000
  Fe  Fe573     1.0  0.90082  0.45281  0.24805  1.0000
  H   H5080     1.0  0.92013  0.15869  0.46223  1.0000
  C   C4263     1.0  0.89430  0.26784  0.47897  1.0000
  C   C4264     1.0  0.86131  0.26078  0.43321  1.0000
  N   N283      1.0  0.92868  0.15952  0.47383  1.0000
  C   C4265     1.0  0.82732  0.06123  0.46266  1.0000
  C   C4266     1.0  0.97539  0.29164  0.48399  1.0000
  C   C4267     1.0  0.86633  0.24498  0.42077  1.0000
  C   C4268     1.0  0.92689  0.48084  0.30147  1.0000
  H   H5081     1.0  0.79516  0.06572  0.44698  1.0000
  H   H5082     1.0  0.86499  0.27205  0.41768  1.0000
  H   H5083     1.0  0.81807  0.02277  0.47870  1.0000
  H   H5084     1.0  0.96195  0.21403  0.45840  1.0000
  C   C4269     1.0  0.82672  0.11688  0.48192  1.0000
  N   N284      1.0  0.92009  0.13850  0.43307  1.0000
  C   C4270     1.0  0.92008  0.12974  0.44319  1.0000
  C   C4271     1.0  0.91075  0.13890  0.42858  1.0000
  C   C4272     1.0  0.93008  0.13554  0.42468  1.0000
  C   C4273     1.0  0.91957  0.14898  0.43578  1.0000
  C   C4274     1.0  0.90962  0.15655  0.43836  1.0000
  C   C4275     1.0  0.92905  0.15170  0.43643  1.0000
  C   C4276     1.0  0.90935  0.16663  0.44039  1.0000
  C   C4277     1.0  0.92870  0.16182  0.43843  1.0000
  C   C4278     1.0  0.91889  0.16935  0.44019  1.0000
  H   H5085     1.0  0.91256  0.13153  0.44957  1.0000
  H   H5086     1.0  0.92058  0.12165  0.44152  1.0000
  H   H5087     1.0  0.92704  0.12887  0.44681  1.0000
  H   H5088     1.0  0.91162  0.13132  0.42572  1.0000
  H   H5089     1.0  0.90976  0.14596  0.42147  1.0000
  H   H5090     1.0  0.90301  0.13945  0.43484  1.0000
  H   H5091     1.0  0.93124  0.14260  0.41763  1.0000
  H   H5092     1.0  0.93748  0.13248  0.42809  1.0000
  H   H5093     1.0  0.92982  0.12874  0.42122  1.0000
  H   H5094     1.0  0.90193  0.15491  0.43874  1.0000
  H   H5095     1.0  0.93686  0.14610  0.43532  1.0000
  H   H5096     1.0  0.90168  0.17243  0.44200  1.0000
  H   H5097     1.0  0.93611  0.16384  0.43853  1.0000
  H   H5098     1.0  0.91864  0.17725  0.44157  1.0000
  S   S1145     1.0  0.90997  0.46377  0.35796  1.0000
  S   S1146     1.0  0.89681  0.37862  0.44775  1.0000
  H   H5099     1.0  0.94038  0.43632  0.37050  1.0000
  H   H5100     1.0  0.91394  0.43834  0.39077  1.0000
  C   C4279     1.0  0.89333  0.41075  0.37129  1.0000
  C   C4280     1.0  0.93361  0.46781  0.34419  1.0000
  H   H5101     1.0  0.94219  0.24282  0.43904  1.0000
  H   H5102     1.0  0.79696  0.00113  0.46760  1.0000
  N   N285      1.0  0.92936  0.44316  0.38384  1.0000
  H   H5103     1.0  0.87480  0.38527  0.38959  1.0000
  C   C4281     1.0  0.93964  0.38220  0.40346  1.0000
  H   H5104     1.0  0.97889  0.26881  0.41998  1.0000
  C   C4282     1.0  0.96504  0.35658  0.41606  1.0000
  H   H5105     1.0  0.93816  0.09606  0.46951  1.0000
  C   C4283     1.0  0.94913  0.44099  0.31054  1.0000
  H   H5106     1.0  0.90130  0.38382  0.39472  1.0000
  H   H5107     1.0  0.93989  0.16030  0.45806  1.0000
  C   C4284     1.0  0.89433  0.38632  0.40133  1.0000
  C   C4285     1.0  0.88230  0.38223  0.39285  1.0000
  C   C4286     1.0  0.94562  0.37438  0.41061  1.0000
  N   N286      1.0  0.90253  0.33409  0.45501  1.0000
  H   H5108     1.0  0.95095  0.37402  0.43286  1.0000
  H   H5109     1.0  0.91009  0.33880  0.43783  1.0000
  N   N287      1.0  0.96743  0.16483  0.48406  1.0000
  H   H5110     1.0  0.95218  0.34302  0.46447  1.0000
  C   C4287     1.0  0.82067  0.05476  0.47054  1.0000
  Fe  Fe574     1.0  0.96588  0.48151  0.26873  1.0000
  S   S1147     1.0  0.90738  0.43906  0.28706  1.0000
  C   C4288     1.0  0.95335  0.39286  0.39764  1.0000
  Fe  Fe575     1.0  0.97506  0.37051  0.45000  1.0000
  H   H5111     1.0  0.92744  0.44424  0.30003  1.0000
  S   S1148     1.0  0.92381  0.27532  0.44546  1.0000
  C   C4289     1.0  0.93455  0.24044  0.44285  1.0000
  C   C4290     1.0  0.93588  0.09111  0.47795  1.0000
  H   H5112     1.0  0.80276  0.06697  0.45590  1.0000
  C   C4291     1.0  0.98042  0.32699  0.44024  1.0000
  C   C4292     1.0  0.96697  0.14388  0.46886  1.0000
  C   C4293     1.0  0.89249  0.40104  0.37924  1.0000
  C   C4294     1.0  0.97867  0.43550  0.40267  1.0000
  H   H5113     1.0  0.86867  0.23879  0.41592  1.0000
  C   C4295     1.0  0.96990  0.30315  0.46745  1.0000
  S   S1149     1.0  0.92408  0.19179  0.45043  1.0000
  H   H5114     1.0  0.93617  0.34318  0.45965  1.0000
  H   H5115     1.0  0.93464  0.40951  0.40894  1.0000
  S   S1150     1.0  0.90839  0.46620  0.26705  1.0000
  C   C4296     1.0  0.94800  0.34251  0.47326  1.0000
  C   C4297     1.0  0.85557  0.08385  0.46319  1.0000
  H   H5116     1.0  0.96722  0.32051  0.46596  1.0000
  C   C4298     1.0  0.89726  0.10698  0.47481  1.0000
  H   H5117     1.0  0.95109  0.44037  0.31830  1.0000
  H   H5118     1.0  0.96980  0.37820  0.42215  1.0000
  C   C4299     1.0  0.94562  0.41938  0.40809  1.0000
  H   H5119     1.0  0.89434  0.32907  0.44565  1.0000
  C   C4300     1.0  0.94249  0.32575  0.47509  1.0000
  H   H5120     1.0  0.90648  0.11328  0.45900  1.0000
  S   S1151     1.0  0.96648  0.46187  0.30653  1.0000
  H   H5121     1.0  0.93215  0.44231  0.31752  1.0000
  C   C4301     1.0  0.92463  0.22913  0.45833  1.0000
  C   C4302     1.0  0.86654  0.24827  0.45532  1.0000
  H   H5122     1.0  0.84819  0.26289  0.45339  1.0000
  H   H5123     1.0  0.87395  0.06130  0.45673  1.0000
  H   H5124     1.0  0.84487  0.25177  0.46433  1.0000
  C   C4303     1.0  0.93405  0.23292  0.45296  1.0000
  H   H5125     1.0  0.87446  0.24303  0.45218  1.0000
  H   H5126     1.0  0.84099  0.13078  0.47578  1.0000
  H   H5127     1.0  0.95628  0.40011  0.39267  1.0000
  C   C4304     1.0  0.95053  0.15992  0.40775  1.0000
  C   C4305     1.0  0.87616  0.43472  0.26223  1.0000
  H   H5128     1.0  0.92468  0.33932  0.46966  1.0000
  H   H5129     1.0  0.90859  0.25884  0.42863  1.0000
  H   H5130     1.0  0.86298  0.23351  0.43567  1.0000
  H   H5131     1.0  0.79249  0.04469  0.47327  1.0000
  C   C4306     1.0  0.91480  0.47171  0.29762  1.0000
  H   H5132     1.0  0.81503  0.02781  0.45976  1.0000
  C   C4307     1.0  0.91644  0.10640  0.47097  1.0000
  C   C4308     1.0  0.92941  0.41679  0.44624  1.0000
  H   H5133     1.0  0.98463  0.15831  0.48113  1.0000
  H   H5134     1.0  0.94521  0.16125  0.46896  1.0000
  S   S1152     1.0  0.97060  0.47464  0.37812  1.0000
  C   C4309     1.0  0.88858  0.46239  0.30350  1.0000
  H   H5135     1.0  0.91305  0.45171  0.38231  1.0000
  C   C4310     1.0  0.89297  0.34885  0.46563  1.0000
  C   C4311     1.0  0.89818  0.29536  0.47118  1.0000
  H   H5136     1.0  0.92449  0.46411  0.30931  1.0000
  C   C4312     1.0  0.94275  0.17724  0.41331  1.0000
  C   C4313     1.0  0.98337  0.24713  0.40817  1.0000
  H   H5137     1.0  0.96134  0.12886  0.47557  1.0000
  H   H5138     1.0  0.94314  0.25066  0.42124  1.0000
  C   C4314     1.0  0.92861  0.25845  0.46933  1.0000
  H   H5139     1.0  0.90689  0.31671  0.46189  1.0000
  Fe  Fe576     1.0  0.97459  0.39311  0.43419  1.0000
  H   H5140     1.0  0.78967  0.06398  0.46156  1.0000
  H   H5141     1.0  0.85292  0.06843  0.48142  1.0000
  N   N288      1.0  0.95430  0.18952  0.41376  1.0000
  C   C4315     1.0  0.96546  0.19149  0.40978  1.0000
  C   C4316     1.0  0.94701  0.19939  0.40863  1.0000
  C   C4317     1.0  0.95133  0.18841  0.42582  1.0000
  C   C4318     1.0  0.95316  0.17950  0.41131  1.0000
  C   C4319     1.0  0.96221  0.17143  0.40758  1.0000
  H   H5142     1.0  0.97417  0.14589  0.42425  1.0000
  H   H5143     1.0  0.97712  0.31991  0.44156  1.0000
  C   C4320     1.0  0.89971  0.33829  0.46518  1.0000
  H   H5144     1.0  0.85419  0.10821  0.47498  1.0000
  H   H5145     1.0  0.94356  0.08782  0.48091  1.0000
  C   C4321     1.0  0.86886  0.07901  0.48012  1.0000
  H   H5146     1.0  0.97126  0.18498  0.41410  1.0000
  H   H5147     1.0  0.93831  0.19964  0.41252  1.0000
  H   H5148     1.0  0.94819  0.19984  0.39970  1.0000
  H   H5149     1.0  0.94851  0.20711  0.40946  1.0000
  H   H5150     1.0  0.88986  0.35406  0.45859  1.0000
  H   H5151     1.0  0.94277  0.18769  0.42935  1.0000
  H   H5152     1.0  0.92936  0.41458  0.24922  1.0000
  H   H5153     1.0  0.97045  0.17226  0.40609  1.0000
  C   C4322     1.0  0.91704  0.10074  0.48192  1.0000
  H   H5154     1.0  0.87742  0.42599  0.26189  1.0000
  C   C4323     1.0  0.88593  0.40097  0.48241  1.0000
  C   C4324     1.0  0.87093  0.41640  0.47955  1.0000
  C   C4325     1.0  0.90421  0.44307  0.30750  1.0000
  H   H5155     1.0  0.97462  0.23412  0.41480  1.0000
  H   H5156     1.0  0.92203  0.39657  0.46293  1.0000
  H   H5157     1.0  0.86003  0.26713  0.43760  1.0000
  C   C4326     1.0  0.79886  0.08476  0.46526  1.0000
  C   C4327     1.0  0.83028  0.06943  0.46542  1.0000
  H   H5158     1.0  0.96980  0.35017  0.42167  1.0000
  C   C4328     1.0  0.89859  0.42542  0.47669  1.0000
  H   H5159     1.0  0.92678  0.47149  0.34037  1.0000
  C   C4329     1.0  0.86380  0.44182  0.24929  1.0000
  Fe  Fe577     1.0  0.90501  0.44958  0.27066  1.0000
  C   C4330     1.0  0.88868  0.40110  0.47104  1.0000
  C   C4331     1.0  0.93717  0.41722  0.40516  1.0000
  C   C4332     1.0  0.90585  0.29333  0.47749  1.0000
  S   S1153     1.0  0.89322  0.19452  0.45704  1.0000
  H   H5160     1.0  0.88325  0.33072  0.42840  1.0000
  C   C4333     1.0  0.87766  0.18749  0.48363  1.0000
  H   H5161     1.0  0.92562  0.25649  0.46306  1.0000
  Fe  Fe578     1.0  0.88664  0.21253  0.45474  1.0000
  H   H5162     1.0  0.96688  0.38686  0.40495  1.0000
  C   C4334     1.0  0.93288  0.45376  0.37998  1.0000
  C   C4335     1.0  0.90124  0.44664  0.29732  1.0000
  C   C4336     1.0  0.95481  0.44165  0.29096  1.0000
  H   H5163     1.0  0.93076  0.45674  0.26935  1.0000
  H   H5164     1.0  0.91145  0.46457  0.29922  1.0000
  C   C4337     1.0  0.97873  0.16606  0.47885  1.0000
  C   C4338     1.0  0.89041  0.07673  0.46867  1.0000
  H   H5165     1.0  0.87488  0.38388  0.41362  1.0000
  C   C4339     1.0  0.88884  0.35536  0.42657  1.0000
  S   S1154     1.0  0.98188  0.27385  0.44014  1.0000
  H   H5166     1.0  0.95364  0.45267  0.26889  1.0000
  C   C4340     1.0  0.92553  0.41803  0.45711  1.0000
  H   H5167     1.0  0.97222  0.15889  0.46423  1.0000
  H   H5168     1.0  0.94957  0.15242  0.40642  1.0000
  C   C4341     1.0  0.93198  0.42492  0.39727  1.0000
  N   N289      1.0  0.88400  0.39057  0.39762  1.0000
  C   C4342     1.0  0.87510  0.39181  0.40749  1.0000
  C   C4343     1.0  0.88773  0.33715  0.42599  1.0000
  H   H5169     1.0  0.84003  0.00966  0.46846  1.0000
  H   H5170     1.0  0.85010  0.23378  0.45260  1.0000
  H   H5171     1.0  0.97955  0.27554  0.39485  1.0000
  S   S1155     1.0  0.89317  0.28234  0.44857  1.0000
  H   H5172     1.0  0.96156  0.44127  0.28396  1.0000
  H   H5173     1.0  0.89634  0.39272  0.40409  1.0000
  S   S1156     1.0  0.90872  0.47024  0.33205  1.0000
  C   C4344     1.0  0.88454  0.40094  0.38924  1.0000
  C   C4345     1.0  0.87756  0.41119  0.39080  1.0000
  H   H5174     1.0  0.94223  0.36742  0.41553  1.0000
  H   H5175     1.0  0.93876  0.39749  0.39153  1.0000
  S   S1157     1.0  0.97359  0.45218  0.36921  1.0000
  C   C4346     1.0  0.93868  0.47026  0.31450  1.0000
  Fe  Fe579     1.0  0.91589  0.45572  0.34358  1.0000
  C   C4347     1.0  0.95567  0.37561  0.41154  1.0000
  C   C4348     1.0  0.91616  0.42716  0.47678  1.0000
  S   S1158     1.0  0.88292  0.36745  0.43159  1.0000
  C   C4349     1.0  0.88305  0.34704  0.42953  1.0000
  H   H5176     1.0  0.91176  0.16083  0.47525  1.0000
  C   C4350     1.0  0.86421  0.26370  0.42174  1.0000
  H   H5177     1.0  0.91599  0.43534  0.47108  1.0000
  H   H5178     1.0  0.91856  0.24258  0.42109  1.0000
  C   C4351     1.0  0.84594  0.10913  0.48043  1.0000
  H   H5179     1.0  0.96128  0.16412  0.44968  1.0000
  S   S1159     1.0  0.97147  0.40182  0.44783  1.0000
  C   C4352     1.0  0.93163  0.34316  0.46829  1.0000
  N   N290      1.0  0.93859  0.33729  0.47629  1.0000
  C   C4353     1.0  0.95471  0.36595  0.43056  1.0000
  C   C4354     1.0  0.88249  0.13731  0.46594  1.0000
  C   C4355     1.0  0.85651  0.23542  0.45555  1.0000
  C   C4356     1.0  0.88502  0.16680  0.46871  1.0000
  C   C4357     1.0  0.89248  0.13707  0.47903  1.0000
  H   H5180     1.0  0.91802  0.32371  0.45728  1.0000
  C   C4358     1.0  0.87531  0.13186  0.47437  1.0000
  H   H5181     1.0  0.87500  0.34816  0.43471  1.0000
  Fe  Fe580     1.0  0.88780  0.30003  0.44947  1.0000
  H   H5182     1.0  0.85139  0.08718  0.47064  1.0000
  H   H5183     1.0  0.90177  0.44647  0.32348  1.0000
  H   H5184     1.0  0.98478  0.27968  0.40400  1.0000
  C   C4359     1.0  0.83193  0.99634  0.45752  1.0000
  H   H5185     1.0  0.95798  0.35342  0.41624  1.0000
  C   C4360     1.0  0.90671  0.10932  0.46748  1.0000
  C   C4361     1.0  0.89349  0.45637  0.29530  1.0000
  H   H5186     1.0  0.97324  0.41721  0.42698  1.0000
  C   C4362     1.0  0.86738  0.17824  0.47287  1.0000
  S   S1160     1.0  0.88977  0.45530  0.26427  1.0000
  S   S1161     1.0  0.97218  0.35353  0.45333  1.0000
  C   C4363     1.0  0.97557  0.24179  0.41576  1.0000
  H   H5187     1.0  0.95129  0.27067  0.47639  1.0000
  N   N291      1.0  0.83751  0.11600  0.47433  1.0000
  H   H5188     1.0  0.88832  0.17363  0.46268  1.0000
  C   C4364     1.0  0.91610  0.24025  0.44343  1.0000
  H   H5189     1.0  0.90949  0.26949  0.46838  1.0000
  H   H5190     1.0  0.94112  0.22976  0.45651  1.0000
  H   H5191     1.0  0.84669  0.11036  0.45959  1.0000
  H   H5192     1.0  0.95240  0.19556  0.42814  1.0000
  H   H5193     1.0  0.86911  0.42286  0.46288  1.0000
  C   C4365     1.0  0.97466  0.33534  0.44583  1.0000
  H   H5194     1.0  0.86587  0.45214  0.26992  1.0000
  S   S1162     1.0  0.91574  0.44553  0.25494  1.0000
  C   C4366     1.0  0.96234  0.13616  0.47732  1.0000
  S   S1163     1.0  0.83033  0.08143  0.47941  1.0000
  H   H5195     1.0  0.83504  0.07471  0.45918  1.0000
  C   C4367     1.0  0.93648  0.47377  0.34996  1.0000
  C   C4368     1.0  0.91620  0.26143  0.42754  1.0000
  H   H5196     1.0  0.91017  0.43553  0.30911  1.0000
  H   H5197     1.0  0.96781  0.30405  0.45976  1.0000
  H   H5198     1.0  0.80630  0.08877  0.47601  1.0000
  H   H5199     1.0  0.85956  0.09020  0.45702  1.0000
  C   C4369     1.0  0.97186  0.10176  0.47666  1.0000
  H   H5200     1.0  0.88047  0.31696  0.48070  1.0000
  H   H5201     1.0  0.93807  0.41474  0.44295  1.0000
  H   H5202     1.0  0.91527  0.26527  0.43448  1.0000
  C   C4370     1.0  0.79599  0.08676  0.44304  1.0000
  H   H5203     1.0  0.87955  0.46246  0.23741  1.0000
  Fe  Fe581     1.0  0.89557  0.45651  0.36109  1.0000
  H   H5204     1.0  0.97583  0.17446  0.44172  1.0000
  S   S1164     1.0  0.96274  0.46510  0.27789  1.0000
  S   S1165     1.0  0.97836  0.21820  0.43854  1.0000
  C   C4371     1.0  0.83411  0.01544  0.46371  1.0000
  Fe  Fe582     1.0  0.91790  0.46277  0.25071  1.0000
  C   C4372     1.0  0.93781  0.16364  0.46558  1.0000
  S   S1166     1.0  0.88592  0.41043  0.44959  1.0000
  N   N292      1.0  0.87646  0.17080  0.47775  1.0000
  C   C4373     1.0  0.96947  0.31248  0.47099  1.0000
  H   H5205     1.0  0.93594  0.17272  0.46282  1.0000
  S   S1167     1.0  0.97745  0.47544  0.35180  1.0000
  C   C4374     1.0  0.89154  0.45886  0.31367  1.0000
  H   H5206     1.0  0.93631  0.28628  0.48094  1.0000
  H   H5207     1.0  0.83024  0.05992  0.45444  1.0000
  C   C4375     1.0  0.98556  0.39530  0.47901  1.0000
  H   H5208     1.0  0.89111  0.45916  0.28750  1.0000
  S   S1168     1.0  0.94767  0.47596  0.36366  1.0000
  C   C4376     1.0  0.90313  0.33197  0.47498  1.0000
  C   C4377     1.0  0.91244  0.40924  0.48031  1.0000
  S   S1169     1.0  0.87914  0.30601  0.46488  1.0000
  H   H5209     1.0  0.93629  0.26115  0.42909  1.0000
  H   H5210     1.0  0.88663  0.34064  0.45137  1.0000
  H   H5211     1.0  0.84915  0.08278  0.45983  1.0000
  C   C4378     1.0  0.92570  0.24640  0.41869  1.0000
  C   C4379     1.0  0.97811  0.26135  0.41849  1.0000
  C   C4380     1.0  0.88875  0.22107  0.47467  1.0000
  H   H5212     1.0  0.88188  0.16280  0.46408  1.0000
  S   S1170     1.0  0.95621  0.14732  0.44309  1.0000
  H   H5213     1.0  0.86418  0.17402  0.46849  1.0000
  C   C4381     1.0  0.96899  0.20403  0.47201  1.0000
  H   H5214     1.0  0.90552  0.42038  0.43929  1.0000
  C   C4382     1.0  0.91902  0.16291  0.46895  1.0000
  H   H5215     1.0  0.88247  0.46982  0.30195  1.0000
  C   C4383     1.0  0.82505  0.00045  0.46673  1.0000
  C   C4384     1.0  0.92223  0.41774  0.43980  1.0000
  H   H5216     1.0  0.86145  0.06771  0.45244  1.0000
  C   C4385     1.0  0.88258  0.40902  0.46397  1.0000
  S   S1171     1.0  0.90309  0.14045  0.48203  1.0000
  H   H5217     1.0  0.96309  0.24195  0.43052  1.0000
  H   H5218     1.0  0.93347  0.14411  0.46864  1.0000
  C   C4386     1.0  0.96716  0.16251  0.44231  1.0000
  C   C4387     1.0  0.95750  0.22223  0.47182  1.0000
  C   C4388     1.0  0.91113  0.41991  0.44421  1.0000
  C   C4389     1.0  0.88886  0.30367  0.47255  1.0000
  S   S1172     1.0  0.88528  0.46662  0.32374  1.0000
  H   H5219     1.0  0.92541  0.25207  0.41052  1.0000
  C   C4390     1.0  0.78897  0.09176  0.48152  1.0000
  H   H5220     1.0  0.88989  0.27419  0.47341  1.0000
  H   H5221     1.0  0.91669  0.26796  0.41986  1.0000
  C   C4391     1.0  0.93558  0.25700  0.42299  1.0000
  C   C4392     1.0  0.81799  0.05566  0.48147  1.0000
  C   C4393     1.0  0.86317  0.24202  0.43222  1.0000
  C   C4394     1.0  0.92248  0.17569  0.48284  1.0000
  S   S1173     1.0  0.87850  0.22111  0.46849  1.0000
  H   H5222     1.0  0.93566  0.32149  0.47750  1.0000
  C   C4395     1.0  0.96085  0.16180  0.40586  1.0000
  H   H5223     1.0  0.84094  0.25397  0.45155  1.0000
  H   H5224     1.0  0.96538  0.25934  0.43302  1.0000
  C   C4396     1.0  0.81846  0.01419  0.47836  1.0000
  H   H5225     1.0  0.92473  0.42297  0.47692  1.0000
  H   H5226     1.0  0.96598  0.19929  0.41140  1.0000
  H   H5227     1.0  0.83270  0.11602  0.45975  1.0000
  H   H5228     1.0  0.86956  0.25800  0.40669  1.0000
  C   C4397     1.0  0.97493  0.45890  0.31577  1.0000
  N   N293      1.0  0.93492  0.48103  0.30739  1.0000
  H   H5229     1.0  0.93532  0.26329  0.41517  1.0000
  C   C4398     1.0  0.92238  0.47157  0.30337  1.0000
  C   C4399     1.0  0.81824  0.11285  0.48067  1.0000
  H   H5230     1.0  0.97015  0.35727  0.40756  1.0000
  H   H5231     1.0  0.89358  0.42024  0.47588  1.0000
  H   H5232     1.0  0.81919  0.10885  0.47412  1.0000
  H   H5233     1.0  0.79288  0.09577  0.44211  1.0000
  H   H5234     1.0  0.97770  0.37053  0.41187  1.0000
  S   S1174     1.0  0.98161  0.44862  0.39776  1.0000
  Fe  Fe583     1.0  0.98044  0.28549  0.45052  1.0000
  C   C4400     1.0  0.78912  0.08438  0.46284  1.0000
  H   H5235     1.0  0.93758  0.25556  0.46748  1.0000
  C   C4401     1.0  0.96975  0.20320  0.48271  1.0000
  C   C4402     1.0  0.97667  0.45792  0.33419  1.0000
  C   C4403     1.0  0.79323  0.00413  0.46032  1.0000
  H   H5236     1.0  0.93308  0.08405  0.47731  1.0000
  H   H5237     1.0  0.98523  0.47644  0.31928  1.0000
  H   H5238     1.0  0.84437  0.10079  0.48436  1.0000
  H   H5239     1.0  0.83698  0.10256  0.46797  1.0000
  H   H5240     1.0  0.91376  0.20651  0.47850  1.0000
  Fe  Fe584     1.0  0.98422  0.38766  0.45399  1.0000
  H   H5241     1.0  0.95115  0.48374  0.30355  1.0000
  H   H5242     1.0  0.78916  0.05896  0.48258  1.0000
  C   C4404     1.0  0.88730  0.22907  0.48053  1.0000
  C   C4405     1.0  0.85260  0.44921  0.23550  1.0000
  H   H5243     1.0  0.97954  0.25475  0.47078  1.0000
  C   C4406     1.0  0.97906  0.34429  0.44476  1.0000
  H   H5244     1.0  0.91299  0.28680  0.47650  1.0000
  H   H5245     1.0  0.96789  0.15569  0.40315  1.0000
  C   C4407     1.0  0.97679  0.45607  0.23844  1.0000
  H   H5246     1.0  0.95429  0.33789  0.47797  1.0000
  S   S1175     1.0  0.97874  0.44428  0.25950  1.0000
  H   H5247     1.0  0.92222  0.23846  0.47717  1.0000
  H   H5248     1.0  0.98025  0.16854  0.46974  1.0000
  H   H5249     1.0  0.98418  0.48425  0.32898  1.0000
  H   H5250     1.0  0.87156  0.19299  0.47942  1.0000
  H   H5251     1.0  0.92504  0.14367  0.48213  1.0000
  C   C4408     1.0  0.88723  0.08020  0.47852  1.0000
  H   H5252     1.0  0.97835  0.41313  0.39414  1.0000
  H   H5253     1.0  0.92123  0.40532  0.47890  1.0000
  H   H5254     1.0  0.85646  0.32961  0.48368  1.0000
  C   C4409     1.0  0.97635  0.43125  0.41404  1.0000
  S   S1176     1.0  0.97471  0.40006  0.41617  1.0000
  H   H5255     1.0  0.97583  0.43628  0.41960  1.0000
  C   C4410     1.0  0.98240  0.16708  0.42771  1.0000
  H   H5256     1.0  0.87915  0.43084  0.24337  1.0000
  H   H5257     1.0  0.93555  0.23842  0.47807  1.0000
  S   S1177     1.0  0.98023  0.47506  0.25646  1.0000
  H   H5258     1.0  0.78842  0.04769  0.45509  1.0000
  H   H5259     1.0  0.98171  0.22036  0.46501  1.0000
  H   H5260     1.0  0.98084  0.17256  0.48140  1.0000
  H   H5261     1.0  0.89311  0.08208  0.48168  1.0000
  C   C4411     1.0  0.87648  0.08132  0.48425  1.0000
  H   H5262     1.0  0.96144  0.48261  0.24646  1.0000
  Fe  Fe585     1.0  0.98436  0.47864  0.36412  1.0000
  C   C4412     1.0  0.79449  0.06883  0.45436  1.0000
  N   N294      1.0  0.92354  0.25323  0.48062  1.0000
  C   C4413     1.0  0.98074  0.44608  0.24517  1.0000
  Fe  Fe586     1.0  0.98067  0.45738  0.38026  1.0000
  H   H5263     1.0  0.98575  0.25871  0.47922  1.0000
  C   C4414     1.0  0.82129  0.06361  0.48435  1.0000
  H   H5264     1.0  0.79170  0.05505  0.42930  1.0000
  C   C4415     1.0  0.97771  0.41820  0.39972  1.0000
  C   C4416     1.0  0.78723  0.01990  0.47585  1.0000
  H   H5265     1.0  0.92261  0.48706  0.32049  1.0000
  C   C4417     1.0  0.89327  0.34642  0.48471  1.0000
  S   S1178     1.0  0.97205  0.32335  0.48474  1.0000
  C   C4418     1.0  0.94814  0.28130  0.50278  1.0000
  Fe  Fe587     1.0  0.96752  0.38690  0.53041  1.0000
  H   H5266     1.0  0.95480  0.21631  0.55992  1.0000
  S   S1179     1.0  0.95455  0.37889  0.53046  1.0000
  C   C4419     1.0  0.90554  0.25154  0.49336  1.0000
  S   S1180     1.0  0.90027  0.47108  0.67086  1.0000
  H   H5267     1.0  0.94310  0.47915  0.65496  1.0000
  H   H5268     1.0  0.97771  0.47466  0.53377  1.0000
  S   S1181     1.0  0.96699  0.40482  0.52771  1.0000
  Fe  Fe588     1.0  0.90656  0.40610  0.51267  1.0000
  S   S1182     1.0  0.89056  0.41799  0.51468  1.0000
  S   S1183     1.0  0.92186  0.41162  0.50339  1.0000
  Fe  Fe589     1.0  0.89732  0.38653  0.52635  1.0000
  S   S1184     1.0  0.88045  0.39665  0.52920  1.0000
  S   S1185     1.0  0.90141  0.36881  0.53481  1.0000
  Fe  Fe590     1.0  0.88487  0.40470  0.51135  1.0000
  S   S1186     1.0  0.87286  0.40899  0.50072  1.0000
  Fe  Fe591     1.0  0.88782  0.40879  0.53233  1.0000
  S   S1187     1.0  0.88169  0.41412  0.54854  1.0000
  S   S1188     1.0  0.90112  0.39341  0.50817  1.0000
  S   S1189     1.0  0.90441  0.39811  0.53058  1.0000
  H   H5269     1.0  0.92494  0.48386  0.70304  1.0000
  H   H5270     1.0  0.95556  0.19303  0.50375  1.0000
  H   H5271     1.0  0.88631  0.46495  0.71247  1.0000
  C   C4420     1.0  0.80643  0.11822  0.49719  1.0000
  C   C4421     1.0  0.89028  0.18585  0.49470  1.0000
  Fe  Fe592     1.0  0.97951  0.12722  0.51300  1.0000
  H   H5272     1.0  0.79172  0.02702  0.48657  1.0000
  S   S1190     1.0  0.96189  0.13123  0.52112  1.0000
  C   C4422     1.0  0.98022  0.33253  0.54851  1.0000
  C   C4423     1.0  0.96805  0.47469  0.55472  1.0000
  H   H5273     1.0  0.96244  0.23033  0.55728  1.0000
  S   S1191     1.0  0.92248  0.46690  0.68852  1.0000
  C   C4424     1.0  0.97839  0.25643  0.52055  1.0000
  H   H5274     1.0  0.95985  0.10931  0.53826  1.0000
  Fe  Fe593     1.0  0.91541  0.11586  0.51494  1.0000
  S   S1192     1.0  0.91592  0.13326  0.50665  1.0000
  S   S1193     1.0  0.93179  0.10460  0.51440  1.0000
  Fe  Fe594     1.0  0.89075  0.12075  0.52108  1.0000
  S   S1194     1.0  0.88934  0.13884  0.51359  1.0000
  S   S1195     1.0  0.87593  0.11372  0.53017  1.0000
  Fe  Fe595     1.0  0.90238  0.13300  0.49984  1.0000
  C   C4425     1.0  0.95510  0.37687  0.49421  1.0000
  Fe  Fe596     1.0  0.90316  0.13739  0.52120  1.0000
  S   S1196     1.0  0.90674  0.14889  0.52915  1.0000
  S   S1197     1.0  0.90291  0.11508  0.50670  1.0000
  S   S1198     1.0  0.90342  0.11987  0.53009  1.0000
  Fe  Fe597     1.0  0.97868  0.23552  0.50875  1.0000
  S   S1199     1.0  0.96102  0.24311  0.51015  1.0000
  H   H5275     1.0  0.87957  0.20093  0.48908  1.0000
  C   C4426     1.0  0.96063  0.21043  0.56472  1.0000
  S   S1200     1.0  0.95719  0.21801  0.51807  1.0000
  C   C4427     1.0  0.85879  0.47991  0.53117  1.0000
  Fe  Fe598     1.0  0.96131  0.22983  0.50221  1.0000
  H   H5276     1.0  0.97133  0.24553  0.54898  1.0000
  Fe  Fe599     1.0  0.95891  0.23049  0.52584  1.0000
  S   S1201     1.0  0.94787  0.23303  0.54192  1.0000
  H   H5277     1.0  0.92929  0.47700  0.72152  1.0000
  H   H5278     1.0  0.78891  0.09456  0.48866  1.0000
  C   C4428     1.0  0.85865  0.16693  0.52618  1.0000
  H   H5279     1.0  0.97200  0.08521  0.51531  1.0000
  C   C4429     1.0  0.94110  0.44772  0.72243  1.0000
  H   H5280     1.0  0.81324  0.05032  0.48765  1.0000
  S   S1202     1.0  0.96290  0.31236  0.51524  1.0000
  C   C4430     1.0  0.95739  0.28891  0.51153  1.0000
  S   S1203     1.0  0.97882  0.19362  0.52329  1.0000
  H   H5281     1.0  0.92443  0.15693  0.51156  1.0000
  Fe  Fe600     1.0  0.96414  0.32453  0.52371  1.0000
  S   S1204     1.0  0.94836  0.33345  0.53234  1.0000
  C   C4431     1.0  0.78674  0.09824  0.51829  1.0000
  S   S1205     1.0  0.97734  0.31321  0.53173  1.0000
  Fe  Fe601     1.0  0.88526  0.20898  0.52609  1.0000
  S   S1206     1.0  0.90328  0.20521  0.52384  1.0000
  S   S1207     1.0  0.87652  0.19619  0.52665  1.0000
  Fe  Fe602     1.0  0.88335  0.23359  0.52333  1.0000
  S   S1208     1.0  0.90123  0.23180  0.52080  1.0000
  S   S1209     1.0  0.87136  0.24980  0.52199  1.0000
  Fe  Fe603     1.0  0.90266  0.22022  0.51025  1.0000
  S   S1210     1.0  0.91361  0.21907  0.49372  1.0000
  Fe  Fe604     1.0  0.90000  0.21700  0.53468  1.0000
  S   S1211     1.0  0.90765  0.21277  0.54914  1.0000
  S   S1212     1.0  0.88485  0.22317  0.51171  1.0000
  S   S1213     1.0  0.88190  0.21965  0.53809  1.0000
  Fe  Fe605     1.0  0.89316  0.32030  0.52062  1.0000
  S   S1214     1.0  0.91097  0.31409  0.51468  1.0000
  S   S1215     1.0  0.88538  0.33811  0.51577  1.0000
  Fe  Fe606     1.0  0.88890  0.29739  0.53067  1.0000
  S   S1216     1.0  0.90624  0.28927  0.52543  1.0000
  S   S1217     1.0  0.87565  0.28838  0.53982  1.0000
  Fe  Fe607     1.0  0.90962  0.30244  0.53118  1.0000
  S   S1218     1.0  0.92221  0.29703  0.54123  1.0000
  Fe  Fe608     1.0  0.90580  0.30165  0.50955  1.0000
  S   S1219     1.0  0.91353  0.29668  0.49343  1.0000
  S   S1220     1.0  0.89222  0.30975  0.53766  1.0000
  S   S1221     1.0  0.88808  0.30865  0.51429  1.0000
  H   H5282     1.0  0.87400  0.08405  0.49193  1.0000
  H   H5283     1.0  0.87688  0.24641  0.55932  1.0000
  Fe  Fe609     1.0  0.89816  0.45826  0.56835  1.0000
  S   S1222     1.0  0.90493  0.47337  0.56356  1.0000
  S   S1223     1.0  0.89561  0.45527  0.55301  1.0000
  Fe  Fe610     1.0  0.89894  0.45490  0.59245  1.0000
  S   S1224     1.0  0.90565  0.46969  0.58943  1.0000
  S   S1225     1.0  0.89608  0.44381  0.60930  1.0000
  Fe  Fe611     1.0  0.89364  0.47785  0.57880  1.0000
  H   H5284     1.0  0.90959  0.40907  0.48924  1.0000
  Fe  Fe612     1.0  0.91629  0.46385  0.57443  1.0000
  S   S1226     1.0  0.93411  0.46285  0.56853  1.0000
  S   S1227     1.0  0.88587  0.46346  0.58296  1.0000
  S   S1228     1.0  0.91053  0.44831  0.57818  1.0000
  Fe  Fe613     1.0  0.97107  0.45170  0.60175  1.0000
  S   S1229     1.0  0.95378  0.45165  0.61006  1.0000
  H   H5285     1.0  0.95677  0.48392  0.66142  1.0000
  H   H5286     1.0  0.97713  0.39797  0.49529  1.0000
  S   S1230     1.0  0.92560  0.46264  0.65857  1.0000
  C   C4432     1.0  0.93463  0.19864  0.52501  1.0000
  H   H5287     1.0  0.86583  0.28058  0.49436  1.0000
  H   H5288     1.0  0.95907  0.10830  0.55236  1.0000
  H   H5289     1.0  0.82393  0.02526  0.53899  1.0000
  C   C4433     1.0  0.97966  0.27405  0.52257  1.0000
  Fe  Fe614     1.0  0.90908  0.46432  0.65575  1.0000
  S   S1231     1.0  0.90467  0.45006  0.65266  1.0000
  C   C4434     1.0  0.93244  0.43625  0.64713  1.0000
  C   C4435     1.0  0.98355  0.18381  0.51502  1.0000
  C   C4436     1.0  0.96046  0.14713  0.49031  1.0000
  S   S1232     1.0  0.85393  0.09179  0.50651  1.0000
  C   C4437     1.0  0.95902  0.13782  0.48800  1.0000
  H   H5290     1.0  0.79739  0.06524  0.50912  1.0000
  C   C4438     1.0  0.95674  0.47729  0.55522  1.0000
  S   S1233     1.0  0.81866  0.01427  0.50780  1.0000
  S   S1234     1.0  0.97556  0.28410  0.53045  1.0000
  C   C4439     1.0  0.86422  0.28965  0.49312  1.0000
  C   C4440     1.0  0.88503  0.13206  0.48754  1.0000
  C   C4441     1.0  0.82190  0.02002  0.52545  1.0000
  C   C4442     1.0  0.82163  0.02294  0.51430  1.0000
  C   C4443     1.0  0.82327  0.03330  0.50812  1.0000
  C   C4444     1.0  0.82508  0.04077  0.51302  1.0000
  H   H5291     1.0  0.82066  0.01204  0.53027  1.0000
  H   H5292     1.0  0.82315  0.03555  0.49949  1.0000
  H   H5293     1.0  0.82637  0.04872  0.50815  1.0000
  Fe  Fe615     1.0  0.83926  0.08400  0.51252  1.0000
  H   H5294     1.0  0.88281  0.35920  0.55905  1.0000
  S   S1235     1.0  0.97126  0.46963  0.70512  1.0000
  C   C4445     1.0  0.97594  0.23726  0.54861  1.0000
  H   H5295     1.0  0.96709  0.19615  0.55169  1.0000
  H   H5296     1.0  0.90819  0.34593  0.50423  1.0000
  H   H5297     1.0  0.97594  0.11424  0.54710  1.0000
  C   C4446     1.0  0.92415  0.37159  0.49567  1.0000
  H   H5298     1.0  0.97742  0.11446  0.53292  1.0000
  H   H5299     1.0  0.95794  0.09672  0.54822  1.0000
  C   C4447     1.0  0.93294  0.44366  0.73079  1.0000
  N   N295      1.0  0.97513  0.46513  0.55034  1.0000
  C   C4448     1.0  0.93948  0.45964  0.58015  1.0000
  C   C4449     1.0  0.94917  0.45187  0.58071  1.0000
  C   C4450     1.0  0.95334  0.44908  0.59015  1.0000
  C   C4451     1.0  0.94772  0.45390  0.59908  1.0000
  C   C4452     1.0  0.93775  0.46122  0.59875  1.0000
  C   C4453     1.0  0.93378  0.46432  0.58915  1.0000
  H   H5300     1.0  0.95334  0.44786  0.57397  1.0000
  H   H5301     1.0  0.96092  0.44317  0.59053  1.0000
  H   H5302     1.0  0.93321  0.46469  0.60575  1.0000
  H   H5303     1.0  0.92642  0.47048  0.58867  1.0000
  C   C4454     1.0  0.89840  0.44644  0.62099  1.0000
  C   C4455     1.0  0.89629  0.43892  0.63096  1.0000
  C   C4456     1.0  0.89826  0.44026  0.64048  1.0000
  C   C4457     1.0  0.90227  0.44921  0.64026  1.0000
  C   C4458     1.0  0.90448  0.45681  0.63028  1.0000
  C   C4459     1.0  0.90260  0.45538  0.62062  1.0000
  H   H5304     1.0  0.89308  0.43199  0.63135  1.0000
  H   H5305     1.0  0.89655  0.43435  0.64813  1.0000
  H   H5306     1.0  0.90765  0.46372  0.63000  1.0000
  H   H5307     1.0  0.90439  0.46119  0.61295  1.0000
  H   H5308     1.0  0.95482  0.46754  0.69506  1.0000
  H   H5309     1.0  0.96371  0.09494  0.52999  1.0000
  C   C4460     1.0  0.93297  0.33750  0.48784  1.0000
  C   C4461     1.0  0.86890  0.48074  0.56523  1.0000
  H   H5310     1.0  0.98049  0.46008  0.53488  1.0000
  H   H5311     1.0  0.96507  0.20987  0.54357  1.0000
  C   C4462     1.0  0.89461  0.46501  0.71201  1.0000
  H   H5312     1.0  0.95324  0.26946  0.52253  1.0000
  H   H5313     1.0  0.89398  0.31342  0.49177  1.0000
  H   H5314     1.0  0.97373  0.08485  0.55680  1.0000
  C   C4463     1.0  0.89566  0.24264  0.54502  1.0000
  H   H5315     1.0  0.95300  0.47215  0.55287  1.0000
  C   C4464     1.0  0.97687  0.42833  0.57054  1.0000
  H   H5316     1.0  0.89055  0.23174  0.56606  1.0000
  H   H5317     1.0  0.97098  0.40953  0.59224  1.0000
  C   C4465     1.0  0.88086  0.14547  0.54582  1.0000
  H   H5318     1.0  0.96680  0.46768  0.53741  1.0000
  C   C4466     1.0  0.97913  0.10911  0.54085  1.0000
  H   H5319     1.0  0.86017  0.48056  0.56820  1.0000
  H   H5320     1.0  0.87081  0.12535  0.49175  1.0000
  C   C4467     1.0  0.98364  0.17274  0.52006  1.0000
  H   H5321     1.0  0.81313  0.12570  0.50573  1.0000
  C   C4468     1.0  0.87329  0.25979  0.52748  1.0000
  C   C4469     1.0  0.86454  0.26487  0.53466  1.0000
  C   C4470     1.0  0.86548  0.27351  0.53851  1.0000
  C   C4471     1.0  0.87506  0.27732  0.53499  1.0000
  C   C4472     1.0  0.88389  0.27222  0.52784  1.0000
  C   C4473     1.0  0.88299  0.26343  0.52408  1.0000
  H   H5322     1.0  0.85699  0.26216  0.53721  1.0000
  H   H5323     1.0  0.85866  0.27739  0.54409  1.0000
  H   H5324     1.0  0.89135  0.27510  0.52515  1.0000
  H   H5325     1.0  0.88973  0.25964  0.51840  1.0000
  C   C4474     1.0  0.94035  0.32362  0.53688  1.0000
  C   C4475     1.0  0.92938  0.32664  0.53651  1.0000
  C   C4476     1.0  0.92364  0.31851  0.53797  1.0000
  C   C4477     1.0  0.92877  0.30739  0.54030  1.0000
  C   C4478     1.0  0.93950  0.30443  0.54140  1.0000
  C   C4479     1.0  0.94531  0.31252  0.53957  1.0000
  H   H5326     1.0  0.92550  0.33522  0.53456  1.0000
  H   H5327     1.0  0.91530  0.32082  0.53724  1.0000
  H   H5328     1.0  0.94350  0.29586  0.54325  1.0000
  H   H5329     1.0  0.95374  0.31010  0.54000  1.0000
  C   C4480     1.0  0.93679  0.22732  0.54379  1.0000
  C   C4481     1.0  0.93204  0.22218  0.55433  1.0000
  C   C4482     1.0  0.92334  0.21735  0.55583  1.0000
  C   C4483     1.0  0.91916  0.21795  0.54685  1.0000
  C   C4484     1.0  0.92385  0.22318  0.53632  1.0000
  C   C4485     1.0  0.93271  0.22781  0.53478  1.0000
  H   H5330     1.0  0.93508  0.22190  0.56133  1.0000
  H   H5331     1.0  0.91968  0.21335  0.56399  1.0000
  H   H5332     1.0  0.92062  0.22373  0.52938  1.0000
  H   H5333     1.0  0.93623  0.23199  0.52665  1.0000
  Fe  Fe616     1.0  0.97576  0.39981  0.54153  1.0000
  Fe  Fe617     1.0  0.92437  0.47960  0.64799  1.0000
  C   C4486     1.0  0.95205  0.44944  0.69172  1.0000
  S   S1236     1.0  0.79742  0.99638  0.52028  1.0000
  H   H5334     1.0  0.93928  0.47659  0.61129  1.0000
  C   C4487     1.0  0.92801  0.25614  0.48844  1.0000
  H   H5335     1.0  0.97721  0.30018  0.49517  1.0000
  C   C4488     1.0  0.79381  0.06020  0.50652  1.0000
  H   H5336     1.0  0.98617  0.19528  0.55939  1.0000
  H   H5337     1.0  0.87913  0.27926  0.50462  1.0000
  S   S1237     1.0  0.98019  0.46110  0.60649  1.0000
  H   H5338     1.0  0.96240  0.26813  0.50499  1.0000
  C   C4489     1.0  0.95627  0.33832  0.55451  1.0000
  H   H5339     1.0  0.87144  0.48296  0.57166  1.0000
  Fe  Fe618     1.0  0.97861  0.48462  0.66336  1.0000
  H   H5340     1.0  0.96750  0.46371  0.63242  1.0000
  C   C4490     1.0  0.86274  0.14404  0.53076  1.0000
  H   H5341     1.0  0.81905  0.06437  0.49276  1.0000
  C   C4491     1.0  0.95040  0.43448  0.64961  1.0000
  H   H5342     1.0  0.92071  0.35720  0.52210  1.0000
  S   S1238     1.0  0.97921  0.22299  0.49957  1.0000
  H   H5343     1.0  0.94202  0.45860  0.63205  1.0000
  C   C4492     1.0  0.95748  0.26843  0.49068  1.0000
  H   H5344     1.0  0.87796  0.12790  0.54162  1.0000
  N   N296      1.0  0.87023  0.14286  0.54725  1.0000
  C   C4493     1.0  0.86974  0.10776  0.52352  1.0000
  C   C4494     1.0  0.87335  0.10784  0.51230  1.0000
  C   C4495     1.0  0.86826  0.10307  0.50724  1.0000
  C   C4496     1.0  0.85959  0.09806  0.51334  1.0000
  C   C4497     1.0  0.85591  0.09805  0.52454  1.0000
  C   C4498     1.0  0.86096  0.10291  0.52959  1.0000
  H   H5345     1.0  0.88004  0.11161  0.50751  1.0000
  H   H5346     1.0  0.87099  0.10329  0.49854  1.0000
  H   H5347     1.0  0.89364  0.18957  0.49911  1.0000
  H   H5348     1.0  0.94064  0.42243  0.65753  1.0000
  H   H5349     1.0  0.97512  0.24913  0.52379  1.0000
  C   C4499     1.0  0.86354  0.30940  0.51019  1.0000
  H   H5350     1.0  0.94515  0.14931  0.52979  1.0000
  C   C4500     1.0  0.86651  0.47235  0.53649  1.0000
  S   S1239     1.0  0.97462  0.45963  0.58386  1.0000
  C   C4501     1.0  0.86157  0.37431  0.54144  1.0000
  H   H5351     1.0  0.95699  0.42955  0.65345  1.0000
  C   C4502     1.0  0.93523  0.37120  0.49347  1.0000
  C   C4503     1.0  0.89853  0.16213  0.52799  1.0000
  C   C4504     1.0  0.90044  0.16958  0.53278  1.0000
  C   C4505     1.0  0.89377  0.18010  0.53229  1.0000
  C   C4506     1.0  0.88512  0.18318  0.52706  1.0000
  C   C4507     1.0  0.88321  0.17572  0.52226  1.0000
  C   C4508     1.0  0.88993  0.16521  0.52267  1.0000
  H   H5352     1.0  0.90694  0.16715  0.53709  1.0000
  H   H5353     1.0  0.89508  0.18571  0.53630  1.0000
  H   H5354     1.0  0.87661  0.17815  0.51809  1.0000
  H   H5355     1.0  0.88840  0.15952  0.51895  1.0000
  H   H5356     1.0  0.97099  0.15704  0.50002  1.0000
  C   C4509     1.0  0.91942  0.18021  0.49213  1.0000
  C   C4510     1.0  0.97212  0.48201  0.55804  1.0000
  S   S1240     1.0  0.79825  0.09869  0.52243  1.0000
  C   C4511     1.0  0.92618  0.48569  0.71860  1.0000
  Fe  Fe619     1.0  0.81488  0.99752  0.51566  1.0000
  H   H5357     1.0  0.91959  0.37588  0.48938  1.0000
  H   H5358     1.0  0.92472  0.11299  0.48996  1.0000
  H   H5359     1.0  0.93429  0.29312  0.49703  1.0000
  H   H5360     1.0  0.96492  0.48395  0.60136  1.0000
  C   C4512     1.0  0.95374  0.12367  0.51916  1.0000
  C   C4513     1.0  0.95827  0.11466  0.51422  1.0000
  C   C4514     1.0  0.95154  0.10856  0.51307  1.0000
  C   C4515     1.0  0.94029  0.11164  0.51659  1.0000
  C   C4516     1.0  0.93582  0.12060  0.52160  1.0000
  C   C4517     1.0  0.94253  0.12657  0.52291  1.0000
  H   H5361     1.0  0.96693  0.11234  0.51138  1.0000
  H   H5362     1.0  0.95501  0.10155  0.50932  1.0000
  H   H5363     1.0  0.92717  0.12286  0.52463  1.0000
  H   H5364     1.0  0.93897  0.13345  0.52685  1.0000
  C   C4518     1.0  0.94185  0.18122  0.51961  1.0000
  H   H5365     1.0  0.85579  0.47763  0.52535  1.0000
  H   H5366     1.0  0.96562  0.21142  0.49597  1.0000
  S   S1241     1.0  0.97102  0.47091  0.67457  1.0000
  Fe  Fe620     1.0  0.97904  0.47249  0.68703  1.0000
  C   C4519     1.0  0.90724  0.09840  0.48918  1.0000
  C   C4520     1.0  0.90124  0.25431  0.55299  1.0000
  C   C4521     1.0  0.95070  0.19695  0.51071  1.0000
  C   C4522     1.0  0.87694  0.28832  0.50368  1.0000
  C   C4523     1.0  0.96009  0.46058  0.63367  1.0000
  C   C4524     1.0  0.88581  0.42541  0.54976  1.0000
  C   C4525     1.0  0.88505  0.42697  0.56024  1.0000
  C   C4526     1.0  0.88821  0.43599  0.56141  1.0000
  C   C4527     1.0  0.89191  0.44360  0.55209  1.0000
  C   C4528     1.0  0.89265  0.44204  0.54162  1.0000
  C   C4529     1.0  0.88975  0.43290  0.54044  1.0000
  H   H5367     1.0  0.88201  0.42120  0.56748  1.0000
  H   H5368     1.0  0.88760  0.43714  0.56951  1.0000
  H   H5369     1.0  0.89550  0.44792  0.53437  1.0000
  H   H5370     1.0  0.89032  0.43178  0.53234  1.0000
  H   H5371     1.0  0.95517  0.35296  0.53541  1.0000
  H   H5372     1.0  0.95403  0.36578  0.51519  1.0000
  H   H5373     1.0  0.96477  0.28244  0.50993  1.0000
  H   H5374     1.0  0.89413  0.23502  0.49032  1.0000
  S   S1242     1.0  0.90850  0.48077  0.64420  1.0000
  H   H5375     1.0  0.90389  0.23751  0.54300  1.0000
  C   C4530     1.0  0.93303  0.44635  0.63990  1.0000
  Fe  Fe621     1.0  0.98348  0.40077  0.51689  1.0000
  H   H5376     1.0  0.93804  0.32860  0.51379  1.0000
  H   H5377     1.0  0.92121  0.43481  0.71578  1.0000
  C   C4531     1.0  0.89676  0.36034  0.52964  1.0000
  C   C4532     1.0  0.89020  0.36488  0.52200  1.0000
  C   C4533     1.0  0.88660  0.35800  0.51786  1.0000
  C   C4534     1.0  0.88958  0.34659  0.52135  1.0000
  C   C4535     1.0  0.89612  0.34205  0.52901  1.0000
  C   C4536     1.0  0.89971  0.34893  0.53316  1.0000
  H   H5378     1.0  0.88784  0.37369  0.51931  1.0000
  H   H5379     1.0  0.88154  0.36153  0.51192  1.0000
  H   H5380     1.0  0.89843  0.33324  0.53171  1.0000
  H   H5381     1.0  0.90479  0.34540  0.53908  1.0000
  H   H5382     1.0  0.86519  0.16528  0.53988  1.0000
  C   C4537     1.0  0.94647  0.38725  0.52143  1.0000
  C   C4538     1.0  0.93704  0.38437  0.52143  1.0000
  C   C4539     1.0  0.92989  0.39156  0.51511  1.0000
  C   C4540     1.0  0.93201  0.40174  0.50903  1.0000
  C   C4541     1.0  0.94177  0.40434  0.50847  1.0000
  C   C4542     1.0  0.94907  0.39702  0.51461  1.0000
  H   H5383     1.0  0.93509  0.37673  0.52655  1.0000
  H   H5384     1.0  0.92260  0.38929  0.51517  1.0000
  H   H5385     1.0  0.94350  0.41215  0.50364  1.0000
  H   H5386     1.0  0.95653  0.39910  0.51430  1.0000
  C   C4543     1.0  0.78923  0.05678  0.49123  1.0000
  C   C4544     1.0  0.97391  0.34260  0.55118  1.0000
  H   H5387     1.0  0.87878  0.15479  0.48878  1.0000
  C   C4545     1.0  0.91605  0.46497  0.71079  1.0000
  C   C4546     1.0  0.96224  0.10356  0.54576  1.0000
  H   H5388     1.0  0.96217  0.44954  0.71293  1.0000
  Fe  Fe622     1.0  0.97702  0.30148  0.52204  1.0000
  C   C4547     1.0  0.91277  0.46603  0.70111  1.0000
  N   N297      1.0  0.95102  0.45167  0.70262  1.0000
  C   C4548     1.0  0.91982  0.25709  0.54852  1.0000
  C   C4549     1.0  0.92001  0.17345  0.50246  1.0000
  H   H5389     1.0  0.87802  0.34947  0.54820  1.0000
  C   C4550     1.0  0.79586  0.05441  0.52881  1.0000
  C   C4551     1.0  0.85819  0.15025  0.52183  1.0000
  H   H5390     1.0  0.88487  0.47421  0.63557  1.0000
  H   H5391     1.0  0.86613  0.14107  0.56487  1.0000
  H   H5392     1.0  0.92692  0.16125  0.52976  1.0000
  H   H5393     1.0  0.95908  0.46104  0.62535  1.0000
  H   H5394     1.0  0.95956  0.17709  0.51778  1.0000
  H   H5395     1.0  0.98025  0.20213  0.57064  1.0000
  C   C4552     1.0  0.95114  0.44490  0.64254  1.0000
  C   C4553     1.0  0.97666  0.09259  0.55456  1.0000
  C   C4554     1.0  0.93275  0.17627  0.52342  1.0000
  N   N298      1.0  0.92587  0.41734  0.53986  1.0000
  C   C4555     1.0  0.93410  0.40713  0.53826  1.0000
  C   C4556     1.0  0.91607  0.41407  0.54761  1.0000
  C   C4557     1.0  0.92314  0.42308  0.52905  1.0000
  C   C4558     1.0  0.92953  0.42474  0.54420  1.0000
  C   C4559     1.0  0.92260  0.43490  0.54602  1.0000
  C   C4560     1.0  0.93980  0.42211  0.54696  1.0000
  C   C4561     1.0  0.92567  0.44191  0.55042  1.0000
  C   C4562     1.0  0.94279  0.42921  0.55136  1.0000
  C   C4563     1.0  0.93573  0.43906  0.55313  1.0000
  H   H5396     1.0  0.93629  0.40211  0.54611  1.0000
  H   H5397     1.0  0.93110  0.40178  0.53496  1.0000
  H   H5398     1.0  0.94160  0.40897  0.53224  1.0000
  H   H5399     1.0  0.91772  0.40987  0.55589  1.0000
  H   H5400     1.0  0.91307  0.40845  0.54468  1.0000
  H   H5401     1.0  0.90922  0.42122  0.54872  1.0000
  H   H5402     1.0  0.93016  0.42611  0.52311  1.0000
  H   H5403     1.0  0.92083  0.41757  0.52530  1.0000
  H   H5404     1.0  0.91617  0.43020  0.52967  1.0000
  H   H5405     1.0  0.91469  0.43750  0.54412  1.0000
  H   H5406     1.0  0.94572  0.41462  0.54585  1.0000
  H   H5407     1.0  0.92017  0.44959  0.55180  1.0000
  H   H5408     1.0  0.95065  0.42703  0.55343  1.0000
  H   H5409     1.0  0.93805  0.44449  0.55662  1.0000
  C   C4564     1.0  0.93788  0.48535  0.60687  1.0000
  H   H5410     1.0  0.95626  0.35523  0.56259  1.0000
  C   C4565     1.0  0.89425  0.25435  0.49601  1.0000
  S   S1243     1.0  0.82673  0.07866  0.52770  1.0000
  H   H5411     1.0  0.85709  0.17582  0.52439  1.0000
  H   H5412     1.0  0.90177  0.28091  0.55182  1.0000
  H   H5413     1.0  0.85625  0.14612  0.51668  1.0000
  H   H5414     1.0  0.95786  0.14776  0.49882  1.0000
  H   H5415     1.0  0.96124  0.15741  0.52397  1.0000
  C   C4566     1.0  0.90418  0.29961  0.48521  1.0000
  C   C4567     1.0  0.94422  0.15813  0.52700  1.0000
  H   H5416     1.0  0.92645  0.19686  0.52879  1.0000
  H   H5417     1.0  0.94821  0.47791  0.72696  1.0000
  H   H5418     1.0  0.86566  0.30413  0.51770  1.0000
  H   H5419     1.0  0.88422  0.47256  0.61726  1.0000
  H   H5420     1.0  0.91852  0.33709  0.51868  1.0000
  H   H5421     1.0  0.95549  0.13173  0.49459  1.0000
  H   H5422     1.0  0.88023  0.25545  0.56541  1.0000
  H   H5423     1.0  0.89245  0.16124  0.48942  1.0000
  N   N299      1.0  0.97159  0.20784  0.55761  1.0000
  H   H5424     1.0  0.93306  0.20624  0.50356  1.0000
  H   H5425     1.0  0.89932  0.46689  0.69438  1.0000
  C   C4568     1.0  0.92181  0.34244  0.49096  1.0000
  C   C4569     1.0  0.94114  0.43028  0.65191  1.0000
  H   H5426     1.0  0.95740  0.35022  0.49397  1.0000
  C   C4570     1.0  0.86296  0.14591  0.55744  1.0000
  Fe  Fe623     1.0  0.81427  0.08732  0.51749  1.0000
  H   H5427     1.0  0.87987  0.25906  0.55103  1.0000
  H   H5428     1.0  0.88267  0.29183  0.49632  1.0000
  H   H5429     1.0  0.92514  0.43314  0.64913  1.0000
  H   H5430     1.0  0.97844  0.20142  0.54286  1.0000
  H   H5431     1.0  0.85252  0.16645  0.51268  1.0000
  H   H5432     1.0  0.91605  0.24190  0.54977  1.0000
  H   H5433     1.0  0.88991  0.23741  0.54596  1.0000
  H   H5434     1.0  0.95235  0.47620  0.59094  1.0000
  H   H5435     1.0  0.89515  0.24025  0.57185  1.0000
  N   N300      1.0  0.97417  0.09944  0.54396  1.0000
  H   H5436     1.0  0.97781  0.28356  0.48896  1.0000
  C   C4571     1.0  0.90198  0.46613  0.70174  1.0000
  H   H5437     1.0  0.89012  0.09989  0.49136  1.0000
  C   C4572     1.0  0.97869  0.09300  0.53530  1.0000
  C   C4573     1.0  0.86163  0.32072  0.50922  1.0000
  C   C4574     1.0  0.97838  0.19898  0.56441  1.0000
  H   H5438     1.0  0.93982  0.35626  0.51865  1.0000
  C   C4575     1.0  0.95679  0.48272  0.60630  1.0000
  C   C4576     1.0  0.93351  0.33243  0.50739  1.0000
  C   C4577     1.0  0.97548  0.26454  0.52668  1.0000
  H   H5439     1.0  0.85583  0.29292  0.49180  1.0000
  H   H5440     1.0  0.98053  0.48065  0.55824  1.0000
  H   H5441     1.0  0.80443  0.05292  0.52414  1.0000
  H   H5442     1.0  0.95761  0.35227  0.51227  1.0000
  H   H5443     1.0  0.79293  0.08244  0.51419  1.0000
  H   H5444     1.0  0.96838  0.44988  0.69891  1.0000
  C   C4578     1.0  0.79356  0.06289  0.49542  1.0000
  H   H5445     1.0  0.96769  0.35813  0.48863  1.0000
  C   C4579     1.0  0.97671  0.21744  0.55289  1.0000
  C   C4580     1.0  0.86326  0.16079  0.53509  1.0000
  S   S1244     1.0  0.93707  0.48595  0.63403  1.0000
  C   C4581     1.0  0.97525  0.46658  0.72536  1.0000
  C   C4582     1.0  0.93819  0.29479  0.51441  1.0000
  H   H5446     1.0  0.86481  0.35898  0.53657  1.0000
  N   N301      1.0  0.93055  0.42905  0.61054  1.0000
  C   C4583     1.0  0.92345  0.42106  0.61555  1.0000
  C   C4584     1.0  0.92999  0.43478  0.61917  1.0000
  C   C4585     1.0  0.92613  0.43731  0.60151  1.0000
  C   C4586     1.0  0.94167  0.42340  0.60598  1.0000
  C   C4587     1.0  0.95098  0.42423  0.60890  1.0000
  C   C4588     1.0  0.94348  0.41727  0.59791  1.0000
  C   C4589     1.0  0.96140  0.41923  0.60400  1.0000
  C   C4590     1.0  0.95392  0.41220  0.59316  1.0000
  C   C4591     1.0  0.96287  0.41323  0.59616  1.0000
  H   H5447     1.0  0.92665  0.41452  0.62219  1.0000
  H   H5448     1.0  0.91507  0.42513  0.61915  1.0000
  H   H5449     1.0  0.92257  0.41703  0.60947  1.0000
  H   H5450     1.0  0.92152  0.43860  0.62271  1.0000
  H   H5451     1.0  0.93441  0.44156  0.61583  1.0000
  H   H5452     1.0  0.93335  0.42902  0.62614  1.0000
  H   H5453     1.0  0.92437  0.43350  0.59573  1.0000
  H   H5454     1.0  0.91846  0.44285  0.60462  1.0000
  H   H5455     1.0  0.93193  0.44253  0.59661  1.0000
  H   H5456     1.0  0.95050  0.42894  0.61474  1.0000
  H   H5457     1.0  0.93683  0.41657  0.59502  1.0000
  H   H5458     1.0  0.96841  0.42019  0.60615  1.0000
  H   H5459     1.0  0.95514  0.40767  0.58689  1.0000
  C   C4592     1.0  0.81451  0.12234  0.49858  1.0000
  H   H5460     1.0  0.85772  0.33674  0.49895  1.0000
  H   H5461     1.0  0.96784  0.17165  0.49728  1.0000
  H   H5462     1.0  0.91033  0.36699  0.50774  1.0000
  H   H5463     1.0  0.93815  0.29779  0.52163  1.0000
  N   N302      1.0  0.94035  0.19327  0.51566  1.0000
  H   H5464     1.0  0.85952  0.39252  0.56375  1.0000
  Fe  Fe624     1.0  0.97507  0.21192  0.51622  1.0000
  C   C4593     1.0  0.95689  0.35677  0.55359  1.0000
  C   C4594     1.0  0.93513  0.44214  0.70922  1.0000
  H   H5465     1.0  0.92849  0.25379  0.54658  1.0000
  S   S1245     1.0  0.96907  0.40912  0.55534  1.0000
  C   C4595     1.0  0.89536  0.22889  0.48570  1.0000
  C   C4596     1.0  0.82373  0.02752  0.53037  1.0000
  C   C4597     1.0  0.89385  0.17471  0.49470  1.0000
  S   S1246     1.0  0.98318  0.38333  0.51842  1.0000
  H   H5466     1.0  0.89066  0.34946  0.49223  1.0000
  C   C4598     1.0  0.90872  0.46392  0.72100  1.0000
  C   C4599     1.0  0.78958  0.05126  0.51386  1.0000
  N   N303      1.0  0.78937  0.04847  0.52577  1.0000
  H   H5467     1.0  0.97706  0.32777  0.54507  1.0000
  H   H5468     1.0  0.86235  0.32387  0.51583  1.0000
  S   S1247     1.0  0.82715  0.04735  0.53059  1.0000
  C   C4600     1.0  0.87397  0.35795  0.54827  1.0000
  C   C4601     1.0  0.87662  0.36361  0.55449  1.0000
  C   C4602     1.0  0.86653  0.36331  0.54169  1.0000
  H   H5469     1.0  0.79614  0.05171  0.53767  1.0000
  H   H5470     1.0  0.90438  0.23234  0.56240  1.0000
  H   H5471     1.0  0.96088  0.36380  0.54939  1.0000
  Fe  Fe625     1.0  0.97518  0.31937  0.50151  1.0000
  H   H5472     1.0  0.91718  0.17691  0.50971  1.0000
  H   H5473     1.0  0.85595  0.37851  0.53612  1.0000
  H   H5474     1.0  0.90681  0.09423  0.49769  1.0000
  H   H5475     1.0  0.97431  0.19204  0.56883  1.0000
  C   C4603     1.0  0.86400  0.38000  0.54780  1.0000
  C   C4604     1.0  0.85905  0.32798  0.49971  1.0000
  H   H5476     1.0  0.93873  0.30193  0.50732  1.0000
  C   C4605     1.0  0.92697  0.43817  0.71766  1.0000
  C   C4606     1.0  0.92403  0.16220  0.50349  1.0000
  H   H5477     1.0  0.96081  0.21398  0.57151  1.0000
  C   C4607     1.0  0.87167  0.37480  0.55451  1.0000
  H   H5478     1.0  0.87786  0.36633  0.57426  1.0000
  H   H5479     1.0  0.89161  0.37250  0.55827  1.0000
  H   H5480     1.0  0.90223  0.33094  0.49210  1.0000
  H   H5481     1.0  0.95377  0.44048  0.69213  1.0000
  H   H5482     1.0  0.97066  0.46028  0.72777  1.0000
  H   H5483     1.0  0.88586  0.13010  0.49594  1.0000
  C   C4608     1.0  0.97052  0.20363  0.54858  1.0000
  H   H5484     1.0  0.85994  0.38853  0.54708  1.0000
  C   C4609     1.0  0.94997  0.48663  0.55871  1.0000
  C   C4610     1.0  0.92479  0.36111  0.51408  1.0000
  C   C4611     1.0  0.95880  0.35872  0.49078  1.0000
  H   H5485     1.0  0.86954  0.46419  0.53481  1.0000
  H   H5486     1.0  0.85810  0.10281  0.53827  1.0000
  C   C4612     1.0  0.85832  0.28787  0.51260  1.0000
  H   H5487     1.0  0.90005  0.16974  0.49912  1.0000
  H   H5488     1.0  0.92555  0.26513  0.48811  1.0000
  N   N304      1.0  0.87460  0.38057  0.56124  1.0000
  C   C4613     1.0  0.87258  0.37468  0.57294  1.0000
  C   C4614     1.0  0.88626  0.38083  0.55743  1.0000
  H   H5489     1.0  0.86403  0.37379  0.57594  1.0000
  H   H5490     1.0  0.86607  0.16388  0.49258  1.0000
  C   C4615     1.0  0.98351  0.48020  0.71122  1.0000
  H   H5491     1.0  0.92542  0.23647  0.49022  1.0000
  H   H5492     1.0  0.84966  0.29145  0.51234  1.0000
  C   C4616     1.0  0.89750  0.26561  0.55335  1.0000
  C   C4617     1.0  0.87699  0.40866  0.48666  1.0000
  Fe  Fe626     1.0  0.91675  0.47091  0.67266  1.0000
  C   C4618     1.0  0.85612  0.16167  0.51956  1.0000
  H   H5493     1.0  0.97234  0.43367  0.63954  1.0000
  C   C4619     1.0  0.79379  0.03655  0.52936  1.0000
  C   C4620     1.0  0.97636  0.41676  0.55880  1.0000
  H   H5494     1.0  0.80180  0.03402  0.52395  1.0000
  C   C4621     1.0  0.87040  0.47524  0.54400  1.0000
  H   H5495     1.0  0.90956  0.24515  0.49915  1.0000
  H   H5496     1.0  0.88818  0.38490  0.54859  1.0000
  H   H5497     1.0  0.94459  0.45351  0.68848  1.0000
  C   C4622     1.0  0.97115  0.45501  0.55637  1.0000
  C   C4623     1.0  0.91589  0.26806  0.54913  1.0000
  H   H5498     1.0  0.94924  0.20598  0.50734  1.0000
  H   H5499     1.0  0.95574  0.19524  0.51685  1.0000
  C   C4624     1.0  0.88222  0.25221  0.55784  1.0000
  C   C4625     1.0  0.94849  0.46373  0.70138  1.0000
  H   H5500     1.0  0.96300  0.42215  0.57148  1.0000
  H   H5501     1.0  0.97770  0.44542  0.63209  1.0000
  H   H5502     1.0  0.97289  0.43257  0.57715  1.0000
  H   H5503     1.0  0.87420  0.37910  0.57831  1.0000
  C   C4626     1.0  0.96572  0.16448  0.49595  1.0000
  H   H5504     1.0  0.88872  0.38546  0.56200  1.0000
  H   H5505     1.0  0.97506  0.35644  0.55711  1.0000
  H   H5506     1.0  0.96358  0.43788  0.70737  1.0000
  H   H5507     1.0  0.83063  0.12475  0.49266  1.0000
  H   H5508     1.0  0.91150  0.46284  0.72838  1.0000
  C   C4627     1.0  0.95048  0.48455  0.72867  1.0000
  C   C4628     1.0  0.97900  0.34854  0.55517  1.0000
  C   C4629     1.0  0.94141  0.36588  0.50157  1.0000
  H   H5509     1.0  0.89473  0.24947  0.53777  1.0000
  H   H5510     1.0  0.92145  0.27334  0.54767  1.0000
  H   H5511     1.0  0.96317  0.10840  0.49087  1.0000
  H   H5512     1.0  0.93025  0.29255  0.51600  1.0000
  H   H5513     1.0  0.94613  0.45163  0.72471  1.0000
  H   H5514     1.0  0.86986  0.39717  0.55223  1.0000
  C   C4630     1.0  0.97093  0.22836  0.55343  1.0000
  C   C4631     1.0  0.86837  0.39208  0.56073  1.0000
  H   H5515     1.0  0.85978  0.27882  0.51352  1.0000
  C   C4632     1.0  0.92587  0.43893  0.72841  1.0000
  H   H5516     1.0  0.95878  0.45266  0.68543  1.0000
  N   N305      1.0  0.95315  0.36560  0.49895  1.0000
  C   C4633     1.0  0.91893  0.36660  0.50599  1.0000
  H   H5517     1.0  0.79702  0.06960  0.48997  1.0000
  C   C4634     1.0  0.89798  0.46391  0.72167  1.0000
  H   H5518     1.0  0.78847  0.03140  0.52914  1.0000
  S   S1248     1.0  0.82652  0.09390  0.50325  1.0000
  H   H5519     1.0  0.96709  0.34237  0.53349  1.0000
  H   H5520     1.0  0.94068  0.46759  0.69878  1.0000
  N   N306      1.0  0.94736  0.28532  0.51263  1.0000
  C   C4635     1.0  0.97029  0.44209  0.63449  1.0000
  H   H5521     1.0  0.84924  0.09423  0.52931  1.0000
  C   C4636     1.0  0.97130  0.42237  0.56735  1.0000
  H   H5522     1.0  0.88726  0.47928  0.54988  1.0000
  H   H5523     1.0  0.87854  0.29004  0.51091  1.0000
  H   H5524     1.0  0.95714  0.16465  0.50029  1.0000
  C   C4637     1.0  0.95218  0.17410  0.52008  1.0000
  H   H5525     1.0  0.85957  0.28902  0.52027  1.0000
  H   H5526     1.0  0.93493  0.08869  0.49910  1.0000
  H   H5527     1.0  0.97105  0.45332  0.56527  1.0000
  C   C4638     1.0  0.95809  0.36100  0.50869  1.0000
  H   H5528     1.0  0.96979  0.45362  0.64970  1.0000
  H   H5529     1.0  0.96592  0.44094  0.65583  1.0000
  H   H5530     1.0  0.87563  0.12626  0.55608  1.0000
  H   H5531     1.0  0.87080  0.39624  0.56579  1.0000
  H   H5532     1.0  0.92619  0.45102  0.63630  1.0000
  S   S1249     1.0  0.97467  0.38211  0.54519  1.0000
  S   S1250     1.0  0.98510  0.13567  0.49563  1.0000
  C   C4639     1.0  0.96337  0.34963  0.53725  1.0000
  H   H5533     1.0  0.88636  0.14359  0.53803  1.0000
  Fe  Fe627     1.0  0.82829  0.07883  0.49754  1.0000
  C   C4640     1.0  0.93867  0.33251  0.49641  1.0000
  N   N307      1.0  0.96280  0.34681  0.54923  1.0000
  C   C4641     1.0  0.94251  0.44702  0.71138  1.0000
  H   H5534     1.0  0.93887  0.27306  0.52340  1.0000
  H   H5535     1.0  0.95742  0.47372  0.60822  1.0000
  H   H5536     1.0  0.86446  0.12807  0.55004  1.0000
  C   C4642     1.0  0.93379  0.19726  0.50713  1.0000
  C   C4643     1.0  0.85833  0.32395  0.49114  1.0000
  C   C4644     1.0  0.96171  0.44701  0.70561  1.0000
  H   H5537     1.0  0.93748  0.19298  0.50022  1.0000
  H   H5538     1.0  0.92521  0.25186  0.49707  1.0000
  Fe  Fe628     1.0  0.82809  0.06442  0.52027  1.0000
  H   H5539     1.0  0.95002  0.38259  0.49958  1.0000
  C   C4645     1.0  0.97231  0.09160  0.52881  1.0000
  H   H5540     1.0  0.97282  0.09697  0.56140  1.0000
  C   C4646     1.0  0.97502  0.46698  0.53858  1.0000
  C   C4647     1.0  0.91262  0.25031  0.55041  1.0000
  S   S1251     1.0  0.79248  0.98842  0.49591  1.0000
  C   C4648     1.0  0.86544  0.14914  0.53769  1.0000
  S   S1252     1.0  0.81501  0.07294  0.51101  1.0000
  C   C4649     1.0  0.96319  0.44931  0.65099  1.0000
  H   H5541     1.0  0.93926  0.19586  0.53163  1.0000
  H   H5542     1.0  0.87349  0.47222  0.56482  1.0000
  C   C4650     1.0  0.97506  0.30104  0.48749  1.0000
  C   C4651     1.0  0.97727  0.47226  0.71438  1.0000
  H   H5543     1.0  0.94484  0.27932  0.53023  1.0000
  H   H5544     1.0  0.98060  0.17042  0.52884  1.0000
  H   H5545     1.0  0.87861  0.48383  0.71916  1.0000
  C   C4652     1.0  0.88389  0.48050  0.61864  1.0000
  H   H5546     1.0  0.94771  0.34148  0.55363  1.0000
  H   H5547     1.0  0.88499  0.14060  0.55261  1.0000
  S   S1253     1.0  0.98185  0.48610  0.58112  1.0000
  H   H5548     1.0  0.95924  0.33106  0.55070  1.0000
  H   H5549     1.0  0.92533  0.19620  0.51040  1.0000
  H   H5550     1.0  0.94799  0.46611  0.70912  1.0000
  C   C4653     1.0  0.94603  0.27638  0.52260  1.0000
  H   H5551     1.0  0.93350  0.20772  0.52239  1.0000
  H   H5552     1.0  0.96823  0.35597  0.53297  1.0000
  C   C4654     1.0  0.88420  0.48147  0.62895  1.0000
  C   C4655     1.0  0.86306  0.30499  0.50155  1.0000
  H   H5553     1.0  0.97643  0.44771  0.55323  1.0000
  C   C4656     1.0  0.92255  0.33722  0.51017  1.0000
  H   H5554     1.0  0.95589  0.45359  0.65619  1.0000
  S   S1254     1.0  0.97518  0.33273  0.50921  1.0000
  H   H5555     1.0  0.86410  0.13525  0.53201  1.0000
  H   H5556     1.0  0.92128  0.09553  0.50292  1.0000
  H   H5557     1.0  0.95318  0.46632  0.63771  1.0000
  H   H5558     1.0  0.88022  0.15424  0.54552  1.0000
  H   H5559     1.0  0.94718  0.32860  0.49468  1.0000
  C   C4657     1.0  0.93587  0.36067  0.51196  1.0000
  C   C4658     1.0  0.87210  0.13078  0.54880  1.0000
  H   H5560     1.0  0.79245  0.06341  0.52737  1.0000
  C   C4659     1.0  0.90477  0.27230  0.55152  1.0000
  H   H5561     1.0  0.88980  0.25008  0.50360  1.0000
  C   C4660     1.0  0.86032  0.31263  0.49197  1.0000
  H   H5562     1.0  0.96863  0.44138  0.62680  1.0000
  H   H5563     1.0  0.80203  0.11011  0.48737  1.0000
  H   H5564     1.0  0.93891  0.37517  0.48537  1.0000
  C   C4661     1.0  0.94087  0.28621  0.49563  1.0000
  C   C4662     1.0  0.94220  0.45067  0.63761  1.0000
  C   C4663     1.0  0.93397  0.16488  0.52694  1.0000
  H   H5565     1.0  0.93522  0.44167  0.70104  1.0000
  C   C4664     1.0  0.95329  0.16273  0.52369  1.0000
  H   H5566     1.0  0.92433  0.46478  0.71049  1.0000
  H   H5567     1.0  0.96991  0.26351  0.53460  1.0000
  S   S1255     1.0  0.84158  0.06895  0.50604  1.0000
  N   N308      1.0  0.96097  0.44922  0.64042  1.0000
  H   H5568     1.0  0.88900  0.26954  0.55493  1.0000
  H   H5569     1.0  0.92460  0.18118  0.52386  1.0000
  H   H5570     1.0  0.79502  0.03432  0.53791  1.0000
  H   H5571     1.0  0.96290  0.45536  0.55557  1.0000
  N   N309      1.0  0.89386  0.24686  0.55501  1.0000
  H   H5572     1.0  0.85475  0.14444  0.55855  1.0000
  C   C4665     1.0  0.92721  0.15760  0.49425  1.0000
  C   C4666     1.0  0.95647  0.27224  0.50003  1.0000
  C   C4667     1.0  0.88863  0.26242  0.48880  1.0000
  H   H5573     1.0  0.94852  0.35966  0.55213  1.0000
  N   N310      1.0  0.86556  0.29295  0.50263  1.0000
  C   C4668     1.0  0.91672  0.34221  0.50199  1.0000
  H   H5574     1.0  0.95827  0.29613  0.50461  1.0000
  H   H5575     1.0  0.95745  0.29117  0.51917  1.0000
  C   C4669     1.0  0.82531  0.03792  0.52417  1.0000
  H   H5576     1.0  0.95625  0.33538  0.56342  1.0000
  C   C4670     1.0  0.89607  0.23743  0.56424  1.0000
  H   H5577     1.0  0.96682  0.36121  0.50661  1.0000
  H   H5578     1.0  0.95713  0.20302  0.56849  1.0000
  H   H5579     1.0  0.86197  0.15470  0.55739  1.0000
  H   H5580     1.0  0.87640  0.46909  0.54788  1.0000
  C   C4671     1.0  0.95107  0.48526  0.58967  1.0000
  S   S1256     1.0  0.97657  0.22380  0.52510  1.0000
  C   C4672     1.0  0.82450  0.12172  0.49107  1.0000
  H   H5581     1.0  0.89425  0.48631  0.72358  1.0000
  C   C4673     1.0  0.87230  0.16131  0.48546  1.0000
  H   H5582     1.0  0.92444  0.08315  0.49778  1.0000
  H   H5583     1.0  0.87987  0.26437  0.49083  1.0000
  H   H5584     1.0  0.97909  0.11358  0.49302  1.0000
  H   H5585     1.0  0.93198  0.48641  0.60181  1.0000
  C   C4674     1.0  0.88225  0.19222  0.48914  1.0000
  H   H5586     1.0  0.79883  0.11837  0.50324  1.0000
  H   H5587     1.0  0.91628  0.18898  0.49136  1.0000
  C   C4675     1.0  0.94800  0.48475  0.64946  1.0000
  N   N311      1.0  0.92748  0.09762  0.48538  1.0000
  C   C4676     1.0  0.92694  0.09093  0.49677  1.0000
  C   C4677     1.0  0.86664  0.48581  0.54646  1.0000
  H   H5588     1.0  0.93020  0.14882  0.49569  1.0000
  H   H5589     1.0  0.89058  0.39489  0.48789  1.0000
  H   H5590     1.0  0.96369  0.37715  0.49314  1.0000
  C   C4678     1.0  0.80827  0.11353  0.48824  1.0000
  H   H5591     1.0  0.95521  0.48522  0.61421  1.0000
  C   C4679     1.0  0.97915  0.46896  0.73324  1.0000
  C   C4680     1.0  0.88936  0.16990  0.48920  1.0000
  H   H5592     1.0  0.93858  0.10570  0.48783  1.0000
  S   S1257     1.0  0.95296  0.23280  0.48858  1.0000
  H   H5593     1.0  0.96409  0.26170  0.48860  1.0000
  C   C4681     1.0  0.98374  0.39962  0.48836  1.0000
  S   S1258     1.0  0.98451  0.43691  0.60019  1.0000
  C   C4682     1.0  0.96467  0.21200  0.48784  1.0000
  C   C4683     1.0  0.90476  0.22058  0.48527  1.0000
  H   H5594     1.0  0.97468  0.19595  0.48684  1.0000
  H   H5595     1.0  0.84640  0.11270  0.48709  1.0000
  C   C4684     1.0  0.97699  0.08595  0.52032  1.0000
  C   C4685     1.0  0.97993  0.10954  0.48652  1.0000
  H   H5596     1.0  0.93702  0.25380  0.48660  1.0000
  Fe  Fe629     1.0  0.98492  0.46793  0.58841  1.0000
  H   H5597     1.0  0.86060  0.08014  0.48486  1.0000
  H   H5598     1.0  0.95321  0.38039  0.48595  1.0000
  C   C4686     1.0  0.94193  0.28231  0.48631  1.0000
  C   C4687     1.0  0.89504  0.30816  0.48629  1.0000
  C   C4688     1.0  0.93099  0.10769  0.48480  1.0000
  H   H5599     1.0  0.86998  0.29255  0.48542  1.0000
  H   H5600     1.0  0.98498  0.48476  0.70279  1.0000
  C   C4689     1.0  0.98570  0.25767  0.51037  1.0000
  C   C4690     1.0  0.98526  0.47697  0.73016  1.0000
  H   H5601     1.0  0.91255  0.42845  0.48529  1.0000
  C   C4691     1.0  0.89752  0.10160  0.48565  1.0000
  S   S1259     1.0  0.81947  0.98748  0.50290  1.0000
  C   C4692     1.0  0.97095  0.10650  0.48540  1.0000
  H   H5602     1.0  0.89592  0.42607  0.48547  1.0000
  H   H5603     1.0  0.98548  0.09034  0.55433  1.0000
  C   C4693     1.0  0.87642  0.12947  0.48521  1.0000
  H   H5604     1.0  0.91681  0.34653  0.48507  1.0000
  H   H5605     1.0  0.85999  0.31011  0.48485  1.0000
  S   S1260     1.0  0.88870  0.46281  0.73449  1.0000
  H   H5606     1.0  0.91846  0.48199  0.77860  1.0000
  S   S1261     1.0  0.82605  0.47193  0.92497  1.0000
  H   H5607     1.0  0.93569  0.46821  0.77485  1.0000
  Fe  Fe630     1.0  0.79487  0.47394  0.93385  1.0000
  S   S1262     1.0  0.80676  0.45791  0.93288  1.0000
  C   C4694     1.0  0.86991  0.41782  0.91907  1.0000
  H   H5608     1.0  0.84255  0.42871  0.94173  1.0000
  Fe  Fe631     1.0  0.81557  0.46714  0.91708  1.0000
  S   S1263     1.0  0.82185  0.45923  0.90250  1.0000
  Fe  Fe632     1.0  0.88161  0.47926  0.83904  1.0000
  C   C4695     1.0  0.87347  0.42300  0.90819  1.0000
  S   S1264     1.0  0.90782  0.47342  0.76703  1.0000
  H   H5609     1.0  0.82897  0.43079  0.94064  1.0000
  Fe  Fe633     1.0  0.89811  0.46063  0.77125  1.0000
  H   H5610     1.0  0.87308  0.46284  0.83830  1.0000
  S   S1265     1.0  0.89618  0.45170  0.78903  1.0000
  C   C4696     1.0  0.86635  0.43143  0.90282  1.0000
  N   N312      1.0  0.84039  0.43351  0.92505  1.0000
  H   H5611     1.0  0.84306  0.45420  0.84264  1.0000
  Fe  Fe634     1.0  0.89513  0.46532  0.74776  1.0000
  H   H5612     1.0  0.84519  0.45489  0.96658  1.0000
  H   H5613     1.0  0.83017  0.44828  0.92968  1.0000
  C   C4697     1.0  0.85888  0.46695  0.81834  1.0000
  S   S1266     1.0  0.90727  0.45304  0.75674  1.0000
  H   H5614     1.0  0.87552  0.41127  0.92321  1.0000
  C   C4698     1.0  0.94165  0.47434  0.85868  1.0000
  C   C4699     1.0  0.82996  0.47819  0.97545  1.0000
  H   H5615     1.0  0.86526  0.45920  0.85200  1.0000
  S   S1267     1.0  0.88727  0.47546  0.86801  1.0000
  S   S1268     1.0  0.94344  0.48409  0.87413  1.0000
  S   S1269     1.0  0.91740  0.46980  0.84822  1.0000
  H   H5616     1.0  0.94438  0.48008  0.74609  1.0000
  H   H5617     1.0  0.83917  0.45058  0.91663  1.0000
  S   S1270     1.0  0.93348  0.46446  0.74408  1.0000
  H   H5618     1.0  0.87826  0.48676  0.79961  1.0000
  H   H5619     1.0  0.92520  0.45390  0.79527  1.0000
  S   S1271     1.0  0.89057  0.46341  0.84771  1.0000
  H   H5620     1.0  0.93611  0.47018  0.82891  1.0000
  C   C4700     1.0  0.93810  0.47728  0.81158  1.0000
  C   C4701     1.0  0.93578  0.47123  0.85301  1.0000
  C   C4702     1.0  0.92443  0.47372  0.85568  1.0000
  H   H5621     1.0  0.85437  0.44405  0.84687  1.0000
  C   C4703     1.0  0.86733  0.45766  0.84357  1.0000
  C   C4704     1.0  0.81518  0.45842  0.97213  1.0000
  H   H5622     1.0  0.94008  0.46674  0.84666  1.0000
  S   S1272     1.0  0.86963  0.45309  0.87366  1.0000
  H   H5623     1.0  0.85047  0.44134  0.90381  1.0000
  C   C4705     1.0  0.89177  0.46063  0.79814  1.0000
  C   C4706     1.0  0.92698  0.46420  0.82145  1.0000
  H   H5624     1.0  0.93870  0.48308  0.79447  1.0000
  S   S1273     1.0  0.96976  0.48284  0.85023  1.0000
  C   C4707     1.0  0.88917  0.46370  0.81647  1.0000
  C   C4708     1.0  0.89303  0.45671  0.80902  1.0000
  H   H5625     1.0  0.91984  0.46189  0.78368  1.0000
  H   H5626     1.0  0.84425  0.47407  0.83666  1.0000
  H   H5627     1.0  0.89016  0.46059  0.82484  1.0000
  H   H5628     1.0  0.89693  0.44823  0.81171  1.0000
  C   C4709     1.0  0.85921  0.42108  0.92467  1.0000
  H   H5629     1.0  0.81084  0.46558  0.96729  1.0000
  H   H5630     1.0  0.93195  0.44442  0.73915  1.0000
  H   H5631     1.0  0.94015  0.44352  0.78025  1.0000
  S   S1274     1.0  0.96440  0.47339  0.76095  1.0000
  S   S1275     1.0  0.96192  0.44532  0.77896  1.0000
  H   H5632     1.0  0.84424  0.44678  0.92899  1.0000
  C   C4710     1.0  0.85565  0.43473  0.90832  1.0000
  C   C4711     1.0  0.83288  0.43216  0.91914  1.0000
  C   C4712     1.0  0.83754  0.42758  0.93668  1.0000
  C   C4713     1.0  0.95461  0.44755  0.76885  1.0000
  C   C4714     1.0  0.94369  0.44693  0.77182  1.0000
  H   H5633     1.0  0.98156  0.44815  0.82575  1.0000
  C   C4715     1.0  0.94162  0.45671  0.75338  1.0000
  C   C4716     1.0  0.95271  0.45633  0.75021  1.0000
  C   C4717     1.0  0.95920  0.45175  0.75792  1.0000
  C   C4718     1.0  0.93697  0.46870  0.78279  1.0000
  C   C4719     1.0  0.84335  0.45757  0.98263  1.0000
  H   H5634     1.0  0.95615  0.46016  0.74195  1.0000
  H   H5635     1.0  0.96769  0.45195  0.75555  1.0000
  C   C4720     1.0  0.83486  0.45892  0.89386  1.0000
  C   C4721     1.0  0.84187  0.46509  0.89426  1.0000
  C   C4722     1.0  0.85245  0.46390  0.88757  1.0000
  C   C4723     1.0  0.85603  0.45637  0.88070  1.0000
  C   C4724     1.0  0.84896  0.45032  0.88032  1.0000
  C   C4725     1.0  0.83840  0.45172  0.88672  1.0000
  H   H5636     1.0  0.83922  0.47060  0.89982  1.0000
  H   H5637     1.0  0.95039  0.47230  0.85661  1.0000
  H   H5638     1.0  0.85172  0.44435  0.87522  1.0000
  H   H5639     1.0  0.83304  0.44690  0.88641  1.0000
  H   H5640     1.0  0.82425  0.43502  0.92313  1.0000
  H   H5641     1.0  0.83415  0.42343  0.91879  1.0000
  C   C4726     1.0  0.92875  0.47084  0.80151  1.0000
  C   C4727     1.0  0.84167  0.46059  0.97199  1.0000
  H   H5642     1.0  0.83390  0.43705  0.91054  1.0000
  H   H5643     1.0  0.86913  0.43550  0.89435  1.0000
  C   C4728     1.0  0.85173  0.42969  0.91942  1.0000
  H   H5644     1.0  0.86836  0.44103  0.83223  1.0000
  H   H5645     1.0  0.83843  0.41868  0.93736  1.0000
  H   H5646     1.0  0.97108  0.48222  0.92400  1.0000
  Fe  Fe635     1.0  0.81637  0.46385  0.94091  1.0000
  Fe  Fe636     1.0  0.96878  0.46030  0.77535  1.0000
  H   H5647     1.0  0.94240  0.46090  0.78597  1.0000
  S   S1276     1.0  0.98616  0.46180  0.77133  1.0000
  C   C4729     1.0  0.83846  0.44528  0.92504  1.0000
  C   C4730     1.0  0.88679  0.47160  0.79468  1.0000
  H   H5648     1.0  0.87174  0.44896  0.84421  1.0000
  H   H5649     1.0  0.88177  0.42050  0.90388  1.0000
  S   S1277     1.0  0.82582  0.45135  0.95264  1.0000
  C   C4731     1.0  0.81366  0.45736  0.98358  1.0000
  H   H5650     1.0  0.85702  0.41677  0.93309  1.0000
  Fe  Fe637     1.0  0.91588  0.46676  0.75195  1.0000
  C   C4732     1.0  0.82255  0.45026  0.96699  1.0000
  C   C4733     1.0  0.86639  0.44787  0.82561  1.0000
  Fe  Fe638     1.0  0.96156  0.47989  0.86808  1.0000
  H   H5651     1.0  0.85706  0.47757  0.83505  1.0000
  H   H5652     1.0  0.86090  0.47162  0.80071  1.0000
  C   C4734     1.0  0.93398  0.47050  0.82135  1.0000
  C   C4735     1.0  0.93538  0.47762  0.80183  1.0000
  C   C4736     1.0  0.93620  0.47993  0.86710  1.0000
  H   H5653     1.0  0.81638  0.48375  0.96126  1.0000
  S   S1278     1.0  0.96280  0.47162  0.78706  1.0000
  S   S1279     1.0  0.97161  0.46297  0.87238  1.0000
  H   H5654     1.0  0.85508  0.47531  0.81896  1.0000
  N   N313      1.0  0.85758  0.46020  0.83901  1.0000
  C   C4737     1.0  0.83511  0.47074  0.96838  1.0000
  H   H5655     1.0  0.83401  0.47239  0.96010  1.0000
  S   S1280     1.0  0.90441  0.47858  0.74214  1.0000
  C   C4738     1.0  0.86085  0.45841  0.82765  1.0000
  N   N314      1.0  0.92661  0.47080  0.79093  1.0000
  H   H5656     1.0  0.80847  0.48349  0.98169  1.0000
  C   C4739     1.0  0.82802  0.44095  0.97334  1.0000
  C   C4740     1.0  0.93713  0.45165  0.76409  1.0000
  C   C4741     1.0  0.88371  0.47452  0.81312  1.0000
  H   H5657     1.0  0.87426  0.43799  0.81353  1.0000
  C   C4742     1.0  0.86764  0.45453  0.80604  1.0000
  C   C4743     1.0  0.86220  0.46495  0.80773  1.0000
  Fe  Fe639     1.0  0.87779  0.46666  0.86281  1.0000
  C   C4744     1.0  0.92434  0.46433  0.81171  1.0000
  C   C4745     1.0  0.85029  0.45286  0.84606  1.0000
  H   H5658     1.0  0.88573  0.47468  0.78631  1.0000
  H   H5659     1.0  0.87057  0.45312  0.79776  1.0000
  C   C4746     1.0  0.98368  0.46145  0.81152  1.0000
  Fe  Fe640     1.0  0.95993  0.48477  0.77221  1.0000
  H   H5660     1.0  0.83368  0.43461  0.96946  1.0000
  Fe  Fe641     1.0  0.89916  0.47380  0.85199  1.0000
  H   H5661     1.0  0.84741  0.45428  0.85458  1.0000
  C   C4747     1.0  0.86975  0.44601  0.81496  1.0000
  H   H5662     1.0  0.92364  0.45910  0.82916  1.0000
  C   C4748     1.0  0.92075  0.46224  0.79182  1.0000
  H   H5663     1.0  0.92857  0.45173  0.76653  1.0000
  H   H5664     1.0  0.91893  0.45917  0.81239  1.0000
  C   C4749     1.0  0.85182  0.47164  0.83976  1.0000
  C   C4750     1.0  0.92485  0.48239  0.86981  1.0000
  H   H5665     1.0  0.94355  0.48217  0.81152  1.0000
  H   H5666     1.0  0.85801  0.46838  0.88808  1.0000
  S   S1281     1.0  0.88487  0.47142  0.76284  1.0000
  H   H5667     1.0  0.84948  0.47269  0.84840  1.0000
  C   C4751     1.0  0.88261  0.47846  0.80220  1.0000
  H   H5668     1.0  0.91242  0.46380  0.79696  1.0000
  S   S1282     1.0  0.80382  0.47915  0.94328  1.0000
  S   S1283     1.0  0.87761  0.48325  0.82239  1.0000
  H   H5669     1.0  0.96686  0.48645  0.82728  1.0000
  H   H5670     1.0  0.94148  0.47526  0.78061  1.0000
  S   S1284     1.0  0.80274  0.48263  0.91727  1.0000
  H   H5671     1.0  0.91022  0.48117  0.86629  1.0000
  H   H5672     1.0  0.97759  0.46445  0.74166  1.0000
  C   C4752     1.0  0.94837  0.48576  0.73943  1.0000
  Fe  Fe642     1.0  0.97970  0.47436  0.78192  1.0000
  S   S1285     1.0  0.86815  0.48176  0.85377  1.0000
  H   H5673     1.0  0.97302  0.48203  0.90456  1.0000
  H   H5674     1.0  0.98199  0.45746  0.80611  1.0000
  C   C4753     1.0  0.98347  0.45618  0.82263  1.0000
  C   C4754     1.0  0.91896  0.47931  0.86410  1.0000
  H   H5675     1.0  0.91208  0.48341  0.79246  1.0000
  Fe  Fe643     1.0  0.89522  0.48377  0.75773  1.0000
  Fe  Fe644     1.0  0.98122  0.47574  0.75758  1.0000
  H   H5676     1.0  0.87668  0.48373  0.73750  1.0000
  C   C4755     1.0  0.92004  0.48163  0.78667  1.0000
  Fe  Fe645     1.0  0.98293  0.47116  0.87585  1.0000
  Fe  Fe646     1.0  0.98072  0.46652  0.85476  1.0000
  S   S1286     1.0  0.98538  0.45464  0.84364  1.0000
  H   H5677     1.0  0.91936  0.43609  0.73487  1.0000
  C   C4756     1.0  0.97653  0.48671  0.91761  1.0000
  C   C4757     1.0  0.97753  0.48666  0.90666  1.0000
  C   C4758     1.0  0.98562  0.46129  0.82974  1.0000
  H   H5678     1.0  0.92062  0.48665  0.87637  1.0000
  Fe  Fe647     1.0  0.81254  0.48659  0.92658  1.0000
  C   C4759     1.0  0.82633  0.43980  0.98468  1.0000
  S   S1287     1.0  0.86532  0.51251  0.16520  1.0000
  Fe  Fe648     1.0  0.92279  0.54497  0.17019  1.0000
  S   S1288     1.0  0.91520  0.56257  0.17033  1.0000
  S   S1289     1.0  0.94064  0.54055  0.16327  1.0000
  Fe  Fe649     1.0  0.90191  0.53777  0.18209  1.0000
  S   S1290     1.0  0.89268  0.55479  0.18352  1.0000
  S   S1291     1.0  0.89329  0.52411  0.19070  1.0000
  Fe  Fe650     1.0  0.90139  0.55937  0.16590  1.0000
  S   S1292     1.0  0.89303  0.57297  0.15412  1.0000
  Fe  Fe651     1.0  0.90743  0.55624  0.18783  1.0000
  S   S1293     1.0  0.90916  0.56442  0.20016  1.0000
  S   S1294     1.0  0.90962  0.54218  0.16412  1.0000
  S   S1295     1.0  0.91596  0.53876  0.18799  1.0000
  C   C4760     1.0  0.81945  0.53372  0.99495  1.0000
  Fe  Fe652     1.0  0.97851  0.54542  0.19031  1.0000
  H   H5679     1.0  0.96215  0.51458  0.12999  1.0000
  S   S1296     1.0  0.96448  0.55931  0.18726  1.0000
  H   H5680     1.0  0.86422  0.49559  0.03393  1.0000
  H   H5681     1.0  0.83059  0.49754  0.06161  1.0000
  H   H5682     1.0  0.85499  0.57552  0.01209  1.0000
  C   C4761     1.0  0.82699  0.52093  0.07098  1.0000
  C   C4762     1.0  0.88942  0.59987  0.16824  1.0000
  H   H5683     1.0  0.80772  0.55404  0.99580  1.0000
  N   N315      1.0  0.97427  0.51107  0.16155  1.0000
  Fe  Fe653     1.0  0.86072  0.49046  0.08995  1.0000
  H   H5684     1.0  0.98062  0.56288  0.22972  1.0000
  H   H5685     1.0  0.89231  0.57862  0.17420  1.0000
  C   C4763     1.0  0.95730  0.49793  0.19651  1.0000
  H   H5686     1.0  0.88054  0.60153  0.16890  1.0000
  S   S1297     1.0  0.85649  0.50844  0.08955  1.0000
  Fe  Fe654     1.0  0.89735  0.55350  0.10059  1.0000
  S   S1298     1.0  0.90883  0.55083  0.08456  1.0000
  S   S1299     1.0  0.89248  0.56909  0.10674  1.0000
  Fe  Fe655     1.0  0.89190  0.53147  0.10626  1.0000
  S   S1300     1.0  0.90300  0.52664  0.09118  1.0000
  S   S1301     1.0  0.88281  0.51898  0.11760  1.0000
  Fe  Fe656     1.0  0.91465  0.53419  0.09459  1.0000
  S   S1302     1.0  0.93180  0.52457  0.09346  1.0000
  Fe  Fe657     1.0  0.89619  0.54349  0.08230  1.0000
  S   S1303     1.0  0.89359  0.54381  0.06561  1.0000
  S   S1304     1.0  0.90417  0.53736  0.11071  1.0000
  S   S1305     1.0  0.88413  0.54788  0.09734  1.0000
  H   H5687     1.0  0.81132  0.52250  0.06718  1.0000
  S   S1306     1.0  0.98046  0.53799  0.20759  1.0000
  C   C4764     1.0  0.84120  0.50217  0.11936  1.0000
  H   H5688     1.0  0.89187  0.57685  0.18841  1.0000
  Fe  Fe658     1.0  0.98209  0.54183  0.09729  1.0000
  H   H5689     1.0  0.81805  0.50442  0.06866  1.0000
  S   S1307     1.0  0.96428  0.54968  0.09858  1.0000
  S   S1308     1.0  0.85680  0.55105  0.99835  1.0000
  C   C4765     1.0  0.90439  0.59101  0.17690  1.0000
  C   C4766     1.0  0.91332  0.49522  0.08076  1.0000
  H   H5690     1.0  0.96363  0.51360  0.10987  1.0000
  H   H5691     1.0  0.90169  0.49027  0.06783  1.0000
  H   H5692     1.0  0.83440  0.56218  0.00200  1.0000
  S   S1309     1.0  0.85528  0.53410  0.02936  1.0000
  S   S1310     1.0  0.84816  0.54964  0.05440  1.0000
  H   H5693     1.0  0.90692  0.50114  0.23459  1.0000
  H   H5694     1.0  0.90278  0.49282  0.12042  1.0000
  C   C4767     1.0  0.82578  0.50051  0.01353  1.0000
  C   C4768     1.0  0.83271  0.50786  0.00913  1.0000
  C   C4769     1.0  0.83736  0.51080  0.01607  1.0000
  C   C4770     1.0  0.81200  0.53719  0.07063  1.0000
  C   C4771     1.0  0.96766  0.51332  0.14449  1.0000
  H   H5695     1.0  0.81682  0.52884  0.01635  1.0000
  H   H5696     1.0  0.83475  0.51100  0.00036  1.0000
  H   H5697     1.0  0.84294  0.51623  0.01263  1.0000
  H   H5698     1.0  0.93556  0.52968  0.14968  1.0000
  H   H5699     1.0  0.80403  0.54131  0.06906  1.0000
  N   N316      1.0  0.89242  0.59329  0.17874  1.0000
  C   C4772     1.0  0.93913  0.52862  0.13307  1.0000
  S   S1311     1.0  0.84131  0.50931  0.03616  1.0000
  C   C4773     1.0  0.83512  0.50634  0.02739  1.0000
  Fe  Fe659     1.0  0.84803  0.54642  0.01585  1.0000
  C   C4774     1.0  0.96996  0.49652  0.10996  1.0000
  H   H5700     1.0  0.82512  0.51144  0.05564  1.0000
  H   H5701     1.0  0.87004  0.62196  0.19551  1.0000
  C   C4775     1.0  0.87420  0.56906  0.02729  1.0000
  C   C4776     1.0  0.78803  0.56990  0.98623  1.0000
  C   C4777     1.0  0.97073  0.50699  0.10981  1.0000
  H   H5702     1.0  0.96298  0.58039  0.11488  1.0000
  C   C4778     1.0  0.91057  0.49237  0.11423  1.0000
  C   C4779     1.0  0.87764  0.60839  0.20664  1.0000
  H   H5703     1.0  0.89165  0.50307  0.20507  1.0000
  C   C4780     1.0  0.88088  0.54426  0.06324  1.0000
  C   C4781     1.0  0.88051  0.54168  0.05357  1.0000
  C   C4782     1.0  0.87053  0.54263  0.05105  1.0000
  C   C4783     1.0  0.86084  0.54654  0.05802  1.0000
  C   C4784     1.0  0.86122  0.54883  0.06784  1.0000
  C   C4785     1.0  0.87119  0.54757  0.07051  1.0000
  H   H5704     1.0  0.88797  0.53912  0.04790  1.0000
  H   H5705     1.0  0.87035  0.54067  0.04357  1.0000
  H   H5706     1.0  0.87137  0.54955  0.07799  1.0000
  C   C4786     1.0  0.94078  0.53180  0.09450  1.0000
  C   C4787     1.0  0.93707  0.54229  0.09673  1.0000
  C   C4788     1.0  0.94438  0.54773  0.09788  1.0000
  C   C4789     1.0  0.95543  0.54276  0.09673  1.0000
  C   C4790     1.0  0.95915  0.53234  0.09437  1.0000
  C   C4791     1.0  0.95180  0.52684  0.09339  1.0000
  H   H5707     1.0  0.92857  0.54620  0.09762  1.0000
  H   H5708     1.0  0.94147  0.55584  0.09961  1.0000
  H   H5709     1.0  0.96764  0.52849  0.09347  1.0000
  H   H5710     1.0  0.95455  0.51864  0.09194  1.0000
  C   C4792     1.0  0.86333  0.51146  0.09772  1.0000
  C   C4793     1.0  0.86557  0.52186  0.09525  1.0000
  C   C4794     1.0  0.87159  0.52416  0.10132  1.0000
  C   C4795     1.0  0.87535  0.51610  0.10992  1.0000
  C   C4796     1.0  0.87308  0.50571  0.11240  1.0000
  C   C4797     1.0  0.86698  0.50344  0.10640  1.0000
  H   H5711     1.0  0.86279  0.52811  0.08853  1.0000
  H   H5712     1.0  0.87321  0.53221  0.09934  1.0000
  H   H5713     1.0  0.87616  0.49938  0.11885  1.0000
  H   H5714     1.0  0.84892  0.50968  0.06752  1.0000
  C   C4798     1.0  0.89665  0.49876  0.06626  1.0000
  C   C4799     1.0  0.86668  0.55665  0.02250  1.0000
  C   C4800     1.0  0.88403  0.56996  0.04377  1.0000
  C   C4801     1.0  0.85873  0.57601  0.01860  1.0000
  H   H5715     1.0  0.87696  0.55580  0.22818  1.0000
  H   H5716     1.0  0.86086  0.55548  0.03059  1.0000
  C   C4802     1.0  0.84711  0.55432  0.99031  1.0000
  S   S1312     1.0  0.83021  0.53755  0.04434  1.0000
  H   H5717     1.0  0.90846  0.58735  0.16959  1.0000
  H   H5718     1.0  0.97775  0.55891  0.13440  1.0000
  H   H5719     1.0  0.89327  0.59543  0.16142  1.0000
  H   H5720     1.0  0.85247  0.57484  0.02635  1.0000
  H   H5721     1.0  0.97941  0.49427  0.06250  1.0000
  H   H5722     1.0  0.93987  0.49954  0.21782  1.0000
  C   C4803     1.0  0.80023  0.53295  0.98942  1.0000
  C   C4804     1.0  0.79832  0.55132  0.03259  1.0000
  C   C4805     1.0  0.82825  0.53763  0.07538  1.0000
  H   H5723     1.0  0.97035  0.56341  0.10873  1.0000
  C   C4806     1.0  0.92953  0.53610  0.23037  1.0000
  C   C4807     1.0  0.88533  0.56936  0.02496  1.0000
  H   H5724     1.0  0.98160  0.50657  0.17558  1.0000
  C   C4808     1.0  0.95606  0.50907  0.19603  1.0000
  C   C4809     1.0  0.96146  0.51228  0.20207  1.0000
  C   C4810     1.0  0.96772  0.50437  0.20892  1.0000
  H   H5725     1.0  0.82648  0.53416  0.99786  1.0000
  C   C4811     1.0  0.86262  0.53983  0.13395  1.0000
  H   H5726     1.0  0.95131  0.51522  0.19068  1.0000
  H   H5727     1.0  0.96090  0.52088  0.20128  1.0000
  H   H5728     1.0  0.84981  0.50156  0.16037  1.0000
  H   H5729     1.0  0.94825  0.49738  0.15960  1.0000
  C   C4812     1.0  0.89377  0.57143  0.14086  1.0000
  C   C4813     1.0  0.89951  0.56187  0.13706  1.0000
  C   C4814     1.0  0.89939  0.56099  0.12650  1.0000
  C   C4815     1.0  0.89353  0.56968  0.11979  1.0000
  C   C4816     1.0  0.88800  0.57922  0.12360  1.0000
  C   C4817     1.0  0.88809  0.58008  0.13406  1.0000
  H   H5730     1.0  0.90394  0.55515  0.14226  1.0000
  H   H5731     1.0  0.90384  0.55366  0.12354  1.0000
  H   H5732     1.0  0.88352  0.58597  0.11845  1.0000
  H   H5733     1.0  0.88366  0.58749  0.13690  1.0000
  C   C4818     1.0  0.94723  0.54666  0.16921  1.0000
  C   C4819     1.0  0.94132  0.55233  0.17748  1.0000
  C   C4820     1.0  0.94659  0.55699  0.18239  1.0000
  C   C4821     1.0  0.95784  0.55548  0.17948  1.0000
  C   C4822     1.0  0.96377  0.55001  0.17106  1.0000
  C   C4823     1.0  0.95844  0.54577  0.16579  1.0000
  H   H5734     1.0  0.93272  0.55297  0.18032  1.0000
  H   H5735     1.0  0.94201  0.56142  0.18873  1.0000
  H   H5736     1.0  0.97248  0.54901  0.16866  1.0000
  H   H5737     1.0  0.96306  0.54168  0.15923  1.0000
  C   C4824     1.0  0.90040  0.56350  0.21320  1.0000
  S   S1313     1.0  0.97893  0.52949  0.18661  1.0000
  H   H5738     1.0  0.90546  0.49077  0.13727  1.0000
  H   H5739     1.0  0.88871  0.55733  0.20931  1.0000
  H   H5740     1.0  0.91863  0.50363  0.17247  1.0000
  C   C4825     1.0  0.87197  0.51765  0.17199  1.0000
  C   C4826     1.0  0.88082  0.52240  0.16616  1.0000
  C   C4827     1.0  0.88713  0.52494  0.17182  1.0000
  C   C4828     1.0  0.88469  0.52253  0.18333  1.0000
  C   C4829     1.0  0.87564  0.51812  0.18912  1.0000
  C   C4830     1.0  0.86930  0.51569  0.18347  1.0000
  H   H5741     1.0  0.88305  0.52374  0.15730  1.0000
  H   H5742     1.0  0.89413  0.52829  0.16729  1.0000
  H   H5743     1.0  0.87363  0.51636  0.19800  1.0000
  H   H5744     1.0  0.86255  0.51190  0.18802  1.0000
  C   C4831     1.0  0.93389  0.51490  0.16747  1.0000
  C   C4832     1.0  0.92946  0.51564  0.21537  1.0000
  C   C4833     1.0  0.85896  0.54357  0.16642  1.0000
  C   C4834     1.0  0.83264  0.52679  0.07434  1.0000
  H   H5745     1.0  0.91032  0.56989  0.21945  1.0000
  H   H5746     1.0  0.90725  0.59865  0.17560  1.0000
  C   C4835     1.0  0.88463  0.59810  0.20780  1.0000
  C   C4836     1.0  0.97160  0.50635  0.15376  1.0000
  N   N317      1.0  0.93256  0.50830  0.16047  1.0000
  H   H5747     1.0  0.85256  0.49255  0.00543  1.0000
  H   H5748     1.0  0.94012  0.50660  0.12350  1.0000
  H   H5749     1.0  0.97379  0.49743  0.17562  1.0000
  H   H5750     1.0  0.90059  0.50316  0.05810  1.0000
  H   H5751     1.0  0.88279  0.53926  0.12371  1.0000
  H   H5752     1.0  0.91881  0.54876  0.22139  1.0000
  H   H5753     1.0  0.87161  0.56816  0.00182  1.0000
  C   C4837     1.0  0.91378  0.49345  0.20283  1.0000
  H   H5754     1.0  0.78764  0.54183  0.01323  1.0000
  C   C4838     1.0  0.93172  0.50440  0.21980  1.0000
  Fe  Fe660     1.0  0.82521  0.54952  0.02957  1.0000
  C   C4839     1.0  0.81635  0.52635  0.06950  1.0000
  H   H5755     1.0  0.84687  0.50091  0.06043  1.0000
  S   S1314     1.0  0.97566  0.50830  0.21527  1.0000
  C   C4840     1.0  0.97233  0.49492  0.15532  1.0000
  H   H5756     1.0  0.87820  0.57697  0.00482  1.0000
  N   N318      1.0  0.98269  0.50307  0.07266  1.0000
  H   H5757     1.0  0.95693  0.51081  0.23259  1.0000
  C   C4841     1.0  0.98070  0.50902  0.10931  1.0000
  H   H5758     1.0  0.86004  0.58448  0.01684  1.0000
  H   H5759     1.0  0.90747  0.58507  0.18395  1.0000
  C   C4842     1.0  0.89671  0.56546  0.23205  1.0000
  C   C4843     1.0  0.81800  0.54286  0.07342  1.0000
  H   H5760     1.0  0.85995  0.51269  0.14551  1.0000
  C   C4844     1.0  0.96421  0.51757  0.16719  1.0000
  Fe  Fe661     1.0  0.98260  0.52202  0.20321  1.0000
  C   C4845     1.0  0.87280  0.55459  0.14917  1.0000
  H   H5761     1.0  0.82387  0.50253  0.08557  1.0000
  H   H5762     1.0  0.98278  0.48920  0.08645  1.0000
  C   C4846     1.0  0.79945  0.53638  0.99915  1.0000
  C   C4847     1.0  0.86429  0.48781  0.04028  1.0000
  H   H5763     1.0  0.88004  0.58404  0.18310  1.0000
  H   H5764     1.0  0.87581  0.56071  0.16156  1.0000
  H   H5765     1.0  0.93589  0.51952  0.20991  1.0000
  N   N319      1.0  0.96458  0.56446  0.12589  1.0000
  C   C4848     1.0  0.96561  0.57603  0.12271  1.0000
  C   C4849     1.0  0.96894  0.55909  0.13595  1.0000
  C   C4850     1.0  0.96045  0.57215  0.22426  1.0000
  C   C4851     1.0  0.95311  0.56411  0.12735  1.0000
  C   C4852     1.0  0.94829  0.56713  0.11813  1.0000
  C   C4853     1.0  0.94630  0.56122  0.13786  1.0000
  C   C4854     1.0  0.93745  0.56700  0.11934  1.0000
  C   C4855     1.0  0.93545  0.56114  0.13896  1.0000
  C   C4856     1.0  0.93104  0.56400  0.12973  1.0000
  H   H5766     1.0  0.97416  0.57664  0.12144  1.0000
  C   C4857     1.0  0.82808  0.49918  0.03176  1.0000
  H   H5767     1.0  0.97031  0.50586  0.08711  1.0000
  H   H5768     1.0  0.96492  0.56354  0.14271  1.0000
  C   C4858     1.0  0.87308  0.56985  0.04626  1.0000
  H   H5769     1.0  0.96806  0.55043  0.13890  1.0000
  C   C4859     1.0  0.93656  0.52423  0.14438  1.0000
  H   H5770     1.0  0.89057  0.56907  0.01696  1.0000
  C   C4860     1.0  0.85595  0.51111  0.13979  1.0000
  H   H5771     1.0  0.95286  0.56958  0.10987  1.0000
  H   H5772     1.0  0.86491  0.49553  0.10866  1.0000
  H   H5773     1.0  0.93400  0.56924  0.11214  1.0000
  H   H5774     1.0  0.93043  0.55886  0.14706  1.0000
  H   H5775     1.0  0.92262  0.56396  0.13062  1.0000
  H   H5776     1.0  0.91963  0.50207  0.15896  1.0000
  H   H5777     1.0  0.88784  0.56993  0.05018  1.0000
  C   C4861     1.0  0.93533  0.51320  0.14855  1.0000
  C   C4862     1.0  0.93907  0.51149  0.12939  1.0000
  H   H5778     1.0  0.87362  0.56216  0.12692  1.0000
  S   S1315     1.0  0.82001  0.49670  0.00491  1.0000
  C   C4863     1.0  0.89012  0.56978  0.03314  1.0000
  H   H5779     1.0  0.82055  0.56652  0.99108  1.0000
  Fe  Fe662     1.0  0.84064  0.52727  0.03243  1.0000
  H   H5780     1.0  0.96995  0.55054  0.11840  1.0000
  H   H5781     1.0  0.90987  0.50108  0.19819  1.0000
  N   N320      1.0  0.80903  0.53680  0.00271  1.0000
  N   N321      1.0  0.86905  0.56773  0.01912  1.0000
  H   H5782     1.0  0.89614  0.49700  0.19314  1.0000
  H   H5783     1.0  0.83716  0.50415  0.08476  1.0000
  H   H5784     1.0  0.80827  0.53680  0.04050  1.0000
  H   H5785     1.0  0.93255  0.51069  0.17633  1.0000
  C   C4864     1.0  0.94014  0.52954  0.23022  1.0000
  C   C4865     1.0  0.92112  0.50734  0.16357  1.0000
  C   C4866     1.0  0.94044  0.52224  0.12560  1.0000
  Fe  Fe663     1.0  0.84444  0.54543  0.04021  1.0000
  H   H5786     1.0  0.94251  0.52564  0.11685  1.0000
  C   C4867     1.0  0.93957  0.49720  0.16310  1.0000
  C   C4868     1.0  0.87141  0.55566  0.15992  1.0000
  C   C4869     1.0  0.97936  0.50272  0.17011  1.0000
  H   H5787     1.0  0.88712  0.53540  0.21995  1.0000
  C   C4870     1.0  0.83913  0.49175  0.12171  1.0000
  H   H5788     1.0  0.85987  0.56860  0.04079  1.0000
  C   C4871     1.0  0.92773  0.49747  0.10725  1.0000
  H   H5789     1.0  0.85609  0.53685  0.15476  1.0000
  S   S1316     1.0  0.83845  0.55846  0.02632  1.0000
  C   C4872     1.0  0.94797  0.53125  0.22017  1.0000
  H   H5790     1.0  0.88130  0.49912  0.08554  1.0000
  C   C4873     1.0  0.94522  0.53901  0.21089  1.0000
  C   C4874     1.0  0.93470  0.54525  0.21136  1.0000
  H   H5791     1.0  0.88336  0.56222  0.00728  1.0000
  C   C4875     1.0  0.87549  0.61395  0.19637  1.0000
  C   C4876     1.0  0.88092  0.54064  0.13216  1.0000
  C   C4877     1.0  0.80817  0.54807  0.00377  1.0000
  H   H5792     1.0  0.89483  0.58538  0.20005  1.0000
  H   H5793     1.0  0.88862  0.49803  0.06569  1.0000
  H   H5794     1.0  0.98118  0.51723  0.10885  1.0000
  H   H5795     1.0  0.85946  0.56219  0.13011  1.0000
  H   H5796     1.0  0.85376  0.55180  0.07330  1.0000
  C   C4878     1.0  0.91292  0.50559  0.22929  1.0000
  H   H5797     1.0  0.95627  0.52669  0.21923  1.0000
  H   H5798     1.0  0.89334  0.48948  0.08722  1.0000
  H   H5799     1.0  0.95131  0.54025  0.20329  1.0000
  H   H5800     1.0  0.93251  0.55120  0.20418  1.0000
  H   H5801     1.0  0.86367  0.55075  0.17689  1.0000
  H   H5802     1.0  0.98032  0.55782  0.11655  1.0000
  C   C4879     1.0  0.91037  0.51711  0.22508  1.0000
  C   C4880     1.0  0.80347  0.48878  0.05720  1.0000
  H   H5803     1.0  0.84060  0.52312  0.07603  1.0000
  H   H5804     1.0  0.94011  0.53704  0.13004  1.0000
  N   N322      1.0  0.89561  0.50446  0.07501  1.0000
  C   C4881     1.0  0.88862  0.51560  0.07249  1.0000
  H   H5805     1.0  0.93518  0.49876  0.14319  1.0000
  H   H5806     1.0  0.93379  0.50134  0.10834  1.0000
  C   C4882     1.0  0.90660  0.50470  0.07559  1.0000
  C   C4883     1.0  0.91124  0.51402  0.07042  1.0000
  C   C4884     1.0  0.86383  0.49190  0.14441  1.0000
  C   C4885     1.0  0.92167  0.51400  0.07103  1.0000
  H   H5807     1.0  0.86309  0.55511  0.01642  1.0000
  C   C4886     1.0  0.92791  0.50465  0.07645  1.0000
  C   C4887     1.0  0.86824  0.56930  0.03821  1.0000
  H   H5808     1.0  0.93756  0.49097  0.16009  1.0000
  H   H5809     1.0  0.88833  0.52059  0.07832  1.0000
  H   H5810     1.0  0.91555  0.51550  0.16183  1.0000
  Fe  Fe664     1.0  0.87218  0.49447  0.16963  1.0000
  C   C4888     1.0  0.97608  0.51015  0.08041  1.0000
  H   H5811     1.0  0.88628  0.59372  0.21581  1.0000
  C   C4889     1.0  0.83651  0.55972  0.99424  1.0000
  H   H5812     1.0  0.83966  0.50793  0.11182  1.0000
  H   H5813     1.0  0.90689  0.52152  0.06604  1.0000
  H   H5814     1.0  0.79366  0.52639  0.04746  1.0000
  H   H5815     1.0  0.92488  0.52135  0.06738  1.0000
  C   C4890     1.0  0.97515  0.50008  0.06799  1.0000
  H   H5816     1.0  0.93596  0.50473  0.07696  1.0000
  H   H5817     1.0  0.78646  0.56452  0.02571  1.0000
  H   H5818     1.0  0.82083  0.52518  0.99400  1.0000
  H   H5819     1.0  0.96054  0.58059  0.12914  1.0000
  H   H5820     1.0  0.85387  0.54366  0.13630  1.0000
  H   H5821     1.0  0.98421  0.52180  0.16133  1.0000
  H   H5822     1.0  0.87819  0.61397  0.17953  1.0000
  C   C4891     1.0  0.87591  0.56886  0.00779  1.0000
  C   C4892     1.0  0.84625  0.49940  0.15462  1.0000
  H   H5823     1.0  0.91765  0.53062  0.21442  1.0000
  H   H5824     1.0  0.91110  0.51350  0.11118  1.0000
  C   C4893     1.0  0.96590  0.49786  0.13877  1.0000
  C   C4894     1.0  0.78890  0.53925  0.00566  1.0000
  H   H5825     1.0  0.96010  0.52424  0.16131  1.0000
  C   C4895     1.0  0.83217  0.50211  0.08029  1.0000
  H   H5826     1.0  0.94218  0.51648  0.16503  1.0000
  C   C4896     1.0  0.96821  0.49325  0.21007  1.0000
  C   C4897     1.0  0.79882  0.49935  0.05223  1.0000
  C   C4898     1.0  0.97155  0.55882  0.11706  1.0000
  H   H5827     1.0  0.97107  0.51774  0.07625  1.0000
  S   S1317     1.0  0.95224  0.49390  0.18753  1.0000
  C   C4899     1.0  0.89555  0.53053  0.21798  1.0000
  H   H5828     1.0  0.88994  0.50172  0.09259  1.0000
  C   C4900     1.0  0.90310  0.56670  0.22135  1.0000
  S   S1318     1.0  0.95773  0.49465  0.10898  1.0000
  H   H5829     1.0  0.96653  0.52213  0.14292  1.0000
  C   C4901     1.0  0.91897  0.52192  0.21798  1.0000
  H   H5830     1.0  0.80961  0.52067  0.01318  1.0000
  C   C4902     1.0  0.88431  0.55876  0.22628  1.0000
  H   H5831     1.0  0.87833  0.55892  0.14281  1.0000
  H   H5832     1.0  0.86425  0.53128  0.13889  1.0000
  C   C4903     1.0  0.96321  0.49003  0.20368  1.0000
  H   H5833     1.0  0.89140  0.52016  0.06399  1.0000
  C   C4904     1.0  0.91349  0.50792  0.11874  1.0000
  H   H5834     1.0  0.88671  0.54535  0.13228  1.0000
  C   C4905     1.0  0.96498  0.50910  0.13709  1.0000
  H   H5835     1.0  0.86875  0.55636  0.11903  1.0000
  C   C4906     1.0  0.86772  0.55723  0.12758  1.0000
  H   H5836     1.0  0.96914  0.49594  0.07454  1.0000
  C   C4907     1.0  0.93641  0.50705  0.14068  1.0000
  C   C4908     1.0  0.84829  0.49748  0.13608  1.0000
  H   H5837     1.0  0.92873  0.48786  0.08521  1.0000
  H   H5838     1.0  0.96629  0.57715  0.22244  1.0000
  H   H5839     1.0  0.83825  0.50511  0.15427  1.0000
  H   H5840     1.0  0.96580  0.52144  0.17306  1.0000
  C   C4909     1.0  0.88901  0.58276  0.18125  1.0000
  H   H5841     1.0  0.95231  0.55847  0.21033  1.0000
  H   H5842     1.0  0.81977  0.53940  0.98671  1.0000
  C   C4910     1.0  0.92458  0.49248  0.20295  1.0000
  C   C4911     1.0  0.80038  0.54054  0.03868  1.0000
  H   H5843     1.0  0.91920  0.51148  0.12085  1.0000
  H   H5844     1.0  0.87388  0.61203  0.21373  1.0000
  C   C4912     1.0  0.94581  0.55906  0.22740  1.0000
  H   H5845     1.0  0.94913  0.55897  0.14539  1.0000
  C   C4913     1.0  0.86454  0.55011  0.16854  1.0000
  C   C4914     1.0  0.86036  0.54239  0.15570  1.0000
  H   H5846     1.0  0.85383  0.53904  0.17318  1.0000
  C   C4915     1.0  0.88947  0.59336  0.19871  1.0000
  C   C4916     1.0  0.86737  0.54788  0.14672  1.0000
  H   H5847     1.0  0.86432  0.53905  0.12526  1.0000
  H   H5848     1.0  0.83560  0.49345  0.07947  1.0000
  C   C4917     1.0  0.84570  0.50507  0.12641  1.0000
  H   H5849     1.0  0.84740  0.51317  0.12387  1.0000
  H   H5850     1.0  0.87416  0.55016  0.02328  1.0000
  H   H5851     1.0  0.81474  0.55136  0.07398  1.0000
  H   H5852     1.0  0.97502  0.48896  0.16221  1.0000
  N   N323      1.0  0.83202  0.50962  0.06940  1.0000
  H   H5853     1.0  0.89867  0.56976  0.03130  1.0000
  C   C4918     1.0  0.82613  0.50565  0.06359  1.0000
  H   H5854     1.0  0.92498  0.50280  0.09976  1.0000
  S   S1319     1.0  0.83437  0.53848  0.01807  1.0000
  C   C4919     1.0  0.88739  0.59871  0.18814  1.0000
  C   C4920     1.0  0.89095  0.55961  0.21563  1.0000
  N   N324      1.0  0.91856  0.49668  0.11699  1.0000
  H   H5855     1.0  0.83298  0.54209  0.07742  1.0000
  H   H5856     1.0  0.90601  0.50820  0.12537  1.0000
  S   S1320     1.0  0.80849  0.55889  0.02755  1.0000
  H   H5857     1.0  0.80345  0.50569  0.04944  1.0000
  C   C4921     1.0  0.78806  0.55612  0.03027  1.0000
  H   H5858     1.0  0.88329  0.49610  0.20217  1.0000
  C   C4922     1.0  0.92379  0.49523  0.08120  1.0000
  C   C4923     1.0  0.95998  0.56801  0.21559  1.0000
  C   C4924     1.0  0.95267  0.56152  0.21715  1.0000
  S   S1321     1.0  0.87920  0.48861  0.18448  1.0000
  H   H5859     1.0  0.89156  0.49064  0.22399  1.0000
  H   H5860     1.0  0.94004  0.55412  0.22854  1.0000
  H   H5861     1.0  0.84848  0.51767  0.13936  1.0000
  H   H5862     1.0  0.89210  0.60777  0.16559  1.0000
  C   C4925     1.0  0.96949  0.49081  0.14789  1.0000
  H   H5863     1.0  0.88266  0.53246  0.13778  1.0000
  C   C4926     1.0  0.88026  0.60923  0.18721  1.0000
  N   N325      1.0  0.86952  0.54640  0.13534  1.0000
  C   C4927     1.0  0.88988  0.49845  0.08556  1.0000
  H   H5864     1.0  0.80098  0.55085  0.01001  1.0000
  C   C4928     1.0  0.79099  0.53249  0.98645  1.0000
  H   H5865     1.0  0.96532  0.56984  0.20756  1.0000
  H   H5866     1.0  0.89568  0.52510  0.21265  1.0000
  H   H5867     1.0  0.88010  0.51532  0.07308  1.0000
  H   H5868     1.0  0.98442  0.53219  0.22997  1.0000
  H   H5869     1.0  0.83590  0.48942  0.11610  1.0000
  H   H5870     1.0  0.86167  0.51204  0.13164  1.0000
  H   H5871     1.0  0.86842  0.56972  0.05462  1.0000
  H   H5872     1.0  0.80244  0.53160  0.02010  1.0000
  C   C4929     1.0  0.92693  0.54385  0.22109  1.0000
  H   H5873     1.0  0.81528  0.54871  0.00641  1.0000
  H   H5874     1.0  0.81825  0.49053  0.02833  1.0000
  H   H5875     1.0  0.86881  0.48806  0.04623  1.0000
  C   C4930     1.0  0.79212  0.53465  0.04257  1.0000
  N   N326      1.0  0.85349  0.50002  0.14352  1.0000
  H   H5876     1.0  0.90051  0.53658  0.21294  1.0000
  H   H5877     1.0  0.90494  0.53770  0.22941  1.0000
  H   H5878     1.0  0.84476  0.49102  0.15847  1.0000
  H   H5879     1.0  0.92797  0.52290  0.16705  1.0000
  C   C4931     1.0  0.84335  0.50893  0.06289  1.0000
  H   H5880     1.0  0.86897  0.49100  0.13619  1.0000
  H   H5881     1.0  0.84375  0.51546  0.05522  1.0000
  H   H5882     1.0  0.95835  0.51234  0.17191  1.0000
  H   H5883     1.0  0.81344  0.49105  0.98814  1.0000
  C   C4932     1.0  0.80949  0.52916  0.01354  1.0000
  H   H5884     1.0  0.96376  0.49461  0.13304  1.0000
  C   C4933     1.0  0.92186  0.48960  0.12715  1.0000
  N   N327      1.0  0.89943  0.52405  0.22807  1.0000
  H   H5885     1.0  0.93875  0.49393  0.17211  1.0000
  H   H5886     1.0  0.97059  0.50746  0.06309  1.0000
  H   H5887     1.0  0.93187  0.48927  0.10539  1.0000
  H   H5888     1.0  0.98122  0.51248  0.08450  1.0000
  H   H5889     1.0  0.90846  0.49716  0.10626  1.0000
  H   H5890     1.0  0.86862  0.49426  0.14883  1.0000
  C   C4934     1.0  0.82350  0.49621  0.02484  1.0000
  H   H5891     1.0  0.82608  0.49597  0.04052  1.0000
  C   C4935     1.0  0.89184  0.49586  0.20196  1.0000
  H   H5892     1.0  0.79235  0.57174  0.00036  1.0000
  C   C4936     1.0  0.98188  0.51840  0.15557  1.0000
  C   C4937     1.0  0.92347  0.49940  0.22680  1.0000
  H   H5893     1.0  0.97843  0.52566  0.14972  1.0000
  H   H5894     1.0  0.89038  0.51168  0.23071  1.0000
  C   C4938     1.0  0.91398  0.48735  0.13698  1.0000
  C   C4939     1.0  0.78826  0.50175  0.05068  1.0000
  H   H5895     1.0  0.92860  0.49917  0.19855  1.0000
  C   C4940     1.0  0.97904  0.48786  0.11041  1.0000
  H   H5896     1.0  0.85574  0.48800  0.04476  1.0000
  H   H5897     1.0  0.86402  0.49303  0.01701  1.0000
  C   C4941     1.0  0.82864  0.56213  0.98807  1.0000
  H   H5898     1.0  0.92526  0.49062  0.23025  1.0000
  H   H5899     1.0  0.98613  0.52463  0.06767  1.0000
  S   S1322     1.0  0.88757  0.48815  0.15859  1.0000
  H   H5900     1.0  0.91063  0.48765  0.08439  1.0000
  C   C4942     1.0  0.89995  0.53168  0.23442  1.0000
  C   C4943     1.0  0.88731  0.56147  0.23456  1.0000
  C   C4944     1.0  0.87234  0.51053  0.34765  1.0000
  H   H5901     1.0  0.96930  0.94045  0.38862  1.0000
  S   S1323     1.0  0.90409  0.49538  0.34042  1.0000
  H   H5902     1.0  0.95846  0.56635  0.26013  1.0000
  H   H5903     1.0  0.95628  0.55665  0.32021  1.0000
  C   C4945     1.0  0.97545  0.93262  0.38977  1.0000
  Fe  Fe665     1.0  0.89615  0.54390  0.36542  1.0000
  S   S1324     1.0  0.90964  0.54471  0.35047  1.0000
  S   S1325     1.0  0.89011  0.52820  0.37230  1.0000
  Fe  Fe666     1.0  0.89587  0.56681  0.36801  1.0000
  S   S1326     1.0  0.90946  0.56903  0.35321  1.0000
  S   S1327     1.0  0.88780  0.58160  0.37574  1.0000
  Fe  Fe667     1.0  0.90073  0.56194  0.34531  1.0000
  S   S1328     1.0  0.89957  0.56970  0.32774  1.0000
  Fe  Fe668     1.0  0.91686  0.55156  0.35993  1.0000
  S   S1329     1.0  0.93402  0.54387  0.36101  1.0000
  S   S1330     1.0  0.88652  0.56075  0.35959  1.0000
  S   S1331     1.0  0.90399  0.54972  0.37538  1.0000
  C   C4946     1.0  0.96200  0.58070  0.24168  1.0000
  Fe  Fe669     1.0  0.97445  0.56568  0.36850  1.0000
  H   H5904     1.0  0.90016  0.49768  0.31799  1.0000
  S   S1332     1.0  0.95870  0.57667  0.36558  1.0000
  H   H5905     1.0  0.88301  0.52310  0.23681  1.0000
  H   H5906     1.0  0.92005  0.84926  0.46267  1.0000
  H   H5907     1.0  0.97472  0.80680  0.48382  1.0000
  S   S1333     1.0  0.97688  0.55802  0.38553  1.0000
  C   C4947     1.0  0.92722  0.49972  0.36778  1.0000
  H   H5908     1.0  0.95790  0.65952  0.41920  1.0000
  H   H5909     1.0  0.98067  0.91240  0.40233  1.0000
  Fe  Fe670     1.0  0.88942  0.55387  0.26089  1.0000
  S   S1334     1.0  0.90709  0.54710  0.25518  1.0000
  S   S1335     1.0  0.87940  0.55968  0.24803  1.0000
  Fe  Fe671     1.0  0.89048  0.54641  0.28518  1.0000
  S   S1336     1.0  0.90812  0.53872  0.28126  1.0000
  S   S1337     1.0  0.88313  0.54370  0.30341  1.0000
  Fe  Fe672     1.0  0.90924  0.55399  0.26814  1.0000
  S   S1338     1.0  0.92323  0.56157  0.26580  1.0000
  Fe  Fe673     1.0  0.90424  0.53258  0.26873  1.0000
  S   S1339     1.0  0.91283  0.51652  0.26423  1.0000
  S   S1340     1.0  0.89175  0.56231  0.27279  1.0000
  S   S1341     1.0  0.88639  0.53877  0.27377  1.0000
  C   C4948     1.0  0.96613  0.64993  0.46591  1.0000
  C   C4949     1.0  0.95666  0.93492  0.42686  1.0000
  H   H5910     1.0  0.92779  0.49757  0.30966  1.0000
  H   H5911     1.0  0.93051  0.80631  0.46253  1.0000
  C   C4950     1.0  0.84854  0.93439  0.43456  1.0000
  Fe  Fe674     1.0  0.97352  0.53317  0.28458  1.0000
  S   S1342     1.0  0.95888  0.52608  0.28797  1.0000
  S   S1343     1.0  0.97219  0.55124  0.28133  1.0000
  Fe  Fe675     1.0  0.90224  0.60699  0.41906  1.0000
  S   S1344     1.0  0.91613  0.60439  0.42703  1.0000
  S   S1345     1.0  0.90603  0.59219  0.41133  1.0000
  Fe  Fe676     1.0  0.89229  0.62928  0.42537  1.0000
  S   S1346     1.0  0.90549  0.62797  0.43346  1.0000
  S   S1347     1.0  0.88099  0.64566  0.42668  1.0000
  Fe  Fe677     1.0  0.91649  0.62182  0.41899  1.0000
  S   S1348     1.0  0.93223  0.62678  0.41029  1.0000
  Fe  Fe678     1.0  0.90388  0.61074  0.44094  1.0000
  S   S1349     1.0  0.90597  0.60340  0.45839  1.0000
  S   S1350     1.0  0.90346  0.62435  0.41007  1.0000
  S   S1351     1.0  0.88976  0.61211  0.43384  1.0000
  S   S1352     1.0  0.95459  0.63557  0.44294  1.0000
  Fe  Fe679     1.0  0.90441  0.89238  0.44619  1.0000
  S   S1353     1.0  0.89738  0.90515  0.43299  1.0000
  S   S1354     1.0  0.91049  0.89672  0.45840  1.0000
  Fe  Fe680     1.0  0.90353  0.87322  0.43776  1.0000
  S   S1355     1.0  0.89663  0.88424  0.42356  1.0000
  S   S1356     1.0  0.90879  0.85488  0.44232  1.0000
  Fe  Fe681     1.0  0.90872  0.89417  0.42207  1.0000
  S   S1357     1.0  0.92008  0.90006  0.40638  1.0000
  Fe  Fe682     1.0  0.88591  0.89416  0.43591  1.0000
  S   S1358     1.0  0.86759  0.89869  0.43892  1.0000
  S   S1359     1.0  0.91649  0.88223  0.43514  1.0000
  S   S1360     1.0  0.89207  0.88224  0.45022  1.0000
  Fe  Fe683     1.0  0.89393  0.70742  0.44296  1.0000
  S   S1361     1.0  0.90026  0.71194  0.42472  1.0000
  S   S1362     1.0  0.87859  0.71549  0.45307  1.0000
  Fe  Fe684     1.0  0.91356  0.68956  0.44654  1.0000
  S   S1363     1.0  0.92177  0.69261  0.42884  1.0000
  S   S1364     1.0  0.92134  0.67714  0.45932  1.0000
  Fe  Fe685     1.0  0.91591  0.71045  0.42919  1.0000
  S   S1365     1.0  0.92644  0.72284  0.42172  1.0000
  Fe  Fe686     1.0  0.90546  0.69369  0.42606  1.0000
  S   S1366     1.0  0.90587  0.68435  0.41373  1.0000
  S   S1367     1.0  0.90923  0.70719  0.44732  1.0000
  S   S1368     1.0  0.89763  0.68935  0.44388  1.0000
  Fe  Fe687     1.0  0.90242  0.80864  0.42308  1.0000
  S   S1369     1.0  0.91984  0.80739  0.42238  1.0000
  S   S1370     1.0  0.89138  0.82547  0.42277  1.0000
  Fe  Fe688     1.0  0.90619  0.78401  0.42393  1.0000
  S   S1371     1.0  0.92383  0.78107  0.42356  1.0000
  S   S1372     1.0  0.89801  0.77022  0.42600  1.0000
  Fe  Fe689     1.0  0.91849  0.79212  0.43548  1.0000
  S   S1373     1.0  0.92458  0.78865  0.45096  1.0000
  Fe  Fe690     1.0  0.92318  0.79663  0.41053  1.0000
  S   S1374     1.0  0.93532  0.79912  0.39452  1.0000
  S   S1375     1.0  0.90079  0.79389  0.43688  1.0000
  S   S1376     1.0  0.90582  0.79899  0.41013  1.0000
  H   H5912     1.0  0.94602  0.49619  0.37143  1.0000
  H   H5913     1.0  0.91399  0.63970  0.44345  1.0000
  S   S1377     1.0  0.97540  0.77632  0.45136  1.0000
  H   H5914     1.0  0.97083  0.65791  0.43295  1.0000
  H   H5915     1.0  0.86231  0.56379  0.32990  1.0000
  H   H5916     1.0  0.94349  0.58316  0.25594  1.0000
  H   H5917     1.0  0.91106  0.86881  0.45942  1.0000
  C   C4951     1.0  0.88189  0.78604  0.47508  1.0000
  C   C4952     1.0  0.88796  0.62888  0.47235  1.0000
  C   C4953     1.0  0.94575  0.80352  0.39663  1.0000
  C   C4954     1.0  0.94713  0.80165  0.40730  1.0000
  H   H5918     1.0  0.87957  0.52040  0.30559  1.0000
  N   N328      1.0  0.86044  0.93350  0.46404  1.0000
  H   H5919     1.0  0.86370  0.94895  0.45399  1.0000
  H   H5920     1.0  0.91061  0.53506  0.32280  1.0000
  H   H5921     1.0  0.94187  0.79741  0.41414  1.0000
  H   H5922     1.0  0.86979  0.51197  0.35591  1.0000
  H   H5923     1.0  0.88986  0.51140  0.29797  1.0000
  C   C4955     1.0  0.95009  0.55321  0.31925  1.0000
  C   C4956     1.0  0.91434  0.79474  0.46077  1.0000
  C   C4957     1.0  0.90559  0.80267  0.45750  1.0000
  C   C4958     1.0  0.89717  0.80739  0.46520  1.0000
  H   H5924     1.0  0.79054  0.98585  0.47569  1.0000
  C   C4959     1.0  0.97479  0.76649  0.44468  1.0000
  S   S1378     1.0  0.98424  0.62597  0.44675  1.0000
  H   H5925     1.0  0.90533  0.80520  0.44898  1.0000
  H   H5926     1.0  0.89042  0.81348  0.46250  1.0000
  C   C4960     1.0  0.95976  0.92500  0.40945  1.0000
  C   C4961     1.0  0.95219  0.66184  0.44889  1.0000
  C   C4962     1.0  0.88233  0.72271  0.46045  1.0000
  H   H5927     1.0  0.87184  0.85943  0.45816  1.0000
  C   C4963     1.0  0.94867  0.93013  0.42630  1.0000
  H   H5928     1.0  0.94767  0.87696  0.46965  1.0000
  C   C4964     1.0  0.96555  0.83577  0.46804  1.0000
  C   C4965     1.0  0.89069  0.72831  0.45538  1.0000
  C   C4966     1.0  0.89749  0.80426  0.47630  1.0000
  H   H5929     1.0  0.94049  0.58712  0.24247  1.0000
  H   H5930     1.0  0.91720  0.50202  0.38870  1.0000
  H   H5931     1.0  0.89418  0.72895  0.44675  1.0000
  C   C4967     1.0  0.91873  0.73616  0.42250  1.0000
  C   C4968     1.0  0.90758  0.73777  0.42670  1.0000
  C   C4969     1.0  0.90138  0.74825  0.42775  1.0000
  C   C4970     1.0  0.90625  0.75726  0.42448  1.0000
  C   C4971     1.0  0.91743  0.75571  0.42016  1.0000
  C   C4972     1.0  0.92368  0.74515  0.41920  1.0000
  H   H5932     1.0  0.90373  0.73091  0.42915  1.0000
  H   H5933     1.0  0.89279  0.74939  0.43123  1.0000
  H   H5934     1.0  0.92124  0.76263  0.41747  1.0000
  H   H5935     1.0  0.93232  0.74396  0.41591  1.0000
  C   C4973     1.0  0.94507  0.54064  0.31190  1.0000
  H   H5936     1.0  0.89311  0.51326  0.24302  1.0000
  C   C4974     1.0  0.93348  0.67990  0.47180  1.0000
  C   C4975     1.0  0.93039  0.68327  0.46174  1.0000
  H   H5937     1.0  0.93694  0.56376  0.32798  1.0000
  H   H5938     1.0  0.95119  0.55882  0.25633  1.0000
  H   H5939     1.0  0.93005  0.48922  0.26768  1.0000
  N   N329      1.0  0.94261  0.52130  0.24016  1.0000
  H   H5940     1.0  0.89324  0.51663  0.30759  1.0000
  C   C4976     1.0  0.92927  0.53063  0.30958  1.0000
  C   C4977     1.0  0.86048  0.91249  0.43751  1.0000
  C   C4978     1.0  0.86583  0.92112  0.43262  1.0000
  C   C4979     1.0  0.85986  0.93202  0.43106  1.0000
  H   H5941     1.0  0.95729  0.61033  0.46272  1.0000
  H   H5942     1.0  0.95045  0.66351  0.44061  1.0000
  C   C4980     1.0  0.84916  0.91486  0.44109  1.0000
  H   H5943     1.0  0.87453  0.91939  0.42975  1.0000
  H   H5944     1.0  0.86403  0.93865  0.42702  1.0000
  H   H5945     1.0  0.89249  0.48742  0.32097  1.0000
  H   H5946     1.0  0.84498  0.90821  0.44487  1.0000
  C   C4981     1.0  0.93320  0.89975  0.40745  1.0000
  C   C4982     1.0  0.93566  0.89908  0.41750  1.0000
  H   H5947     1.0  0.97737  0.85310  0.46758  1.0000
  H   H5948     1.0  0.91780  0.83086  0.41065  1.0000
  N   N330      1.0  0.91041  0.65367  0.45050  1.0000
  C   C4983     1.0  0.96413  0.53319  0.25248  1.0000
  H   H5949     1.0  0.92928  0.89928  0.42483  1.0000
  C   C4984     1.0  0.91084  0.64124  0.46915  1.0000
  C   C4985     1.0  0.91948  0.83923  0.40838  1.0000
  C   C4986     1.0  0.93921  0.55725  0.32354  1.0000
  C   C4987     1.0  0.90344  0.84702  0.43705  1.0000
  C   C4988     1.0  0.89573  0.85184  0.43059  1.0000
  C   C4989     1.0  0.89174  0.84519  0.42647  1.0000
  C   C4990     1.0  0.89565  0.83378  0.42860  1.0000
  C   C4991     1.0  0.90327  0.82908  0.43512  1.0000
  C   C4992     1.0  0.90704  0.83563  0.43945  1.0000
  H   H5950     1.0  0.89284  0.86065  0.42875  1.0000
  H   H5951     1.0  0.88583  0.84890  0.42142  1.0000
  H   H5952     1.0  0.90630  0.82038  0.43679  1.0000
  H   H5953     1.0  0.91293  0.83182  0.44452  1.0000
  C   C4993     1.0  0.89948  0.90138  0.46830  1.0000
  C   C4994     1.0  0.88901  0.90118  0.46805  1.0000
  H   H5954     1.0  0.93575  0.48920  0.31936  1.0000
  C   C4995     1.0  0.85956  0.92295  0.46243  1.0000
  C   C4996     1.0  0.97396  0.75034  0.43445  1.0000
  H   H5955     1.0  0.88756  0.89912  0.46120  1.0000
  C   C4997     1.0  0.92734  0.63364  0.47578  1.0000
  H   H5956     1.0  0.96156  0.81511  0.48303  1.0000
  C   C4998     1.0  0.90185  0.49403  0.25712  1.0000
  C   C4999     1.0  0.93819  0.62959  0.41936  1.0000
  C   C5000     1.0  0.94784  0.63329  0.41534  1.0000
  C   C5001     1.0  0.95280  0.63529  0.42258  1.0000
  C   C5002     1.0  0.94796  0.63392  0.43379  1.0000
  C   C5003     1.0  0.93821  0.63044  0.43778  1.0000
  C   C5004     1.0  0.93352  0.62796  0.43061  1.0000
  H   H5957     1.0  0.95156  0.63446  0.40666  1.0000
  H   H5958     1.0  0.96031  0.63802  0.41942  1.0000
  H   H5959     1.0  0.93449  0.62922  0.44645  1.0000
  H   H5960     1.0  0.92645  0.62452  0.43388  1.0000
  C   C5005     1.0  0.88817  0.65614  0.42366  1.0000
  C   C5006     1.0  0.88381  0.66523  0.42857  1.0000
  C   C5007     1.0  0.88940  0.67372  0.42597  1.0000
  C   C5008     1.0  0.89921  0.67333  0.41816  1.0000
  C   C5009     1.0  0.90363  0.66418  0.41338  1.0000
  C   C5010     1.0  0.89822  0.65554  0.41625  1.0000
  H   H5961     1.0  0.87605  0.66572  0.43433  1.0000
  H   H5962     1.0  0.88590  0.68076  0.42966  1.0000
  H   H5963     1.0  0.91121  0.66380  0.40733  1.0000
  H   H5964     1.0  0.90167  0.64859  0.41241  1.0000
  C   C5011     1.0  0.94120  0.60928  0.46399  1.0000
  C   C5012     1.0  0.96768  0.80810  0.48012  1.0000
  C   C5013     1.0  0.89263  0.62200  0.46485  1.0000
  C   C5014     1.0  0.89966  0.61197  0.46779  1.0000
  C   C5015     1.0  0.95134  0.51334  0.38350  1.0000
  C   C5016     1.0  0.95448  0.79371  0.47004  1.0000
  C   C5017     1.0  0.98091  0.95544  0.47629  1.0000
  H   H5965     1.0  0.89075  0.62445  0.45680  1.0000
  C   C5018     1.0  0.82064  0.98226  0.47429  1.0000
  C   C5019     1.0  0.95413  0.58078  0.39616  1.0000
  H   H5966     1.0  0.93658  0.50742  0.25101  1.0000
  S   S1379     1.0  0.97908  0.69056  0.41971  1.0000
  H   H5967     1.0  0.92463  0.60799  0.46734  1.0000
  H   H5968     1.0  0.94207  0.61133  0.45516  1.0000
  H   H5969     1.0  0.91904  0.52696  0.36704  1.0000
  C   C5020     1.0  0.93300  0.55167  0.27204  1.0000
  C   C5021     1.0  0.93929  0.55484  0.27713  1.0000
  C   C5022     1.0  0.94708  0.54695  0.28221  1.0000
  C   C5023     1.0  0.94881  0.53590  0.28200  1.0000
  C   C5024     1.0  0.94229  0.53268  0.27717  1.0000
  C   C5025     1.0  0.93449  0.54058  0.27208  1.0000
  H   H5970     1.0  0.93797  0.56337  0.27736  1.0000
  H   H5971     1.0  0.95143  0.54939  0.28666  1.0000
  H   H5972     1.0  0.94339  0.52411  0.27722  1.0000
  H   H5973     1.0  0.92967  0.53811  0.26811  1.0000
  H   H5974     1.0  0.95452  0.87524  0.42913  1.0000
  H   H5975     1.0  0.94142  0.57287  0.39733  1.0000
  C   C5026     1.0  0.96780  0.85433  0.39800  1.0000
  C   C5027     1.0  0.97682  0.76021  0.42813  1.0000
  N   N331      1.0  0.87985  0.84561  0.46895  1.0000
  C   C5028     1.0  0.88684  0.76773  0.47167  1.0000
  H   H5976     1.0  0.87041  0.49388  0.35283  1.0000
  C   C5029     1.0  0.90844  0.50057  0.25758  1.0000
  C   C5030     1.0  0.90417  0.50889  0.26342  1.0000
  C   C5031     1.0  0.89320  0.51080  0.26865  1.0000
  C   C5032     1.0  0.88651  0.50441  0.26799  1.0000
  C   C5033     1.0  0.89043  0.62586  0.48275  1.0000
  H   H5977     1.0  0.91685  0.49924  0.25334  1.0000
  H   H5978     1.0  0.88988  0.51701  0.27341  1.0000
  H   H5979     1.0  0.87804  0.50586  0.27208  1.0000
  H   H5980     1.0  0.87999  0.78667  0.44930  1.0000
  C   C5034     1.0  0.94614  0.76786  0.40163  1.0000
  H   H5981     1.0  0.97066  0.75421  0.40723  1.0000
  S   S1380     1.0  0.96846  0.89579  0.40860  1.0000
  H   H5982     1.0  0.95699  0.53884  0.25575  1.0000
  C   C5035     1.0  0.86952  0.57764  0.32642  1.0000
  H   H5983     1.0  0.82372  0.93147  0.39970  1.0000
  H   H5984     1.0  0.98194  0.49116  0.31554  1.0000
  C   C5036     1.0  0.97724  0.76827  0.43322  1.0000
  C   C5037     1.0  0.96628  0.66668  0.47535  1.0000
  C   C5038     1.0  0.89322  0.58473  0.38527  1.0000
  C   C5039     1.0  0.88831  0.59440  0.38921  1.0000
  C   C5040     1.0  0.89222  0.59695  0.39705  1.0000
  C   C5041     1.0  0.90102  0.58979  0.40109  1.0000
  C   C5042     1.0  0.90605  0.58024  0.39699  1.0000
  C   C5043     1.0  0.90221  0.57774  0.38910  1.0000
  H   H5985     1.0  0.88135  0.59986  0.38632  1.0000
  H   H5986     1.0  0.88826  0.60431  0.40014  1.0000
  H   H5987     1.0  0.91286  0.57464  0.40006  1.0000
  H   H5988     1.0  0.90608  0.57029  0.38615  1.0000
  C   C5044     1.0  0.93994  0.55332  0.36316  1.0000
  C   C5045     1.0  0.93745  0.56443  0.35802  1.0000
  C   C5046     1.0  0.94287  0.57178  0.35914  1.0000
  C   C5047     1.0  0.95075  0.56800  0.36542  1.0000
  C   C5048     1.0  0.95287  0.55700  0.37094  1.0000
  C   C5049     1.0  0.94761  0.54963  0.36967  1.0000
  H   H5989     1.0  0.93168  0.56728  0.35283  1.0000
  H   H5990     1.0  0.94124  0.58028  0.35483  1.0000
  H   H5991     1.0  0.95862  0.55414  0.37617  1.0000
  H   H5992     1.0  0.94951  0.54110  0.37374  1.0000
  C   C5050     1.0  0.89438  0.56274  0.32127  1.0000
  C   C5051     1.0  0.89494  0.56624  0.30994  1.0000
  C   C5052     1.0  0.89153  0.56041  0.30442  1.0000
  C   C5053     1.0  0.88727  0.55120  0.31026  1.0000
  C   C5054     1.0  0.88642  0.54787  0.32166  1.0000
  C   C5055     1.0  0.89004  0.55357  0.32716  1.0000
  H   H5993     1.0  0.89824  0.57336  0.30536  1.0000
  H   H5994     1.0  0.89216  0.56308  0.29564  1.0000
  H   H5995     1.0  0.88308  0.54081  0.32622  1.0000
  H   H5996     1.0  0.88947  0.55089  0.33593  1.0000
  H   H5997     1.0  0.79496  0.96997  0.46747  1.0000
  H   H5998     1.0  0.81425  0.94537  0.41743  1.0000
  C   C5056     1.0  0.88490  0.77207  0.46110  1.0000
  H   H5999     1.0  0.97673  0.94903  0.47643  1.0000
  C   C5057     1.0  0.89954  0.50444  0.34938  1.0000
  C   C5058     1.0  0.89564  0.50085  0.36064  1.0000
  C   C5059     1.0  0.89245  0.50828  0.36760  1.0000
  C   C5060     1.0  0.89317  0.51929  0.36331  1.0000
  C   C5061     1.0  0.89675  0.52291  0.35199  1.0000
  C   C5062     1.0  0.90001  0.51549  0.34506  1.0000
  H   H6000     1.0  0.89518  0.49234  0.36400  1.0000
  H   H6001     1.0  0.88955  0.50546  0.37634  1.0000
  H   H6002     1.0  0.89691  0.53145  0.34854  1.0000
  H   H6003     1.0  0.90280  0.51833  0.33631  1.0000
  Fe  Fe691     1.0  0.97174  0.89255  0.44778  1.0000
  N   N332      1.0  0.92967  0.60934  0.38322  1.0000
  C   C5063     1.0  0.92362  0.61974  0.37744  1.0000
  C   C5064     1.0  0.92724  0.60012  0.38034  1.0000
  C   C5065     1.0  0.92548  0.60835  0.39521  1.0000
  C   C5066     1.0  0.94134  0.60946  0.38032  1.0000
  C   C5067     1.0  0.94502  0.61734  0.38319  1.0000
  C   C5068     1.0  0.94931  0.60203  0.37446  1.0000
  C   C5069     1.0  0.95601  0.61754  0.38059  1.0000
  C   C5070     1.0  0.96028  0.60226  0.37194  1.0000
  C   C5071     1.0  0.96364  0.60997  0.37503  1.0000
  H   H6004     1.0  0.91482  0.61982  0.37922  1.0000
  H   H6005     1.0  0.92422  0.62698  0.38000  1.0000
  H   H6006     1.0  0.92675  0.62098  0.36838  1.0000
  H   H6007     1.0  0.92946  0.60067  0.37131  1.0000
  H   H6008     1.0  0.91844  0.60003  0.38304  1.0000
  H   H6009     1.0  0.93154  0.59202  0.38447  1.0000
  H   H6010     1.0  0.92603  0.61540  0.39807  1.0000
  H   H6011     1.0  0.91680  0.60799  0.39765  1.0000
  H   H6012     1.0  0.92994  0.60078  0.39993  1.0000
  H   H6013     1.0  0.93942  0.62342  0.38746  1.0000
  H   H6014     1.0  0.94726  0.59593  0.37173  1.0000
  H   H6015     1.0  0.95862  0.62359  0.38293  1.0000
  H   H6016     1.0  0.96620  0.59638  0.36754  1.0000
  H   H6017     1.0  0.97216  0.61012  0.37302  1.0000
  H   H6018     1.0  0.94586  0.66740  0.45367  1.0000
  S   S1381     1.0  0.97563  0.71658  0.45375  1.0000
  H   H6019     1.0  0.82640  0.94182  0.42249  1.0000
  C   C5072     1.0  0.98033  0.85961  0.48420  1.0000
  H   H6020     1.0  0.94416  0.92114  0.41736  1.0000
  N   N333      1.0  0.93006  0.73165  0.45684  1.0000
  C   C5073     1.0  0.92602  0.72437  0.46737  1.0000
  C   C5074     1.0  0.92824  0.72791  0.44783  1.0000
  H   H6021     1.0  0.96077  0.92053  0.40323  1.0000
  C   C5075     1.0  0.92456  0.74320  0.45718  1.0000
  C   C5076     1.0  0.91771  0.74978  0.44995  1.0000
  C   C5077     1.0  0.92598  0.74822  0.46493  1.0000
  C   C5078     1.0  0.91267  0.76065  0.45049  1.0000
  C   C5079     1.0  0.92098  0.75915  0.46529  1.0000
  C   C5080     1.0  0.91426  0.76531  0.45815  1.0000
  H   H6022     1.0  0.85354  0.92407  0.45749  1.0000
  H   H6023     1.0  0.92143  0.78532  0.47451  1.0000
  H   H6024     1.0  0.90290  0.66982  0.47710  1.0000
  H   H6025     1.0  0.93252  0.71928  0.44768  1.0000
  S   S1382     1.0  0.79011  0.95041  0.42753  1.0000
  H   H6026     1.0  0.94426  0.86470  0.47836  1.0000
  H   H6027     1.0  0.97043  0.57625  0.23886  1.0000
  N   N334      1.0  0.89500  0.69007  0.48365  1.0000
  H   H6028     1.0  0.94163  0.70581  0.39352  1.0000
  H   H6029     1.0  0.91606  0.74675  0.44380  1.0000
  H   H6030     1.0  0.92612  0.49767  0.29183  1.0000
  H   H6031     1.0  0.90751  0.76554  0.44488  1.0000
  C   C5081     1.0  0.93030  0.60466  0.48222  1.0000
  C   C5082     1.0  0.82992  0.94838  0.48283  1.0000
  Fe  Fe692     1.0  0.97508  0.72294  0.43603  1.0000
  C   C5083     1.0  0.93827  0.68510  0.40638  1.0000
  C   C5084     1.0  0.93286  0.51941  0.38125  1.0000
  C   C5085     1.0  0.83717  0.91089  0.41691  1.0000
  C   C5086     1.0  0.95732  0.56394  0.25302  1.0000
  H   H6032     1.0  0.96003  0.58820  0.23527  1.0000
  H   H6033     1.0  0.91207  0.51658  0.38483  1.0000
  C   C5087     1.0  0.88042  0.90327  0.47692  1.0000
  S   S1383     1.0  0.97249  0.74089  0.42778  1.0000
  H   H6034     1.0  0.91953  0.72819  0.44873  1.0000
  H   H6035     1.0  0.96508  0.55857  0.24976  1.0000
  H   H6036     1.0  0.86149  0.92469  0.40988  1.0000
  Fe  Fe693     1.0  0.96363  0.81711  0.44223  1.0000
  H   H6037     1.0  0.96814  0.54451  0.23710  1.0000
  H   H6038     1.0  0.95482  0.54462  0.34553  1.0000
  C   C5088     1.0  0.94139  0.52072  0.38481  1.0000
  H   H6039     1.0  0.93406  0.49986  0.36044  1.0000
  H   H6040     1.0  0.93241  0.69179  0.40283  1.0000
  S   S1384     1.0  0.79261  0.96426  0.44878  1.0000
  C   C5089     1.0  0.95783  0.85398  0.43754  1.0000
  H   H6041     1.0  0.89192  0.83254  0.47603  1.0000
  H   H6042     1.0  0.87461  0.49192  0.31744  1.0000
  N   N335      1.0  0.92525  0.54080  0.31392  1.0000
  H   H6043     1.0  0.95414  0.85479  0.44618  1.0000
  N   N336      1.0  0.93068  0.83899  0.40879  1.0000
  C   C5090     1.0  0.93811  0.83154  0.40173  1.0000
  C   C5091     1.0  0.93217  0.83412  0.42018  1.0000
  C   C5092     1.0  0.93250  0.85031  0.40536  1.0000
  C   C5093     1.0  0.94081  0.85361  0.39632  1.0000
  C   C5094     1.0  0.92570  0.85849  0.41106  1.0000
  C   C5095     1.0  0.94206  0.86447  0.39314  1.0000
  C   C5096     1.0  0.92704  0.86930  0.40780  1.0000
  C   C5097     1.0  0.93518  0.87229  0.39886  1.0000
  H   H6044     1.0  0.94672  0.83042  0.40204  1.0000
  H   H6045     1.0  0.93630  0.82322  0.40446  1.0000
  H   H6046     1.0  0.93732  0.83452  0.39303  1.0000
  H   H6047     1.0  0.92671  0.83904  0.42613  1.0000
  H   H6048     1.0  0.94062  0.83341  0.42073  1.0000
  H   H6049     1.0  0.93049  0.82572  0.42319  1.0000
  H   H6050     1.0  0.91922  0.85661  0.41804  1.0000
  H   H6051     1.0  0.92165  0.87547  0.41214  1.0000
  H   H6052     1.0  0.93609  0.88072  0.39631  1.0000
  H   H6053     1.0  0.96569  0.58896  0.39688  1.0000
  Fe  Fe694     1.0  0.80532  0.97402  0.44019  1.0000
  N   N337      1.0  0.92488  0.50955  0.37245  1.0000
  N   N338      1.0  0.95033  0.86000  0.43014  1.0000
  H   H6054     1.0  0.93461  0.85973  0.42852  1.0000
  H   H6055     1.0  0.96335  0.67596  0.43338  1.0000
  H   H6056     1.0  0.95555  0.84102  0.42263  1.0000
  N   N339      1.0  0.97798  0.92984  0.40081  1.0000
  C   C5098     1.0  0.94057  0.68503  0.47374  1.0000
  C   C5099     1.0  0.96121  0.81209  0.38970  1.0000
  H   H6057     1.0  0.97269  0.58681  0.41234  1.0000
  H   H6058     1.0  0.94628  0.79119  0.45902  1.0000
  H   H6059     1.0  0.92994  0.71558  0.46745  1.0000
  H   H6060     1.0  0.94205  0.52011  0.33666  1.0000
  H   H6061     1.0  0.86460  0.90454  0.41322  1.0000
  C   C5100     1.0  0.85645  0.90951  0.41355  1.0000
  H   H6062     1.0  0.93128  0.73293  0.43962  1.0000
  H   H6063     1.0  0.95794  0.51445  0.38621  1.0000
  H   H6064     1.0  0.91560  0.51871  0.36026  1.0000
  H   H6065     1.0  0.84341  0.93602  0.41148  1.0000
  S   S1385     1.0  0.97029  0.90672  0.43338  1.0000
  Fe  Fe695     1.0  0.80068  0.95406  0.43631  1.0000
  H   H6066     1.0  0.92533  0.87026  0.47772  1.0000
  H   H6067     1.0  0.96951  0.74093  0.45088  1.0000
  C   C5101     1.0  0.90989  0.86384  0.46771  1.0000
  C   C5102     1.0  0.91511  0.85282  0.46956  1.0000
  H   H6068     1.0  0.95638  0.69406  0.42129  1.0000
  C   C5103     1.0  0.87926  0.70718  0.41511  1.0000
  H   H6069     1.0  0.93707  0.57505  0.25202  1.0000
  C   C5104     1.0  0.94335  0.58000  0.24886  1.0000
  C   C5105     1.0  0.85467  0.92087  0.41170  1.0000
  H   H6070     1.0  0.94379  0.71490  0.40041  1.0000
  H   H6071     1.0  0.82886  0.96997  0.46486  1.0000
  H   H6072     1.0  0.94028  0.52759  0.38848  1.0000
  C   C5106     1.0  0.95976  0.86682  0.41032  1.0000
  S   S1386     1.0  0.97976  0.54984  0.36293  1.0000
  C   C5107     1.0  0.94188  0.70676  0.40169  1.0000
  H   H6073     1.0  0.93584  0.85722  0.44246  1.0000
  H   H6074     1.0  0.93575  0.83807  0.46769  1.0000
  S   S1387     1.0  0.98557  0.55965  0.25072  1.0000
  H   H6075     1.0  0.91794  0.84312  0.40001  1.0000
  H   H6076     1.0  0.87739  0.92695  0.46431  1.0000
  H   H6077     1.0  0.91330  0.84385  0.41416  1.0000
  H   H6078     1.0  0.94647  0.84797  0.39156  1.0000
  C   C5108     1.0  0.94024  0.85575  0.43416  1.0000
  C   C5109     1.0  0.95236  0.83266  0.46012  1.0000
  C   C5110     1.0  0.96792  0.93013  0.40954  1.0000
  C   C5111     1.0  0.96068  0.69793  0.39927  1.0000
  H   H6079     1.0  0.96636  0.58873  0.48028  1.0000
  N   N340      1.0  0.94990  0.69768  0.40678  1.0000
  C   C5112     1.0  0.82285  0.94076  0.41611  1.0000
  H   H6080     1.0  0.94080  0.56087  0.24396  1.0000
  S   S1388     1.0  0.97276  0.81487  0.40284  1.0000
  H   H6081     1.0  0.92928  0.52059  0.35701  1.0000
  C   C5113     1.0  0.97018  0.91009  0.46172  1.0000
  H   H6082     1.0  0.98491  0.53453  0.40792  1.0000
  H   H6083     1.0  0.89624  0.66648  0.44834  1.0000
  S   S1389     1.0  0.97607  0.92607  0.48109  1.0000
  H   H6084     1.0  0.97182  0.67623  0.44178  1.0000
  C   C5114     1.0  0.95798  0.58680  0.40103  1.0000
  C   C5115     1.0  0.79308  0.97786  0.48047  1.0000
  Fe  Fe696     1.0  0.97911  0.70005  0.43182  1.0000
  H   H6085     1.0  0.89466  0.65735  0.46135  1.0000
  H   H6086     1.0  0.90291  0.66715  0.45847  1.0000
  H   H6087     1.0  0.96580  0.83776  0.40462  1.0000
  S   S1390     1.0  0.98033  0.69176  0.44918  1.0000
  C   C5116     1.0  0.96749  0.65592  0.48140  1.0000
  H   H6088     1.0  0.82304  0.94710  0.47025  1.0000
  H   H6089     1.0  0.92811  0.88243  0.46794  1.0000
  H   H6090     1.0  0.94212  0.52078  0.25707  1.0000
  C   C5117     1.0  0.91471  0.79153  0.47190  1.0000
  H   H6091     1.0  0.85638  0.74086  0.42675  1.0000
  C   C5118     1.0  0.90066  0.66150  0.45489  1.0000
  H   H6092     1.0  0.83860  0.98251  0.44980  1.0000
  C   C5119     1.0  0.87501  0.73869  0.43248  1.0000
  C   C5120     1.0  0.86977  0.93112  0.46925  1.0000
  H   H6093     1.0  0.87061  0.93730  0.44787  1.0000
  C   C5121     1.0  0.79546  0.96877  0.47588  1.0000
  H   H6094     1.0  0.85711  0.91736  0.47047  1.0000
  C   C5122     1.0  0.87605  0.49993  0.31204  1.0000
  H   H6095     1.0  0.87882  0.49851  0.30353  1.0000
  H   H6096     1.0  0.89178  0.53658  0.23750  1.0000
  C   C5123     1.0  0.98388  0.51693  0.38148  1.0000
  H   H6097     1.0  0.97373  0.86771  0.46549  1.0000
  H   H6098     1.0  0.88616  0.76668  0.45560  1.0000
  C   C5124     1.0  0.90625  0.79627  0.47967  1.0000
  Fe  Fe697     1.0  0.97182  0.62724  0.43762  1.0000
  H   H6099     1.0  0.87760  0.79910  0.46154  1.0000
  H   H6100     1.0  0.96577  0.64322  0.46274  1.0000
  C   C5125     1.0  0.88679  0.51351  0.30620  1.0000
  C   C5126     1.0  0.87637  0.49833  0.33530  1.0000
  S   S1391     1.0  0.97592  0.60942  0.43745  1.0000
  C   C5127     1.0  0.96864  0.51631  0.32399  1.0000
  N   N341      1.0  0.88408  0.50395  0.31504  1.0000
  C   C5128     1.0  0.93006  0.48909  0.31449  1.0000
  H   H6101     1.0  0.91031  0.77376  0.45849  1.0000
  H   H6102     1.0  0.93233  0.65076  0.45098  1.0000
  H   H6103     1.0  0.96115  0.78706  0.46805  1.0000
  C   C5129     1.0  0.94443  0.87316  0.47837  1.0000
  C   C5130     1.0  0.86293  0.94094  0.45314  1.0000
  C   C5131     1.0  0.93139  0.60736  0.47086  1.0000
  C   C5132     1.0  0.89088  0.49593  0.26231  1.0000
  S   S1392     1.0  0.81697  0.96391  0.45077  1.0000
  C   C5133     1.0  0.89409  0.49522  0.31524  1.0000
  C   C5134     1.0  0.87975  0.50651  0.32609  1.0000
  H   H6104     1.0  0.86774  0.86607  0.47376  1.0000
  H   H6105     1.0  0.92014  0.49914  0.36505  1.0000
  N   N342      1.0  0.95413  0.57358  0.24436  1.0000
  H   H6106     1.0  0.88063  0.79194  0.47999  1.0000
  H   H6107     1.0  0.88641  0.68327  0.47625  1.0000
  C   C5135     1.0  0.87908  0.51690  0.32813  1.0000
  H   H6108     1.0  0.94630  0.72169  0.45465  1.0000
  H   H6109     1.0  0.90341  0.52713  0.24175  1.0000
  C   C5136     1.0  0.81714  0.92455  0.42760  1.0000
  C   C5137     1.0  0.85007  0.93862  0.47060  1.0000
  C   C5138     1.0  0.93950  0.52659  0.24968  1.0000
  C   C5139     1.0  0.93290  0.63968  0.46633  1.0000
  C   C5140     1.0  0.94437  0.57754  0.40116  1.0000
  C   C5141     1.0  0.87543  0.51881  0.33878  1.0000
  H   H6110     1.0  0.88144  0.52366  0.32168  1.0000
  S   S1393     1.0  0.98441  0.52888  0.29635  1.0000
  H   H6111     1.0  0.95559  0.93846  0.43383  1.0000
  C   C5142     1.0  0.87227  0.58489  0.33080  1.0000
  H   H6112     1.0  0.88685  0.69734  0.47019  1.0000
  H   H6113     1.0  0.86813  0.50593  0.31259  1.0000
  H   H6114     1.0  0.93985  0.84569  0.48107  1.0000
  H   H6115     1.0  0.87519  0.52668  0.34024  1.0000
  H   H6116     1.0  0.96259  0.70619  0.39718  1.0000
  H   H6117     1.0  0.87190  0.57801  0.31765  1.0000
  C   C5143     1.0  0.95306  0.76762  0.41709  1.0000
  H   H6118     1.0  0.94381  0.77094  0.44766  1.0000
  H   H6119     1.0  0.86010  0.59201  0.36159  1.0000
  H   H6120     1.0  0.95120  0.65337  0.45308  1.0000
  C   C5144     1.0  0.91626  0.64733  0.45930  1.0000
  C   C5145     1.0  0.95003  0.70002  0.41728  1.0000
  H   H6121     1.0  0.98476  0.87762  0.46905  1.0000
  C   C5146     1.0  0.98074  0.86056  0.46538  1.0000
  H   H6122     1.0  0.90287  0.65032  0.43939  1.0000
  H   H6123     1.0  0.94312  0.68234  0.48142  1.0000
  H   H6124     1.0  0.88093  0.69896  0.41372  1.0000
  C   C5147     1.0  0.96723  0.52279  0.25887  1.0000
  C   C5148     1.0  0.87558  0.72850  0.41904  1.0000
  C   C5149     1.0  0.86772  0.60360  0.34178  1.0000
  H   H6125     1.0  0.96497  0.58202  0.42571  1.0000
  C   C5150     1.0  0.87273  0.50034  0.34590  1.0000
  H   H6126     1.0  0.95848  0.89874  0.39110  1.0000
  H   H6127     1.0  0.97235  0.92613  0.38837  1.0000
  H   H6128     1.0  0.95896  0.74868  0.41011  1.0000
  H   H6129     1.0  0.93375  0.52389  0.31515  1.0000
  H   H6130     1.0  0.87460  0.74682  0.43400  1.0000
  H   H6131     1.0  0.87680  0.59071  0.32512  1.0000
  H   H6132     1.0  0.95504  0.51197  0.32160  1.0000
  H   H6133     1.0  0.97427  0.51290  0.31729  1.0000
  H   H6134     1.0  0.91228  0.54602  0.32711  1.0000
  S   S1394     1.0  0.97448  0.87970  0.43826  1.0000
  C   C5151     1.0  0.98062  0.52973  0.34327  1.0000
  H   H6135     1.0  0.93465  0.53201  0.30128  1.0000
  C   C5152     1.0  0.97221  0.75650  0.45101  1.0000
  H   H6136     1.0  0.92253  0.52769  0.30854  1.0000
  N   N343      1.0  0.87361  0.73954  0.42129  1.0000
  H   H6137     1.0  0.96825  0.51711  0.35936  1.0000
  H   H6138     1.0  0.93246  0.69396  0.44562  1.0000
  H   H6139     1.0  0.96376  0.61866  0.47292  1.0000
  H   H6140     1.0  0.98086  0.67235  0.41040  1.0000
  C   C5153     1.0  0.95471  0.89788  0.40851  1.0000
  S   S1395     1.0  0.97666  0.80585  0.45039  1.0000
  H   H6141     1.0  0.95948  0.52176  0.23686  1.0000
  H   H6142     1.0  0.94840  0.86686  0.38619  1.0000
  H   H6143     1.0  0.97220  0.93837  0.41986  1.0000
  C   C5154     1.0  0.88007  0.85536  0.45968  1.0000
  S   S1396     1.0  0.94905  0.82781  0.45051  1.0000
  H   H6144     1.0  0.91808  0.83785  0.48172  1.0000
  H   H6145     1.0  0.95628  0.52797  0.36052  1.0000
  H   H6146     1.0  0.96997  0.64711  0.44463  1.0000
  H   H6147     1.0  0.92239  0.76293  0.47106  1.0000
  H   H6148     1.0  0.92539  0.52554  0.38221  1.0000
  H   H6149     1.0  0.91335  0.54721  0.30389  1.0000
  H   H6150     1.0  0.92599  0.55137  0.29782  1.0000
  H   H6151     1.0  0.91294  0.49755  0.28202  1.0000
  C   C5155     1.0  0.95407  0.52536  0.34104  1.0000
  H   H6152     1.0  0.89661  0.83900  0.46213  1.0000
  C   C5156     1.0  0.84320  0.92578  0.43972  1.0000
  S   S1397     1.0  0.80064  0.94698  0.47640  1.0000
  H   H6153     1.0  0.94793  0.53435  0.30721  1.0000
  H   H6154     1.0  0.96213  0.58344  0.24901  1.0000
  H   H6155     1.0  0.94418  0.73176  0.46225  1.0000
  C   C5157     1.0  0.86414  0.56959  0.33333  1.0000
  H   H6156     1.0  0.85727  0.56248  0.34999  1.0000
  N   N344      1.0  0.96870  0.53104  0.34570  1.0000
  H   H6157     1.0  0.87610  0.82969  0.47198  1.0000
  C   C5158     1.0  0.90693  0.64601  0.44637  1.0000
  N   N345      1.0  0.96314  0.66324  0.44821  1.0000
  C   C5159     1.0  0.92007  0.54954  0.30571  1.0000
  H   H6158     1.0  0.96058  0.49890  0.37759  1.0000
  H   H6159     1.0  0.98315  0.53337  0.34870  1.0000
  H   H6160     1.0  0.92314  0.53519  0.23769  1.0000
  C   C5160     1.0  0.94749  0.68671  0.40886  1.0000
  H   H6161     1.0  0.94529  0.73582  0.44764  1.0000
  H   H6162     1.0  0.96406  0.67767  0.46040  1.0000
  H   H6163     1.0  0.92288  0.55698  0.32491  1.0000
  C   C5161     1.0  0.88144  0.78333  0.45752  1.0000
  C   C5162     1.0  0.96392  0.84594  0.40616  1.0000
  H   H6164     1.0  0.90108  0.64160  0.45278  1.0000
  C   C5163     1.0  0.95237  0.66672  0.41573  1.0000
  H   H6165     1.0  0.97961  0.65542  0.44217  1.0000
  H   H6166     1.0  0.84025  0.93910  0.45936  1.0000
  H   H6167     1.0  0.96253  0.52037  0.26710  1.0000
  H   H6168     1.0  0.97037  0.75503  0.45988  1.0000
  H   H6169     1.0  0.97618  0.79053  0.47101  1.0000
  C   C5164     1.0  0.92749  0.64648  0.45819  1.0000
  C   C5165     1.0  0.95051  0.52037  0.33488  1.0000
  H   H6170     1.0  0.97018  0.59422  0.42276  1.0000
  S   S1398     1.0  0.84141  0.94819  0.43229  1.0000
  C   C5166     1.0  0.97039  0.53634  0.24203  1.0000
  C   C5167     1.0  0.96619  0.93489  0.41868  1.0000
  S   S1399     1.0  0.95108  0.49333  0.26458  1.0000
  C   C5168     1.0  0.86905  0.59067  0.35883  1.0000
  H   H6171     1.0  0.93360  0.70728  0.40707  1.0000
  C   C5169     1.0  0.91688  0.53850  0.32412  1.0000
  H   H6172     1.0  0.91666  0.55736  0.30857  1.0000
  H   H6173     1.0  0.96150  0.54192  0.31002  1.0000
  C   C5170     1.0  0.95780  0.51581  0.32640  1.0000
  C   C5171     1.0  0.96506  0.66914  0.46454  1.0000
  H   H6174     1.0  0.93058  0.52931  0.25235  1.0000
  C   C5172     1.0  0.90125  0.90453  0.47695  1.0000
  C   C5173     1.0  0.93388  0.54462  0.31609  1.0000
  H   H6175     1.0  0.92053  0.53260  0.33083  1.0000
  C   C5174     1.0  0.96228  0.77455  0.39786  1.0000
  H   H6176     1.0  0.94055  0.77587  0.40267  1.0000
  H   H6177     1.0  0.81046  0.93322  0.40866  1.0000
  H   H6178     1.0  0.92900  0.67363  0.40685  1.0000
  H   H6179     1.0  0.85651  0.94278  0.44848  1.0000
  H   H6180     1.0  0.86837  0.92557  0.47753  1.0000
  H   H6181     1.0  0.81868  0.91975  0.40835  1.0000
  C   C5175     1.0  0.95301  0.54492  0.31347  1.0000
  H   H6182     1.0  0.98476  0.52091  0.34449  1.0000
  C   C5176     1.0  0.97229  0.52126  0.33011  1.0000
  H   H6183     1.0  0.92001  0.66596  0.44346  1.0000
  C   C5177     1.0  0.86751  0.85909  0.48062  1.0000
  C   C5178     1.0  0.93701  0.80448  0.46679  1.0000
  H   H6184     1.0  0.97783  0.92342  0.45945  1.0000
  H   H6185     1.0  0.97104  0.60003  0.47032  1.0000
  H   H6186     1.0  0.90969  0.69509  0.47414  1.0000
  C   C5179     1.0  0.96512  0.52579  0.33898  1.0000
  C   C5180     1.0  0.91704  0.66004  0.44093  1.0000
  H   H6187     1.0  0.94317  0.53382  0.24774  1.0000
  C   C5181     1.0  0.96380  0.54295  0.34358  1.0000
  C   C5182     1.0  0.93120  0.55315  0.32187  1.0000
  Fe  Fe698     1.0  0.96599  0.70494  0.45368  1.0000
  C   C5183     1.0  0.96522  0.52619  0.35757  1.0000
  Fe  Fe699     1.0  0.97596  0.79361  0.44155  1.0000
  C   C5184     1.0  0.94145  0.89991  0.39795  1.0000
  H   H6188     1.0  0.96610  0.54721  0.34863  1.0000
  H   H6189     1.0  0.90233  0.64149  0.47059  1.0000
  S   S1400     1.0  0.89674  0.73622  0.48051  1.0000
  H   H6190     1.0  0.87243  0.90249  0.47706  1.0000
  C   C5185     1.0  0.92581  0.87885  0.47691  1.0000
  C   C5186     1.0  0.96315  0.83183  0.46019  1.0000
  H   H6191     1.0  0.89920  0.87701  0.47433  1.0000
  S   S1401     1.0  0.98209  0.63236  0.42106  1.0000
  H   H6192     1.0  0.95182  0.81005  0.37949  1.0000
  H   H6193     1.0  0.94295  0.49276  0.29446  1.0000
  C   C5187     1.0  0.93617  0.67463  0.40868  1.0000
  C   C5188     1.0  0.83503  0.92247  0.41545  1.0000
  H   H6194     1.0  0.83451  0.92751  0.44255  1.0000
  H   H6195     1.0  0.96836  0.52951  0.36281  1.0000
  H   H6196     1.0  0.89799  0.70616  0.47542  1.0000
  C   C5189     1.0  0.94644  0.89817  0.41802  1.0000
  H   H6197     1.0  0.94835  0.89755  0.42577  1.0000
  H   H6198     1.0  0.94152  0.63887  0.46517  1.0000
  H   H6199     1.0  0.93101  0.74375  0.47074  1.0000
  C   C5190     1.0  0.94593  0.79597  0.46480  1.0000
  H   H6200     1.0  0.91231  0.66492  0.43461  1.0000
  H   H6201     1.0  0.98374  0.53398  0.33474  1.0000
  H   H6202     1.0  0.97229  0.91014  0.45308  1.0000
  H   H6203     1.0  0.92924  0.49200  0.37394  1.0000
  H   H6204     1.0  0.83069  0.90664  0.41884  1.0000
  C   C5191     1.0  0.95284  0.80866  0.38778  1.0000
  H   H6205     1.0  0.93920  0.75627  0.44248  1.0000
  S   S1402     1.0  0.96173  0.80440  0.43492  1.0000
  H   H6206     1.0  0.93961  0.90060  0.39015  1.0000
  H   H6207     1.0  0.90929  0.90499  0.47699  1.0000
  C   C5192     1.0  0.97326  0.91770  0.46533  1.0000
  H   H6208     1.0  0.87138  0.93875  0.47012  1.0000
  C   C5193     1.0  0.95797  0.84792  0.41644  1.0000
  N   N346      1.0  0.82374  0.92897  0.41676  1.0000
  C   C5194     1.0  0.94430  0.50317  0.37509  1.0000
  C   C5195     1.0  0.79824  0.95825  0.48220  1.0000
  C   C5196     1.0  0.93402  0.51057  0.37632  1.0000
  H   H6209     1.0  0.94485  0.75395  0.42354  1.0000
  H   H6210     1.0  0.95413  0.78361  0.43365  1.0000
  C   C5197     1.0  0.96495  0.66081  0.45947  1.0000
  H   H6211     1.0  0.89784  0.49322  0.30704  1.0000
  H   H6212     1.0  0.96738  0.69220  0.40297  1.0000
  H   H6213     1.0  0.86861  0.73534  0.43914  1.0000
  C   C5198     1.0  0.97125  0.65560  0.44176  1.0000
  H   H6214     1.0  0.97512  0.56609  0.32379  1.0000
  H   H6215     1.0  0.94794  0.76776  0.39276  1.0000
  H   H6216     1.0  0.94160  0.76133  0.40618  1.0000
  H   H6217     1.0  0.87163  0.59648  0.36194  1.0000
  C   C5199     1.0  0.84031  0.94092  0.46697  1.0000
  H   H6218     1.0  0.88042  0.83570  0.45785  1.0000
  H   H6219     1.0  0.94175  0.84675  0.43509  1.0000
  C   C5200     1.0  0.94191  0.69644  0.45539  1.0000
  Fe  Fe700     1.0  0.97480  0.89386  0.42358  1.0000
  H   H6220     1.0  0.96964  0.82819  0.45420  1.0000
  C   C5201     1.0  0.89471  0.73292  0.46149  1.0000
  H   H6221     1.0  0.95744  0.78306  0.39761  1.0000
  Fe  Fe701     1.0  0.97417  0.81077  0.42051  1.0000
  H   H6222     1.0  0.88836  0.71347  0.39919  1.0000
  H   H6223     1.0  0.86705  0.84094  0.46529  1.0000
  H   H6224     1.0  0.93944  0.50736  0.23670  1.0000
  C   C5202     1.0  0.94994  0.60853  0.46843  1.0000
  H   H6225     1.0  0.95730  0.68082  0.44563  1.0000
  C   C5203     1.0  0.95214  0.89889  0.39849  1.0000
  C   C5204     1.0  0.94708  0.76049  0.42540  1.0000
  S   S1403     1.0  0.96392  0.71246  0.43646  1.0000
  H   H6226     1.0  0.86950  0.60964  0.34527  1.0000
  H   H6227     1.0  0.96018  0.84506  0.43764  1.0000
  H   H6228     1.0  0.95593  0.50994  0.24668  1.0000
  H   H6229     1.0  0.96664  0.81617  0.38288  1.0000
  H   H6230     1.0  0.92760  0.72624  0.47454  1.0000
  H   H6231     1.0  0.94272  0.87275  0.43932  1.0000
  H   H6232     1.0  0.96548  0.85701  0.43484  1.0000
  N   N347      1.0  0.95609  0.76644  0.40553  1.0000
  C   C5205     1.0  0.94382  0.76169  0.43629  1.0000
  H   H6233     1.0  0.88519  0.73183  0.40210  1.0000
  H   H6234     1.0  0.80887  0.92987  0.42929  1.0000
  H   H6235     1.0  0.85876  0.60484  0.34332  1.0000
  H   H6236     1.0  0.88791  0.59270  0.33482  1.0000
  H   H6237     1.0  0.87273  0.58235  0.36312  1.0000
  H   H6238     1.0  0.96997  0.77386  0.40021  1.0000
  C   C5206     1.0  0.83040  0.94562  0.47308  1.0000
  C   C5207     1.0  0.84772  0.90453  0.41608  1.0000
  H   H6239     1.0  0.86093  0.74618  0.41235  1.0000
  H   H6240     1.0  0.94201  0.87667  0.42514  1.0000
  H   H6241     1.0  0.97000  0.78098  0.48241  1.0000
  H   H6242     1.0  0.98506  0.49904  0.23970  1.0000
  C   C5208     1.0  0.88004  0.79031  0.46445  1.0000
  S   S1404     1.0  0.97486  0.82449  0.42741  1.0000
  H   H6243     1.0  0.96544  0.60459  0.40089  1.0000
  C   C5209     1.0  0.96293  0.75539  0.40473  1.0000
  H   H6244     1.0  0.96505  0.75411  0.39620  1.0000
  H   H6245     1.0  0.88729  0.59601  0.34751  1.0000
  C   C5210     1.0  0.88458  0.59075  0.34383  1.0000
  N   N348      1.0  0.87263  0.59216  0.34669  1.0000
  C   C5211     1.0  0.88199  0.72636  0.47787  1.0000
  C   C5212     1.0  0.86134  0.56886  0.34463  1.0000
  H   H6246     1.0  0.92408  0.65455  0.43667  1.0000
  H   H6247     1.0  0.89872  0.68709  0.46736  1.0000
  C   C5213     1.0  0.87565  0.83767  0.46591  1.0000
  C   C5214     1.0  0.87771  0.72208  0.47164  1.0000
  H   H6248     1.0  0.88969  0.74201  0.41312  1.0000
  C   C5215     1.0  0.96392  0.67456  0.44203  1.0000
  H   H6249     1.0  0.86967  0.70315  0.43144  1.0000
  C   C5216     1.0  0.86956  0.58440  0.34228  1.0000
  H   H6250     1.0  0.87084  0.60579  0.33275  1.0000
  H   H6251     1.0  0.86161  0.57502  0.35793  1.0000
  S   S1405     1.0  0.81192  0.94198  0.44649  1.0000
  H   H6252     1.0  0.97048  0.81075  0.47112  1.0000
  H   H6253     1.0  0.88501  0.85309  0.45187  1.0000
  C   C5217     1.0  0.95450  0.67717  0.41354  1.0000
  H   H6254     1.0  0.94212  0.69987  0.42321  1.0000
  C   C5218     1.0  0.94318  0.66547  0.41335  1.0000
  C   C5219     1.0  0.95024  0.92514  0.41764  1.0000
  C   C5220     1.0  0.94193  0.73022  0.45528  1.0000
  C   C5221     1.0  0.95558  0.77598  0.42040  1.0000
  H   H6255     1.0  0.86602  0.72141  0.43487  1.0000
  H   H6256     1.0  0.88858  0.58215  0.34691  1.0000
  H   H6257     1.0  0.87676  0.49020  0.33440  1.0000
  Fe  Fe702     1.0  0.80487  0.95324  0.45817  1.0000
  H   H6258     1.0  0.86048  0.75374  0.42221  1.0000
  H   H6259     1.0  0.96881  0.87128  0.39376  1.0000
  H   H6260     1.0  0.96114  0.69569  0.39147  1.0000
  H   H6261     1.0  0.87955  0.74873  0.40499  1.0000
  H   H6262     1.0  0.81590  0.91630  0.42821  1.0000
  Fe  Fe703     1.0  0.82328  0.95338  0.43828  1.0000
  C   C5222     1.0  0.92210  0.51935  0.36380  1.0000
  C   C5223     1.0  0.95554  0.80493  0.40916  1.0000
  C   C5224     1.0  0.90306  0.86843  0.47643  1.0000
  H   H6263     1.0  0.94810  0.52897  0.34739  1.0000
  H   H6264     1.0  0.82697  0.94490  0.40790  1.0000
  C   C5225     1.0  0.87298  0.70954  0.42509  1.0000
  C   C5226     1.0  0.86392  0.57616  0.34910  1.0000
  C   C5227     1.0  0.93652  0.81069  0.47413  1.0000
  H   H6265     1.0  0.88295  0.73331  0.43373  1.0000
  C   C5228     1.0  0.94870  0.59980  0.42593  1.0000
  H   H6266     1.0  0.95659  0.80323  0.41736  1.0000
  H   H6267     1.0  0.93718  0.58810  0.42375  1.0000
  C   C5229     1.0  0.93464  0.69149  0.45351  1.0000
  C   C5230     1.0  0.88106  0.74637  0.41342  1.0000
  H   H6268     1.0  0.88007  0.75426  0.41579  1.0000
  H   H6269     1.0  0.96034  0.78160  0.41480  1.0000
  C   C5231     1.0  0.95715  0.84083  0.47555  1.0000
  C   C5232     1.0  0.91630  0.63449  0.47724  1.0000
  H   H6270     1.0  0.94151  0.65739  0.41503  1.0000
  C   C5233     1.0  0.95875  0.60636  0.40797  1.0000
  H   H6271     1.0  0.94087  0.60486  0.42394  1.0000
  C   C5234     1.0  0.94635  0.77002  0.43922  1.0000
  C   C5235     1.0  0.89059  0.73168  0.47280  1.0000
  H   H6272     1.0  0.95874  0.57861  0.38842  1.0000
  H   H6273     1.0  0.97937  0.77588  0.42827  1.0000
  H   H6274     1.0  0.97890  0.50787  0.26050  1.0000
  C   C5236     1.0  0.89118  0.84060  0.47007  1.0000
  C   C5237     1.0  0.96448  0.90249  0.46925  1.0000
  C   C5238     1.0  0.87103  0.72005  0.42700  1.0000
  H   H6275     1.0  0.96448  0.77343  0.38926  1.0000
  C   C5239     1.0  0.88347  0.71538  0.40694  1.0000
  C   C5240     1.0  0.95213  0.77719  0.43129  1.0000
  H   H6276     1.0  0.96140  0.61168  0.41164  1.0000
  C   C5241     1.0  0.97178  0.74846  0.44592  1.0000
  S   S1406     1.0  0.81264  0.96456  0.42694  1.0000
  C   C5242     1.0  0.95574  0.85841  0.41887  1.0000
  H   H6277     1.0  0.97260  0.85269  0.39013  1.0000
  H   H6278     1.0  0.93719  0.89440  0.47136  1.0000
  H   H6279     1.0  0.95152  0.61131  0.40474  1.0000
  H   H6280     1.0  0.95197  0.60498  0.42917  1.0000
  C   C5243     1.0  0.94468  0.69336  0.46560  1.0000
  H   H6281     1.0  0.97390  0.83500  0.46817  1.0000
  N   N349      1.0  0.95633  0.59628  0.41607  1.0000
  H   H6282     1.0  0.94707  0.59268  0.43278  1.0000
  C   C5244     1.0  0.94219  0.58632  0.41605  1.0000
  C   C5245     1.0  0.91527  0.50890  0.38171  1.0000
  C   C5246     1.0  0.97079  0.91764  0.47651  1.0000
  H   H6283     1.0  0.90838  0.50763  0.37919  1.0000
  H   H6284     1.0  0.95170  0.70827  0.41603  1.0000
  C   C5247     1.0  0.96645  0.58954  0.41939  1.0000
  H   H6285     1.0  0.96644  0.54691  0.33480  1.0000
  C   C5248     1.0  0.88163  0.72592  0.40878  1.0000
  C   C5249     1.0  0.96256  0.81022  0.40043  1.0000
  C   C5250     1.0  0.84415  0.92731  0.41266  1.0000
  H   H6286     1.0  0.82108  0.92389  0.43436  1.0000
  H   H6287     1.0  0.90119  0.73720  0.45750  1.0000
  C   C5251     1.0  0.94402  0.83765  0.46765  1.0000
  C   C5252     1.0  0.94639  0.84187  0.47526  1.0000
  H   H6288     1.0  0.92758  0.51619  0.24284  1.0000
  H   H6289     1.0  0.96175  0.67776  0.41542  1.0000
  S   S1407     1.0  0.95325  0.69986  0.46835  1.0000
  C   C5253     1.0  0.94728  0.87168  0.43093  1.0000
  C   C5254     1.0  0.95206  0.58989  0.41108  1.0000
  H   H6290     1.0  0.93074  0.57784  0.41492  1.0000
  H   H6291     1.0  0.88255  0.63666  0.46999  1.0000
  H   H6292     1.0  0.94530  0.70266  0.44898  1.0000
  H   H6293     1.0  0.95867  0.87501  0.41139  1.0000
  C   C5255     1.0  0.95436  0.80005  0.47741  1.0000
  H   H6294     1.0  0.88377  0.86141  0.46109  1.0000
  S   S1408     1.0  0.96155  0.89233  0.46479  1.0000
  C   C5256     1.0  0.81895  0.92831  0.40799  1.0000
  H   H6295     1.0  0.94137  0.93004  0.43274  1.0000
  H   H6296     1.0  0.84918  0.89567  0.41756  1.0000
  C   C5257     1.0  0.95361  0.56973  0.23486  1.0000
  H   H6297     1.0  0.86736  0.91859  0.45794  1.0000
  C   C5258     1.0  0.93842  0.58028  0.41110  1.0000
  C   C5259     1.0  0.86236  0.74535  0.42062  1.0000
  H   H6298     1.0  0.90714  0.60093  0.48070  1.0000
  H   H6299     1.0  0.91711  0.72524  0.46887  1.0000
  C   C5260     1.0  0.84929  0.94153  0.48062  1.0000
  C   C5261     1.0  0.98312  0.51841  0.24425  1.0000
  C   C5262     1.0  0.94506  0.80857  0.47935  1.0000
  H   H6300     1.0  0.98276  0.93350  0.38304  1.0000
  C   C5263     1.0  0.96567  0.86476  0.40006  1.0000
  H   H6301     1.0  0.98306  0.96010  0.46767  1.0000
  C   C5264     1.0  0.95280  0.50461  0.37863  1.0000
  H   H6302     1.0  0.89896  0.56776  0.23835  1.0000
  C   C5265     1.0  0.96755  0.64754  0.47665  1.0000
  C   C5266     1.0  0.97254  0.78895  0.47997  1.0000
  C   C5267     1.0  0.96157  0.90275  0.48039  1.0000
  C   C5268     1.0  0.93630  0.51273  0.24272  1.0000
  C   C5269     1.0  0.98484  0.91864  0.40256  1.0000
  H   H6303     1.0  0.81623  0.97680  0.48078  1.0000
  C   C5270     1.0  0.98256  0.49981  0.37836  1.0000
  H   H6304     1.0  0.93034  0.67342  0.47812  1.0000
  S   S1409     1.0  0.88282  0.48756  0.26174  1.0000
  C   C5271     1.0  0.89162  0.68933  0.47395  1.0000
  H   H6305     1.0  0.92960  0.81735  0.47563  1.0000
  C   C5272     1.0  0.82776  0.97840  0.46534  1.0000
  H   H6306     1.0  0.96841  0.63918  0.48145  1.0000
  H   H6307     1.0  0.89450  0.84606  0.47286  1.0000
  H   H6308     1.0  0.97267  0.86598  0.48413  1.0000
  H   H6309     1.0  0.94025  0.89226  0.48443  1.0000
  C   C5273     1.0  0.97663  0.51556  0.25492  1.0000
  H   H6310     1.0  0.95043  0.87263  0.48314  1.0000
  C   C5274     1.0  0.98440  0.93763  0.40072  1.0000
  H   H6311     1.0  0.97858  0.76172  0.41927  1.0000
  C   C5275     1.0  0.95424  0.51577  0.23897  1.0000
  H   H6312     1.0  0.87112  0.71790  0.47557  1.0000
  H   H6313     1.0  0.96611  0.67322  0.47908  1.0000
  C   C5276     1.0  0.87312  0.84824  0.47951  1.0000
  C   C5277     1.0  0.96823  0.59684  0.47926  1.0000
  H   H6314     1.0  0.97941  0.94613  0.40020  1.0000
  C   C5278     1.0  0.97977  0.52911  0.23796  1.0000
  C   C5279     1.0  0.94923  0.60547  0.47996  1.0000
  C   C5280     1.0  0.90184  0.60877  0.47834  1.0000
  S   S1410     1.0  0.98536  0.61027  0.40599  1.0000
  S   S1411     1.0  0.98028  0.52649  0.38979  1.0000
  H   H6315     1.0  0.97551  0.50520  0.39362  1.0000
  Fe  Fe704     1.0  0.98389  0.54255  0.37936  1.0000
  N   N350      1.0  0.96336  0.79806  0.48295  1.0000
  C   C5281     1.0  0.83331  0.98545  0.45692  1.0000
  C   C5282     1.0  0.91389  0.84642  0.48023  1.0000
  C   C5283     1.0  0.94627  0.56304  0.23615  1.0000
  C   C5284     1.0  0.93436  0.89119  0.48035  1.0000
  C   C5285     1.0  0.98026  0.50709  0.38533  1.0000
  H   H6316     1.0  0.98310  0.60388  0.38762  1.0000
  H   H6317     1.0  0.98593  0.83759  0.43577  1.0000
  H   H6318     1.0  0.98077  0.52143  0.32771  1.0000
  H   H6319     1.0  0.98492  0.75943  0.46725  1.0000
  S   S1412     1.0  0.97923  0.55658  0.30537  1.0000
  H   H6320     1.0  0.91752  0.88347  0.48003  1.0000
  C   C5286     1.0  0.98251  0.55982  0.32390  1.0000
  H   H6321     1.0  0.97962  0.49231  0.38129  1.0000
  H   H6322     1.0  0.82243  0.98546  0.43517  1.0000
  H   H6323     1.0  0.98550  0.86147  0.45673  1.0000
  C   C5287     1.0  0.88530  0.77456  0.47905  1.0000
  H   H6324     1.0  0.97481  0.96121  0.48105  1.0000
  H   H6325     1.0  0.88960  0.75896  0.47399  1.0000
  N   N351      1.0  0.93362  0.87951  0.48284  1.0000
  C   C5288     1.0  0.96474  0.91032  0.48401  1.0000
  Fe  Fe705     1.0  0.98401  0.54689  0.29215  1.0000
  C   C5289     1.0  0.90205  0.69810  0.47985  1.0000
  H   H6326     1.0  0.93161  0.62817  0.48190  1.0000
  C   C5290     1.0  0.96132  0.61539  0.48192  1.0000
  H   H6327     1.0  0.92637  0.89664  0.48286  1.0000
  H   H6328     1.0  0.85622  0.94014  0.48411  1.0000
  H   H6329     1.0  0.98434  0.61510  0.46936  1.0000
  H   H6330     1.0  0.98526  0.56314  0.33815  1.0000
  H   H6331     1.0  0.97920  0.78784  0.48413  1.0000
  C   C5291     1.0  0.98605  0.66970  0.41619  1.0000
  H   H6332     1.0  0.97537  0.59534  0.48288  1.0000
  C   C5292     1.0  0.91556  0.49030  0.28802  1.0000
  H   H6333     1.0  0.98594  0.72145  0.48114  1.0000
  C   C5293     1.0  0.92315  0.49026  0.29368  1.0000
  H   H6334     1.0  0.90524  0.48765  0.25252  1.0000
  N   N352      1.0  0.95873  0.60445  0.48442  1.0000
  H   H6335     1.0  0.91193  0.62982  0.48462  1.0000
  H   H6336     1.0  0.90425  0.76978  0.48474  1.0000
  C   C5294     1.0  0.89118  0.51768  0.23491  1.0000
  Fe  Fe706     1.0  0.88290  0.55021  0.61311  1.0000
  S   S1413     1.0  0.87877  0.54462  0.60024  1.0000
  S   S1414     1.0  0.87700  0.54398  0.63123  1.0000
  Fe  Fe707     1.0  0.89768  0.56396  0.59633  1.0000
  S   S1415     1.0  0.89540  0.55934  0.58187  1.0000
  S   S1416     1.0  0.90808  0.57528  0.59545  1.0000
  Fe  Fe708     1.0  0.87796  0.56207  0.59057  1.0000
  S   S1417     1.0  0.86443  0.57160  0.58202  1.0000
  Fe  Fe709     1.0  0.89651  0.54233  0.59260  1.0000
  S   S1418     1.0  0.90677  0.52665  0.58780  1.0000
  S   S1419     1.0  0.88014  0.56782  0.60438  1.0000
  S   S1420     1.0  0.90070  0.54671  0.60616  1.0000
  H   H6337     1.0  0.95680  0.55887  0.55985  1.0000
  S   S1421     1.0  0.95519  0.54774  0.58208  1.0000
  S   S1422     1.0  0.95944  0.52181  0.69741  1.0000
  Fe  Fe710     1.0  0.88974  0.55837  0.67960  1.0000
  S   S1423     1.0  0.90462  0.54588  0.68320  1.0000
  S   S1424     1.0  0.89022  0.56633  0.66165  1.0000
  Fe  Fe711     1.0  0.87936  0.55695  0.70411  1.0000
  S   S1425     1.0  0.89322  0.54413  0.70948  1.0000
  S   S1426     1.0  0.86532  0.56390  0.71652  1.0000
  Fe  Fe712     1.0  0.90341  0.55450  0.69631  1.0000
  S   S1427     1.0  0.91675  0.55854  0.70088  1.0000
  Fe  Fe713     1.0  0.89288  0.53686  0.69594  1.0000
  S   S1428     1.0  0.89586  0.51865  0.69881  1.0000
  S   S1429     1.0  0.88957  0.56792  0.69169  1.0000
  S   S1430     1.0  0.87794  0.54873  0.69159  1.0000
  Fe  Fe714     1.0  0.88111  0.62007  0.53248  1.0000
  S   S1431     1.0  0.89507  0.62245  0.53748  1.0000
  S   S1432     1.0  0.86644  0.61413  0.54360  1.0000
  Fe  Fe715     1.0  0.88897  0.62998  0.50837  1.0000
  S   S1433     1.0  0.90355  0.63333  0.51128  1.0000
  H   H6338     1.0  0.91548  0.72382  0.53707  1.0000
  Fe  Fe716     1.0  0.90497  0.61654  0.52231  1.0000
  S   S1434     1.0  0.92118  0.60506  0.52276  1.0000
  Fe  Fe717     1.0  0.89255  0.63906  0.52612  1.0000
  S   S1435     1.0  0.89578  0.65309  0.53087  1.0000
  S   S1436     1.0  0.89124  0.61267  0.51822  1.0000
  S   S1437     1.0  0.87768  0.63727  0.52230  1.0000
  H   H6339     1.0  0.91657  0.65168  0.50454  1.0000
  H   H6340     1.0  0.91155  0.72577  0.56124  1.0000
  Fe  Fe718     1.0  0.90138  0.90545  0.51642  1.0000
  S   S1438     1.0  0.89652  0.89231  0.51208  1.0000
  S   S1439     1.0  0.91761  0.90979  0.50791  1.0000
  Fe  Fe719     1.0  0.87924  0.91172  0.53126  1.0000
  S   S1440     1.0  0.87275  0.89855  0.52876  1.0000
  S   S1441     1.0  0.86918  0.92527  0.53995  1.0000
  Fe  Fe720     1.0  0.88920  0.88777  0.53003  1.0000
  S   S1442     1.0  0.89448  0.86973  0.53712  1.0000
  H   H6341     1.0  0.92461  0.85078  0.51219  1.0000
  H   H6342     1.0  0.95311  0.58498  0.56826  1.0000
  S   S1443     1.0  0.89497  0.90032  0.53454  1.0000
  S   S1444     1.0  0.88622  0.91783  0.51348  1.0000
  H   H6343     1.0  0.86760  0.50620  0.54882  1.0000
  S   S1445     1.0  0.95444  0.90454  0.53286  1.0000
  N   N353      1.0  0.91310  0.52189  0.63980  1.0000
  Fe  Fe721     1.0  0.87843  0.71402  0.51551  1.0000
  S   S1446     1.0  0.89542  0.71152  0.50549  1.0000
  S   S1447     1.0  0.86931  0.70146  0.51636  1.0000
  Fe  Fe722     1.0  0.87964  0.73525  0.52038  1.0000
  S   S1448     1.0  0.89662  0.73436  0.51071  1.0000
  S   S1449     1.0  0.87130  0.75015  0.52757  1.0000
  Fe  Fe723     1.0  0.89110  0.72949  0.49841  1.0000
  H   H6344     1.0  0.88464  0.59701  0.57449  1.0000
  Fe  Fe724     1.0  0.89920  0.71648  0.51883  1.0000
  S   S1450     1.0  0.91428  0.70786  0.52503  1.0000
  S   S1451     1.0  0.87374  0.73181  0.50731  1.0000
  S   S1452     1.0  0.88253  0.71759  0.52962  1.0000
  Fe  Fe725     1.0  0.90796  0.81585  0.50922  1.0000
  S   S1453     1.0  0.89890  0.81297  0.52677  1.0000
  S   S1454     1.0  0.92327  0.82182  0.50216  1.0000
  C   C5295     1.0  0.90716  0.85094  0.48902  1.0000
  S   S1455     1.0  0.87993  0.80832  0.51758  1.0000
  H   H6345     1.0  0.89169  0.59240  0.58534  1.0000
  Fe  Fe726     1.0  0.88454  0.82295  0.51970  1.0000
  S   S1456     1.0  0.87303  0.83782  0.52526  1.0000
  Fe  Fe727     1.0  0.89526  0.79867  0.52300  1.0000
  S   S1457     1.0  0.89831  0.78114  0.53234  1.0000
  H   H6346     1.0  0.91203  0.51395  0.62782  1.0000
  S   S1458     1.0  0.90590  0.80065  0.50613  1.0000
  H   H6347     1.0  0.95048  0.60582  0.50099  1.0000
  Fe  Fe728     1.0  0.82316  0.97283  0.51633  1.0000
  S   S1459     1.0  0.80633  0.97001  0.52063  1.0000
  S   S1460     1.0  0.83654  0.95856  0.51167  1.0000
  H   H6348     1.0  0.82613  0.95427  0.54738  1.0000
  C   C5296     1.0  0.89323  0.51440  0.68839  1.0000
  H   H6349     1.0  0.95267  0.80185  0.49803  1.0000
  H   H6350     1.0  0.93446  0.69583  0.50010  1.0000
  C   C5297     1.0  0.82031  0.95406  0.54273  1.0000
  H   H6351     1.0  0.80763  0.93483  0.56093  1.0000
  C   C5298     1.0  0.86371  0.58803  0.62026  1.0000
  C   C5299     1.0  0.97765  0.78417  0.51580  1.0000
  C   C5300     1.0  0.92908  0.82349  0.51194  1.0000
  C   C5301     1.0  0.92697  0.81773  0.52291  1.0000
  C   C5302     1.0  0.93329  0.81768  0.53002  1.0000
  C   C5303     1.0  0.94152  0.82356  0.52615  1.0000
  C   C5304     1.0  0.94269  0.83028  0.51559  1.0000
  C   C5305     1.0  0.93670  0.83002  0.50841  1.0000
  H   H6352     1.0  0.92103  0.81273  0.52571  1.0000
  H   H6353     1.0  0.93229  0.81255  0.53823  1.0000
  H   H6354     1.0  0.94880  0.83509  0.51259  1.0000
  H   H6355     1.0  0.88333  0.52439  0.66515  1.0000
  C   C5306     1.0  0.87911  0.75922  0.52747  1.0000
  C   C5307     1.0  0.89036  0.75595  0.52608  1.0000
  C   C5308     1.0  0.89629  0.76284  0.52727  1.0000
  C   C5309     1.0  0.89103  0.77321  0.52946  1.0000
  C   C5310     1.0  0.87987  0.77676  0.53018  1.0000
  C   C5311     1.0  0.87391  0.76973  0.52933  1.0000
  H   H6356     1.0  0.89443  0.74792  0.52468  1.0000
  H   H6357     1.0  0.90491  0.76005  0.52672  1.0000
  H   H6358     1.0  0.87574  0.78472  0.53195  1.0000
  H   H6359     1.0  0.86521  0.77234  0.53038  1.0000
  H   H6360     1.0  0.82446  0.92646  0.54658  1.0000
  S   S1461     1.0  0.97164  0.49827  0.65066  1.0000
  C   C5312     1.0  0.92292  0.72175  0.50670  1.0000
  C   C5313     1.0  0.92411  0.71520  0.51703  1.0000
  C   C5314     1.0  0.93296  0.71486  0.52111  1.0000
  N   N354      1.0  0.94859  0.85463  0.53675  1.0000
  H   H6361     1.0  0.88513  0.61106  0.58914  1.0000
  H   H6362     1.0  0.91648  0.72153  0.50321  1.0000
  H   H6363     1.0  0.93402  0.70966  0.52901  1.0000
  S   S1462     1.0  0.97547  0.71787  0.50254  1.0000
  C   C5315     1.0  0.85991  0.93458  0.53234  1.0000
  C   C5316     1.0  0.85419  0.94457  0.53529  1.0000
  C   C5317     1.0  0.84701  0.95211  0.52902  1.0000
  C   C5318     1.0  0.84547  0.94961  0.51983  1.0000
  C   C5319     1.0  0.85114  0.93960  0.51697  1.0000
  C   C5320     1.0  0.85828  0.93211  0.52321  1.0000
  H   H6364     1.0  0.85544  0.94654  0.54233  1.0000
  H   H6365     1.0  0.84282  0.95989  0.53118  1.0000
  H   H6366     1.0  0.84999  0.93758  0.50991  1.0000
  H   H6367     1.0  0.86248  0.92438  0.52094  1.0000
  C   C5321     1.0  0.92790  0.90753  0.51505  1.0000
  C   C5322     1.0  0.92640  0.90326  0.52640  1.0000
  C   C5323     1.0  0.93461  0.90222  0.53185  1.0000
  C   C5324     1.0  0.94435  0.90538  0.52596  1.0000
  C   C5325     1.0  0.94589  0.90942  0.51461  1.0000
  C   C5326     1.0  0.93774  0.91044  0.50917  1.0000
  H   H6368     1.0  0.91891  0.90087  0.53101  1.0000
  H   H6369     1.0  0.93337  0.89907  0.54064  1.0000
  H   H6370     1.0  0.95325  0.91211  0.51009  1.0000
  H   H6371     1.0  0.93896  0.91377  0.50039  1.0000
  C   C5327     1.0  0.88829  0.86085  0.53415  1.0000
  C   C5328     1.0  0.89423  0.85031  0.53300  1.0000
  C   C5329     1.0  0.88963  0.84322  0.53023  1.0000
  C   C5330     1.0  0.87891  0.84647  0.52900  1.0000
  C   C5331     1.0  0.87292  0.85696  0.53030  1.0000
  C   C5332     1.0  0.87767  0.86422  0.53266  1.0000
  H   H6372     1.0  0.90247  0.84766  0.53412  1.0000
  H   H6373     1.0  0.89434  0.83519  0.52922  1.0000
  C   C5333     1.0  0.94038  0.72139  0.51499  1.0000
  H   H6374     1.0  0.87303  0.87233  0.53356  1.0000
  H   H6375     1.0  0.89588  0.52383  0.64673  1.0000
  C   C5334     1.0  0.93089  0.61296  0.51661  1.0000
  C   C5335     1.0  0.93933  0.61181  0.52165  1.0000
  C   C5336     1.0  0.94649  0.61892  0.51723  1.0000
  C   C5337     1.0  0.94517  0.62713  0.50779  1.0000
  C   C5338     1.0  0.93685  0.62814  0.50268  1.0000
  C   C5339     1.0  0.92983  0.62092  0.50698  1.0000
  H   H6376     1.0  0.94011  0.60566  0.52914  1.0000
  H   H6377     1.0  0.95278  0.61825  0.52134  1.0000
  C   C5340     1.0  0.91346  0.51187  0.63628  1.0000
  H   H6378     1.0  0.92361  0.62148  0.50282  1.0000
  C   C5341     1.0  0.88807  0.66641  0.52700  1.0000
  C   C5342     1.0  0.87968  0.66836  0.52161  1.0000
  C   C5343     1.0  0.87375  0.67912  0.51858  1.0000
  C   C5344     1.0  0.87639  0.68797  0.52064  1.0000
  C   C5345     1.0  0.88487  0.68601  0.52588  1.0000
  C   C5346     1.0  0.89055  0.67525  0.52921  1.0000
  H   H6379     1.0  0.87769  0.66160  0.51988  1.0000
  H   H6380     1.0  0.86717  0.68061  0.51455  1.0000
  H   H6381     1.0  0.88690  0.69278  0.52757  1.0000
  H   H6382     1.0  0.89682  0.67384  0.53360  1.0000
  H   H6383     1.0  0.86138  0.61263  0.49269  1.0000
  H   H6384     1.0  0.91085  0.74498  0.55378  1.0000
  C   C5347     1.0  0.89097  0.49532  0.72240  1.0000
  H   H6385     1.0  0.85633  0.58578  0.62553  1.0000
  C   C5348     1.0  0.87389  0.59554  0.60193  1.0000
  C   C5349     1.0  0.86602  0.84204  0.49929  1.0000
  H   H6386     1.0  0.87035  0.52791  0.62355  1.0000
  N   N355      1.0  0.87478  0.60043  0.59003  1.0000
  S   S1463     1.0  0.82001  0.98291  0.52888  1.0000
  H   H6387     1.0  0.88652  0.53067  0.68006  1.0000
  C   C5350     1.0  0.91006  0.66007  0.49026  1.0000
  C   C5351     1.0  0.79823  0.94662  0.54244  1.0000
  H   H6388     1.0  0.87990  0.70180  0.48731  1.0000
  N   N356      1.0  0.94744  0.52965  0.66030  1.0000
  H   H6389     1.0  0.86552  0.83544  0.50659  1.0000
  S   S1464     1.0  0.97544  0.69859  0.53111  1.0000
  H   H6390     1.0  0.87748  0.61560  0.57870  1.0000
  H   H6391     1.0  0.98456  0.57279  0.59955  1.0000
  C   C5352     1.0  0.94717  0.53135  0.69951  1.0000
  C   C5353     1.0  0.94642  0.54037  0.70372  1.0000
  C   C5354     1.0  0.93697  0.54863  0.70427  1.0000
  C   C5355     1.0  0.92822  0.54782  0.70072  1.0000
  C   C5356     1.0  0.92874  0.53850  0.69706  1.0000
  C   C5357     1.0  0.93820  0.53021  0.69655  1.0000
  H   H6392     1.0  0.95314  0.54105  0.70648  1.0000
  H   H6393     1.0  0.93652  0.55574  0.70725  1.0000
  H   H6394     1.0  0.92193  0.53772  0.69454  1.0000
  H   H6395     1.0  0.93867  0.52309  0.69353  1.0000
  C   C5358     1.0  0.86583  0.58285  0.57076  1.0000
  C   C5359     1.0  0.87588  0.58525  0.56480  1.0000
  C   C5360     1.0  0.87634  0.59478  0.55626  1.0000
  C   C5361     1.0  0.86673  0.60185  0.55376  1.0000
  C   C5362     1.0  0.85679  0.59928  0.55963  1.0000
  C   C5363     1.0  0.85634  0.58984  0.56802  1.0000
  H   H6396     1.0  0.88326  0.57979  0.56676  1.0000
  H   H6397     1.0  0.88407  0.59667  0.55169  1.0000
  H   H6398     1.0  0.84934  0.60467  0.55774  1.0000
  H   H6399     1.0  0.84856  0.58804  0.57255  1.0000
  C   C5364     1.0  0.92133  0.56819  0.59136  1.0000
  C   C5365     1.0  0.92970  0.56945  0.59521  1.0000
  C   C5366     1.0  0.94014  0.56301  0.59259  1.0000
  C   C5367     1.0  0.94223  0.55563  0.58583  1.0000
  C   C5368     1.0  0.93391  0.55464  0.58176  1.0000
  C   C5369     1.0  0.92344  0.56078  0.58466  1.0000
  H   H6400     1.0  0.92802  0.57506  0.60054  1.0000
  H   H6401     1.0  0.94651  0.56374  0.59585  1.0000
  H   H6402     1.0  0.93550  0.54894  0.57652  1.0000
  H   H6403     1.0  0.91700  0.55977  0.58168  1.0000
  C   C5370     1.0  0.90023  0.51818  0.58471  1.0000
  C   C5371     1.0  0.88940  0.52165  0.58383  1.0000
  C   C5372     1.0  0.88432  0.51455  0.58170  1.0000
  C   C5373     1.0  0.86417  0.59285  0.60910  1.0000
  C   C5374     1.0  0.90596  0.50766  0.58333  1.0000
  H   H6404     1.0  0.88497  0.52981  0.58472  1.0000
  H   H6405     1.0  0.87593  0.51724  0.58108  1.0000
  C   C5375     1.0  0.87718  0.61146  0.58751  1.0000
  C   C5376     1.0  0.88062  0.55025  0.63966  1.0000
  C   C5377     1.0  0.88666  0.55836  0.63506  1.0000
  C   C5378     1.0  0.88961  0.56316  0.64190  1.0000
  C   C5379     1.0  0.88669  0.55978  0.65338  1.0000
  C   C5380     1.0  0.88085  0.55149  0.65798  1.0000
  C   C5381     1.0  0.87774  0.54681  0.65113  1.0000
  H   H6406     1.0  0.88899  0.56102  0.62622  1.0000
  H   H6407     1.0  0.89415  0.56954  0.63830  1.0000
  H   H6408     1.0  0.87851  0.54887  0.66682  1.0000
  H   H6409     1.0  0.87303  0.54057  0.65473  1.0000
  H   H6410     1.0  0.85688  0.59411  0.60627  1.0000
  H   H6411     1.0  0.94564  0.86279  0.55008  1.0000
  H   H6412     1.0  0.95771  0.52055  0.64817  1.0000
  C   C5382     1.0  0.86134  0.86122  0.49080  1.0000
  C   C5383     1.0  0.95793  0.69283  0.51167  1.0000
  H   H6413     1.0  0.81327  0.96104  0.54388  1.0000
  N   N357      1.0  0.93740  0.78233  0.52414  1.0000
  C   C5384     1.0  0.92572  0.78614  0.52884  1.0000
  C   C5385     1.0  0.94181  0.77306  0.53252  1.0000
  C   C5386     1.0  0.94304  0.79129  0.52231  1.0000
  C   C5387     1.0  0.93877  0.77939  0.51353  1.0000
  C   C5388     1.0  0.93414  0.78709  0.50501  1.0000
  C   C5389     1.0  0.94477  0.76903  0.51124  1.0000
  C   C5390     1.0  0.96702  0.57600  0.55180  1.0000
  H   H6414     1.0  0.86064  0.62109  0.52252  1.0000
  H   H6415     1.0  0.95496  0.59195  0.49894  1.0000
  H   H6416     1.0  0.92110  0.77985  0.52971  1.0000
  H   H6417     1.0  0.92430  0.78790  0.53709  1.0000
  H   H6418     1.0  0.92193  0.79384  0.52369  1.0000
  H   H6419     1.0  0.93799  0.76597  0.53422  1.0000
  H   H6420     1.0  0.94043  0.77543  0.54048  1.0000
  H   H6421     1.0  0.95073  0.77022  0.52991  1.0000
  H   H6422     1.0  0.93987  0.79875  0.51645  1.0000
  H   H6423     1.0  0.94211  0.79385  0.53008  1.0000
  H   H6424     1.0  0.95187  0.78867  0.51898  1.0000
  H   H6425     1.0  0.92981  0.79527  0.50596  1.0000
  H   H6426     1.0  0.94886  0.76271  0.51705  1.0000
  H   H6427     1.0  0.87871  0.72540  0.48660  1.0000
  C   C5391     1.0  0.79701  0.96607  0.49751  1.0000
  C   C5392     1.0  0.79162  0.94720  0.53546  1.0000
  C   C5393     1.0  0.86478  0.60169  0.58623  1.0000
  C   C5394     1.0  0.88293  0.59335  0.60672  1.0000
  C   C5395     1.0  0.88238  0.58849  0.61787  1.0000
  C   C5396     1.0  0.87280  0.58582  0.62462  1.0000
  H   H6428     1.0  0.85782  0.60741  0.59024  1.0000
  H   H6429     1.0  0.86582  0.60503  0.57719  1.0000
  H   H6430     1.0  0.86257  0.59362  0.58787  1.0000
  H   H6431     1.0  0.89061  0.59511  0.60184  1.0000
  H   H6432     1.0  0.88950  0.58658  0.62125  1.0000
  H   H6433     1.0  0.87246  0.58188  0.63323  1.0000
  C   C5397     1.0  0.89263  0.90683  0.48571  1.0000
  C   C5398     1.0  0.81137  0.94211  0.55810  1.0000
  C   C5399     1.0  0.96699  0.69091  0.49312  1.0000
  H   H6434     1.0  0.83158  0.93355  0.55132  1.0000
  C   C5400     1.0  0.90089  0.50058  0.58119  1.0000
  H   H6435     1.0  0.91799  0.73411  0.54192  1.0000
  S   S1465     1.0  0.97679  0.90120  0.50657  1.0000
  H   H6436     1.0  0.90542  0.49253  0.58003  1.0000
  C   C5401     1.0  0.89604  0.50324  0.68827  1.0000
  C   C5402     1.0  0.86979  0.60473  0.51136  1.0000
  C   C5403     1.0  0.91157  0.73170  0.53974  1.0000
  H   H6437     1.0  0.90639  0.79345  0.48825  1.0000
  H   H6438     1.0  0.87087  0.61683  0.59259  1.0000
  C   C5404     1.0  0.90230  0.74780  0.55399  1.0000
  H   H6439     1.0  0.90930  0.73790  0.53244  1.0000
  C   C5405     1.0  0.88370  0.59347  0.58347  1.0000
  C   C5406     1.0  0.85493  0.49038  0.53334  1.0000
  H   H6440     1.0  0.86694  0.49480  0.71823  1.0000
  C   C5407     1.0  0.95749  0.87076  0.52975  1.0000
  H   H6441     1.0  0.97166  0.56089  0.56372  1.0000
  H   H6442     1.0  0.93579  0.63457  0.49544  1.0000
  H   H6443     1.0  0.89885  0.51176  0.61666  1.0000
  H   H6444     1.0  0.96854  0.59944  0.58849  1.0000
  S   S1466     1.0  0.94817  0.73648  0.49710  1.0000
  H   H6445     1.0  0.88214  0.58514  0.58500  1.0000
  H   H6446     1.0  0.94903  0.50108  0.56419  1.0000
  H   H6447     1.0  0.90200  0.76312  0.55757  1.0000
  C   C5408     1.0  0.88865  0.52203  0.68005  1.0000
  C   C5409     1.0  0.89496  0.72554  0.54558  1.0000
  H   H6448     1.0  0.97921  0.56978  0.61405  1.0000
  C   C5410     1.0  0.98508  0.78341  0.50581  1.0000
  C   C5411     1.0  0.92518  0.85932  0.50953  1.0000
  C   C5412     1.0  0.92124  0.52779  0.63190  1.0000
  C   C5413     1.0  0.91846  0.53872  0.62580  1.0000
  C   C5414     1.0  0.93238  0.52252  0.63002  1.0000
  C   C5415     1.0  0.92634  0.54386  0.61812  1.0000
  C   C5416     1.0  0.94021  0.52777  0.62238  1.0000
  C   C5417     1.0  0.93719  0.53840  0.61639  1.0000
  H   H6449     1.0  0.91858  0.50355  0.67777  1.0000
  H   H6450     1.0  0.91435  0.50497  0.58392  1.0000
  S   S1467     1.0  0.96750  0.63918  0.52400  1.0000
  C   C5418     1.0  0.88654  0.59141  0.50598  1.0000
  H   H6451     1.0  0.92138  0.50596  0.63627  1.0000
  C   C5419     1.0  0.92891  0.52645  0.67046  1.0000
  H   H6452     1.0  0.94759  0.84456  0.52663  1.0000
  H   H6453     1.0  0.90933  0.51449  0.65711  1.0000
  H   H6454     1.0  0.91023  0.54348  0.62674  1.0000
  H   H6455     1.0  0.93510  0.51424  0.63438  1.0000
  H   H6456     1.0  0.92399  0.55213  0.61343  1.0000
  H   H6457     1.0  0.94866  0.52353  0.62101  1.0000
  H   H6458     1.0  0.94325  0.54241  0.61037  1.0000
  C   C5420     1.0  0.94141  0.85898  0.54635  1.0000
  H   H6459     1.0  0.96371  0.53003  0.65073  1.0000
  H   H6460     1.0  0.86376  0.60212  0.52917  1.0000
  Fe  Fe729     1.0  0.96709  0.54860  0.59086  1.0000
  H   H6461     1.0  0.79414  0.94884  0.55020  1.0000
  C   C5421     1.0  0.90183  0.52851  0.64082  1.0000
  H   H6462     1.0  0.87069  0.52099  0.61336  1.0000
  C   C5422     1.0  0.94294  0.53881  0.65188  1.0000
  N   N358      1.0  0.92864  0.64295  0.53599  1.0000
  C   C5423     1.0  0.93851  0.63443  0.53791  1.0000
  C   C5424     1.0  0.91968  0.64058  0.54557  1.0000
  C   C5425     1.0  0.92602  0.64177  0.52606  1.0000
  C   C5426     1.0  0.92987  0.65431  0.53443  1.0000
  C   C5427     1.0  0.93958  0.65680  0.53483  1.0000
  C   C5428     1.0  0.92113  0.66333  0.53246  1.0000
  C   C5429     1.0  0.94040  0.66766  0.53327  1.0000
  C   C5430     1.0  0.92201  0.67414  0.53095  1.0000
  C   C5431     1.0  0.93163  0.67631  0.53133  1.0000
  H   H6463     1.0  0.94088  0.63458  0.54543  1.0000
  H   H6464     1.0  0.93729  0.62601  0.53907  1.0000
  H   H6465     1.0  0.94544  0.63542  0.53075  1.0000
  H   H6466     1.0  0.92115  0.64173  0.55316  1.0000
  H   H6467     1.0  0.91865  0.63203  0.54712  1.0000
  H   H6468     1.0  0.91172  0.64597  0.54437  1.0000
  H   H6469     1.0  0.93241  0.64376  0.51862  1.0000
  H   H6470     1.0  0.92519  0.63328  0.52683  1.0000
  H   H6471     1.0  0.91822  0.64720  0.52451  1.0000
  H   H6472     1.0  0.94664  0.65052  0.53637  1.0000
  H   H6473     1.0  0.91351  0.66202  0.53216  1.0000
  H   H6474     1.0  0.94788  0.66937  0.53359  1.0000
  H   H6475     1.0  0.91519  0.68092  0.52950  1.0000
  H   H6476     1.0  0.93225  0.68472  0.53015  1.0000
  H   H6477     1.0  0.94363  0.57896  0.61783  1.0000
  H   H6478     1.0  0.87997  0.68807  0.49521  1.0000
  C   C5432     1.0  0.97615  0.76530  0.51846  1.0000
  C   C5433     1.0  0.96058  0.49941  0.63539  1.0000
  C   C5434     1.0  0.93502  0.78442  0.49505  1.0000
  C   C5435     1.0  0.87804  0.59017  0.52519  1.0000
  C   C5436     1.0  0.79419  0.97662  0.49112  1.0000
  H   H6479     1.0  0.87175  0.76541  0.49653  1.0000
  Fe  Fe730     1.0  0.80279  0.98095  0.53225  1.0000
  H   H6480     1.0  0.87800  0.58630  0.53377  1.0000
  H   H6481     1.0  0.96321  0.67058  0.50586  1.0000
  H   H6482     1.0  0.92615  0.53497  0.67096  1.0000
  Fe  Fe731     1.0  0.88063  0.90414  0.51114  1.0000
  H   H6483     1.0  0.90642  0.84559  0.49713  1.0000
  H   H6484     1.0  0.94147  0.53274  0.59299  1.0000
  H   H6485     1.0  0.94469  0.48906  0.58486  1.0000
  H   H6486     1.0  0.89793  0.57970  0.70246  1.0000
  H   H6487     1.0  0.86894  0.51264  0.70776  1.0000
  H   H6488     1.0  0.95422  0.62146  0.48526  1.0000
  C   C5437     1.0  0.88312  0.48976  0.61010  1.0000
  H   H6489     1.0  0.88466  0.49317  0.54222  1.0000
  C   C5438     1.0  0.94274  0.51085  0.66558  1.0000
  H   H6490     1.0  0.95500  0.56144  0.71615  1.0000
  H   H6491     1.0  0.84892  0.49624  0.52916  1.0000
  H   H6492     1.0  0.96196  0.50140  0.60112  1.0000
  N   N359      1.0  0.81685  0.94350  0.54627  1.0000
  H   H6493     1.0  0.88871  0.85114  0.50588  1.0000
  H   H6494     1.0  0.87629  0.78232  0.49824  1.0000
  C   C5439     1.0  0.94859  0.58597  0.54913  1.0000
  H   H6495     1.0  0.98100  0.60259  0.59636  1.0000
  H   H6496     1.0  0.82272  0.94027  0.52498  1.0000
  N   N360      1.0  0.95523  0.57650  0.55553  1.0000
  C   C5440     1.0  0.97679  0.67718  0.53067  1.0000
  H   H6497     1.0  0.97533  0.79173  0.51865  1.0000
  C   C5441     1.0  0.93978  0.52226  0.66544  1.0000
  H   H6498     1.0  0.84862  0.60975  0.52280  1.0000
  H   H6499     1.0  0.93359  0.92948  0.53891  1.0000
  C   C5442     1.0  0.89886  0.76400  0.48944  1.0000
  H   H6500     1.0  0.96439  0.59925  0.49955  1.0000
  C   C5443     1.0  0.95437  0.50596  0.59897  1.0000
  H   H6501     1.0  0.93978  0.58602  0.55210  1.0000
  H   H6502     1.0  0.98594  0.58969  0.53347  1.0000
  C   C5444     1.0  0.92128  0.86605  0.51708  1.0000
  C   C5445     1.0  0.81410  0.94174  0.52841  1.0000
  N   N361      1.0  0.90197  0.73058  0.54895  1.0000
  C   C5446     1.0  0.89729  0.75812  0.55635  1.0000
  H   H6503     1.0  0.90969  0.71459  0.55699  1.0000
  C   C5447     1.0  0.97150  0.58408  0.54316  1.0000
  C   C5448     1.0  0.95199  0.86377  0.52782  1.0000
  H   H6504     1.0  0.91752  0.86283  0.52553  1.0000
  C   C5449     1.0  0.93901  0.68746  0.50164  1.0000
  C   C5450     1.0  0.88783  0.87792  0.49354  1.0000
  C   C5451     1.0  0.88627  0.76223  0.55677  1.0000
  H   H6505     1.0  0.88199  0.52069  0.63623  1.0000
  H   H6506     1.0  0.84372  0.61880  0.51134  1.0000
  H   H6507     1.0  0.94962  0.59392  0.54989  1.0000
  H   H6508     1.0  0.85520  0.62615  0.49505  1.0000
  H   H6509     1.0  0.79760  0.96501  0.50586  1.0000
  C   C5452     1.0  0.90564  0.72289  0.55868  1.0000
  C   C5453     1.0  0.89642  0.74136  0.55174  1.0000
  C   C5454     1.0  0.85037  0.61179  0.51366  1.0000
  C   C5455     1.0  0.96214  0.49465  0.64606  1.0000
  S   S1468     1.0  0.88344  0.49497  0.57828  1.0000
  H   H6510     1.0  0.89944  0.71767  0.54309  1.0000
  H   H6511     1.0  0.90085  0.53595  0.64394  1.0000
  H   H6512     1.0  0.87868  0.86319  0.50794  1.0000
  C   C5456     1.0  0.96603  0.55524  0.64808  1.0000
  H   H6513     1.0  0.90107  0.75703  0.48527  1.0000
  C   C5457     1.0  0.86189  0.62339  0.51341  1.0000
  H   H6514     1.0  0.84979  0.60463  0.51093  1.0000
  S   S1469     1.0  0.79269  0.97506  0.54890  1.0000
  C   C5458     1.0  0.86186  0.61890  0.49676  1.0000
  H   H6515     1.0  0.89177  0.73107  0.53840  1.0000
  H   H6516     1.0  0.88189  0.50698  0.60500  1.0000
  N   N362      1.0  0.86116  0.61452  0.50874  1.0000
  C   C5459     1.0  0.94568  0.76649  0.50120  1.0000
  H   H6517     1.0  0.86950  0.62180  0.49264  1.0000
  C   C5460     1.0  0.98364  0.57536  0.60728  1.0000
  H   H6518     1.0  0.89868  0.72195  0.56583  1.0000
  Fe  Fe732     1.0  0.97001  0.90842  0.52149  1.0000
  C   C5461     1.0  0.93539  0.51915  0.59283  1.0000
  C   C5462     1.0  0.88504  0.69430  0.49139  1.0000
  H   H6519     1.0  0.88250  0.77040  0.55820  1.0000
  C   C5463     1.0  0.87840  0.60052  0.50315  1.0000
  C   C5464     1.0  0.92176  0.93724  0.51292  1.0000
  H   H6520     1.0  0.89754  0.59293  0.70428  1.0000
  N   N363      1.0  0.87091  0.48858  0.55449  1.0000
  C   C5465     1.0  0.88511  0.74569  0.55251  1.0000
  H   H6521     1.0  0.89160  0.92558  0.53199  1.0000
  C   C5466     1.0  0.88019  0.75598  0.55496  1.0000
  C   C5467     1.0  0.95937  0.58285  0.61305  1.0000
  H   H6522     1.0  0.81100  0.94083  0.51333  1.0000
  H   H6523     1.0  0.94401  0.56647  0.55724  1.0000
  H   H6524     1.0  0.88799  0.72356  0.55238  1.0000
  H   H6525     1.0  0.97774  0.66040  0.53020  1.0000
  C   C5468     1.0  0.94255  0.84840  0.53356  1.0000
  H   H6526     1.0  0.97635  0.50935  0.57910  1.0000
  H   H6527     1.0  0.93755  0.49556  0.66991  1.0000
  H   H6528     1.0  0.87992  0.74151  0.55086  1.0000
  Fe  Fe733     1.0  0.96760  0.63178  0.51043  1.0000
  H   H6529     1.0  0.91568  0.52592  0.65366  1.0000
  H   H6530     1.0  0.86464  0.85954  0.52935  1.0000
  H   H6531     1.0  0.85710  0.86953  0.49149  1.0000
  H   H6532     1.0  0.87166  0.75933  0.55503  1.0000
  H   H6533     1.0  0.93802  0.59033  0.60075  1.0000
  C   C5469     1.0  0.96051  0.87964  0.52160  1.0000
  H   H6534     1.0  0.96450  0.88497  0.52339  1.0000
  C   C5470     1.0  0.88636  0.58625  0.51697  1.0000
  H   H6535     1.0  0.93832  0.83453  0.49998  1.0000
  Fe  Fe734     1.0  0.97658  0.62223  0.53081  1.0000
  C   C5471     1.0  0.91553  0.51862  0.65088  1.0000
  C   C5472     1.0  0.95304  0.87502  0.50901  1.0000
  C   C5473     1.0  0.89732  0.61575  0.48578  1.0000
  H   H6536     1.0  0.96583  0.79408  0.49939  1.0000
  H   H6537     1.0  0.96250  0.51760  0.66067  1.0000
  C   C5474     1.0  0.94998  0.86608  0.51710  1.0000
  C   C5475     1.0  0.95821  0.88183  0.51129  1.0000
  H   H6538     1.0  0.95855  0.52120  0.59783  1.0000
  H   H6539     1.0  0.94602  0.86115  0.51475  1.0000
  H   H6540     1.0  0.89405  0.90917  0.49244  1.0000
  C   C5476     1.0  0.97326  0.77510  0.52215  1.0000
  C   C5477     1.0  0.92370  0.48948  0.70827  1.0000
  Fe  Fe735     1.0  0.97522  0.71565  0.52026  1.0000
  H   H6541     1.0  0.95640  0.78752  0.49755  1.0000
  C   C5478     1.0  0.86993  0.51631  0.71381  1.0000
  S   S1470     1.0  0.95170  0.82101  0.53334  1.0000
  H   H6542     1.0  0.93825  0.85238  0.55302  1.0000
  H   H6543     1.0  0.96040  0.88887  0.50509  1.0000
  H   H6544     1.0  0.90148  0.92348  0.53969  1.0000
  H   H6545     1.0  0.81709  0.94100  0.56340  1.0000
  H   H6546     1.0  0.88251  0.75448  0.49219  1.0000
  H   H6547     1.0  0.85544  0.50159  0.54214  1.0000
  C   C5479     1.0  0.95306  0.59564  0.59381  1.0000
  C   C5480     1.0  0.89003  0.50396  0.58046  1.0000
  C   C5481     1.0  0.90920  0.66862  0.50477  1.0000
  C   C5482     1.0  0.92949  0.86364  0.49851  1.0000
  H   H6548     1.0  0.89083  0.52533  0.61756  1.0000
  H   H6549     1.0  0.87988  0.59240  0.71796  1.0000
  H   H6550     1.0  0.97226  0.68298  0.49610  1.0000
  C   C5483     1.0  0.93888  0.72839  0.50490  1.0000
  H   H6551     1.0  0.95130  0.87674  0.50096  1.0000
  C   C5484     1.0  0.90733  0.59818  0.72973  1.0000
  C   C5485     1.0  0.85877  0.49335  0.54086  1.0000
  S   S1471     1.0  0.89393  0.82660  0.50236  1.0000
  C   C5486     1.0  0.88275  0.50137  0.62228  1.0000
  C   C5487     1.0  0.79620  0.94492  0.52508  1.0000
  H   H6552     1.0  0.88297  0.87898  0.48742  1.0000
  H   H6553     1.0  0.91254  0.65288  0.48675  1.0000
  C   C5488     1.0  0.86595  0.49982  0.55645  1.0000
  H   H6554     1.0  0.89275  0.57928  0.51913  1.0000
  H   H6555     1.0  0.89929  0.53108  0.63284  1.0000
  H   H6556     1.0  0.87850  0.58045  0.72871  1.0000
  C   C5489     1.0  0.87255  0.52736  0.72815  1.0000
  C   C5490     1.0  0.95501  0.67337  0.50466  1.0000
  H   H6557     1.0  0.98368  0.93764  0.49246  1.0000
  N   N364      1.0  0.95629  0.69311  0.50078  1.0000
  H   H6558     1.0  0.89012  0.78399  0.49345  1.0000
  C   C5491     1.0  0.92138  0.51975  0.67489  1.0000
  C   C5492     1.0  0.87588  0.49294  0.71723  1.0000
  C   C5493     1.0  0.98475  0.51274  0.58938  1.0000
  H   H6559     1.0  0.96257  0.68470  0.51526  1.0000
  H   H6560     1.0  0.87584  0.50922  0.64156  1.0000
  H   H6561     1.0  0.89308  0.58841  0.49959  1.0000
  H   H6562     1.0  0.95701  0.89704  0.48623  1.0000
  C   C5494     1.0  0.93017  0.72849  0.50073  1.0000
  H   H6563     1.0  0.86452  0.51606  0.62748  1.0000
  H   H6564     1.0  0.90078  0.76048  0.49772  1.0000
  C   C5495     1.0  0.95827  0.52418  0.65475  1.0000
  H   H6565     1.0  0.93820  0.93730  0.50390  1.0000
  H   H6566     1.0  0.90728  0.50734  0.64191  1.0000
  H   H6567     1.0  0.95736  0.55610  0.65067  1.0000
  H   H6568     1.0  0.88207  0.88095  0.50073  1.0000
  C   C5496     1.0  0.89940  0.93881  0.51425  1.0000
  Fe  Fe736     1.0  0.89090  0.81107  0.50089  1.0000
  C   C5497     1.0  0.88685  0.51848  0.67160  1.0000
  H   H6569     1.0  0.89386  0.86927  0.51211  1.0000
  C   C5498     1.0  0.88258  0.51233  0.63517  1.0000
  H   H6570     1.0  0.95602  0.57043  0.57265  1.0000
  H   H6571     1.0  0.80087  0.94867  0.49803  1.0000
  H   H6572     1.0  0.91916  0.93893  0.50533  1.0000
  H   H6573     1.0  0.97814  0.85149  0.48762  1.0000
  C   C5499     1.0  0.98413  0.68858  0.51352  1.0000
  C   C5500     1.0  0.88364  0.49172  0.63081  1.0000
  C   C5501     1.0  0.92012  0.50441  0.72187  1.0000
  C   C5502     1.0  0.93700  0.93363  0.52130  1.0000
  C   C5503     1.0  0.87142  0.51963  0.62198  1.0000
  S   S1472     1.0  0.98602  0.90455  0.52639  1.0000
  H   H6574     1.0  0.90535  0.91887  0.52710  1.0000
  C   C5504     1.0  0.94934  0.66533  0.50592  1.0000
  N   N365      1.0  0.88192  0.51241  0.62393  1.0000
  H   H6575     1.0  0.96186  0.59864  0.56699  1.0000
  C   C5505     1.0  0.91240  0.65940  0.50025  1.0000
  N   N366      1.0  0.90287  0.93626  0.52480  1.0000
  C   C5506     1.0  0.93280  0.93633  0.51195  1.0000
  H   H6576     1.0  0.89057  0.93923  0.51562  1.0000
  H   H6577     1.0  0.90087  0.94689  0.50909  1.0000
  C   C5507     1.0  0.95013  0.68472  0.50210  1.0000
  H   H6578     1.0  0.97233  0.59861  0.61693  1.0000
  C   C5508     1.0  0.90023  0.92560  0.53118  1.0000
  C   C5509     1.0  0.91456  0.93559  0.52340  1.0000
  S   S1473     1.0  0.96358  0.55450  0.62812  1.0000
  C   C5510     1.0  0.90012  0.58397  0.70758  1.0000
  C   C5511     1.0  0.95071  0.70443  0.49635  1.0000
  H   H6579     1.0  0.90367  0.93233  0.50948  1.0000
  H   H6580     1.0  0.93431  0.66203  0.50579  1.0000
  S   S1474     1.0  0.97108  0.54802  0.69149  1.0000
  C   C5512     1.0  0.93861  0.66830  0.50495  1.0000
  C   C5513     1.0  0.88987  0.50735  0.67136  1.0000
  C   C5514     1.0  0.91912  0.93296  0.53275  1.0000
  Fe  Fe737     1.0  0.98372  0.64228  0.51430  1.0000
  H   H6581     1.0  0.89967  0.49728  0.69464  1.0000
  H   H6582     1.0  0.90911  0.58160  0.70614  1.0000
  H   H6583     1.0  0.91420  0.93143  0.54098  1.0000
  H   H6584     1.0  0.93114  0.50446  0.59319  1.0000
  C   C5515     1.0  0.88493  0.77787  0.49709  1.0000
  H   H6585     1.0  0.95724  0.55043  0.73406  1.0000
  N   N367      1.0  0.89492  0.58074  0.71939  1.0000
  H   H6586     1.0  0.94730  0.72089  0.51807  1.0000
  C   C5516     1.0  0.93019  0.93192  0.53167  1.0000
  C   C5517     1.0  0.93340  0.67933  0.50303  1.0000
  C   C5518     1.0  0.95719  0.50141  0.73321  1.0000
  C   C5519     1.0  0.94910  0.58354  0.61154  1.0000
  C   C5520     1.0  0.89442  0.49973  0.67974  1.0000
  C   C5521     1.0  0.89082  0.51731  0.61608  1.0000
  C   C5522     1.0  0.80742  0.94223  0.52155  1.0000
  H   H6587     1.0  0.97649  0.51394  0.73363  1.0000
  C   C5523     1.0  0.97640  0.60264  0.55592  1.0000
  C   C5524     1.0  0.98269  0.58332  0.53990  1.0000
  C   C5525     1.0  0.90133  0.86202  0.48736  1.0000
  C   C5526     1.0  0.79882  0.95684  0.49310  1.0000
  H   H6588     1.0  0.79105  0.94553  0.51965  1.0000
  C   C5527     1.0  0.98243  0.55387  0.63386  1.0000
  C   C5528     1.0  0.95293  0.49663  0.63167  1.0000
  S   S1475     1.0  0.96939  0.53708  0.60678  1.0000
  C   C5529     1.0  0.93003  0.87487  0.49472  1.0000
  Fe  Fe738     1.0  0.90138  0.48739  0.65945  1.0000
  H   H6589     1.0  0.93740  0.57367  0.71354  1.0000
  S   S1476     1.0  0.95356  0.63646  0.50243  1.0000
  H   H6590     1.0  0.95006  0.69453  0.51761  1.0000
  C   C5530     1.0  0.92214  0.87697  0.51375  1.0000
  H   H6591     1.0  0.95012  0.75847  0.49968  1.0000
  C   C5531     1.0  0.90573  0.51581  0.73249  1.0000
  H   H6592     1.0  0.89039  0.50721  0.63709  1.0000
  H   H6593     1.0  0.91918  0.88219  0.51967  1.0000
  S   S1477     1.0  0.96785  0.56335  0.59597  1.0000
  C   C5532     1.0  0.88532  0.85959  0.50165  1.0000
  H   H6594     1.0  0.90130  0.68544  0.50323  1.0000
  S   S1478     1.0  0.96916  0.61446  0.54825  1.0000
  H   H6595     1.0  0.95758  0.49066  0.71176  1.0000
  C   C5533     1.0  0.93721  0.50776  0.59454  1.0000
  H   H6596     1.0  0.95071  0.58570  0.54028  1.0000
  N   N368      1.0  0.89360  0.86633  0.49669  1.0000
  H   H6597     1.0  0.96821  0.65412  0.48984  1.0000
  S   S1479     1.0  0.88896  0.50301  0.66012  1.0000
  Fe  Fe739     1.0  0.97921  0.91808  0.49789  1.0000
  H   H6598     1.0  0.95565  0.71056  0.49508  1.0000
  H   H6599     1.0  0.89012  0.51901  0.60741  1.0000
  C   C5534     1.0  0.88232  0.90582  0.48586  1.0000
  H   H6600     1.0  0.82425  0.95567  0.53385  1.0000
  Fe  Fe740     1.0  0.96639  0.82238  0.51963  1.0000
  H   H6601     1.0  0.90882  0.59541  0.71405  1.0000
  C   C5535     1.0  0.95702  0.60016  0.49650  1.0000
  C   C5536     1.0  0.94662  0.48933  0.63873  1.0000
  C   C5537     1.0  0.90093  0.67947  0.48924  1.0000
  C   C5538     1.0  0.97058  0.59621  0.56493  1.0000
  H   H6602     1.0  0.94089  0.53564  0.64577  1.0000
  H   H6603     1.0  0.95504  0.53954  0.66538  1.0000
  C   C5539     1.0  0.94596  0.58990  0.60192  1.0000
  C   C5540     1.0  0.89866  0.56870  0.72289  1.0000
  H   H6604     1.0  0.92499  0.68165  0.50243  1.0000
  H   H6605     1.0  0.90760  0.56634  0.72197  1.0000
  C   C5541     1.0  0.87507  0.51009  0.72258  1.0000
  C   C5542     1.0  0.92643  0.88136  0.50276  1.0000
  S   S1480     1.0  0.96982  0.83894  0.51101  1.0000
  C   C5543     1.0  0.97443  0.56726  0.55697  1.0000
  C   C5544     1.0  0.88048  0.76158  0.49613  1.0000
  H   H6606     1.0  0.88677  0.69670  0.49813  1.0000
  H   H6607     1.0  0.96786  0.55557  0.66399  1.0000
  H   H6608     1.0  0.97164  0.69728  0.49188  1.0000
  C   C5545     1.0  0.95585  0.48733  0.65308  1.0000
  C   C5546     1.0  0.86610  0.52766  0.71244  1.0000
  H   H6609     1.0  0.89827  0.95302  0.52647  1.0000
  H   H6610     1.0  0.96658  0.59121  0.53892  1.0000
  H   H6611     1.0  0.95329  0.65673  0.50773  1.0000
  C   C5547     1.0  0.97127  0.55453  0.63722  1.0000
  H   H6612     1.0  0.95226  0.52749  0.67539  1.0000
  C   C5548     1.0  0.97195  0.55501  0.65562  1.0000
  H   H6613     1.0  0.92667  0.88993  0.50075  1.0000
  H   H6614     1.0  0.89359  0.88349  0.49014  1.0000
  C   C5549     1.0  0.94660  0.50079  0.59801  1.0000
  H   H6615     1.0  0.95956  0.52765  0.73017  1.0000
  H   H6616     1.0  0.95178  0.50029  0.62340  1.0000
  Fe  Fe741     1.0  0.97331  0.52971  0.69496  1.0000
  C   C5550     1.0  0.86733  0.53315  0.71964  1.0000
  Fe  Fe742     1.0  0.97209  0.55141  0.61120  1.0000
  C   C5551     1.0  0.86067  0.85272  0.50013  1.0000
  C   C5552     1.0  0.91938  0.50055  0.70471  1.0000
  H   H6617     1.0  0.94014  0.84153  0.54039  1.0000
  H   H6618     1.0  0.96243  0.69909  0.51120  1.0000
  H   H6619     1.0  0.96766  0.77567  0.52996  1.0000
  H   H6620     1.0  0.91300  0.60355  0.72660  1.0000
  C   C5553     1.0  0.89750  0.58624  0.72658  1.0000
  S   S1481     1.0  0.97371  0.74421  0.49980  1.0000
  C   C5554     1.0  0.93905  0.60369  0.48677  1.0000
  Fe  Fe743     1.0  0.97008  0.83385  0.49585  1.0000
  H   H6621     1.0  0.90180  0.51984  0.72539  1.0000
  S   S1482     1.0  0.87216  0.90657  0.49769  1.0000
  H   H6622     1.0  0.97134  0.58172  0.57802  1.0000
  H   H6623     1.0  0.88148  0.75806  0.50473  1.0000
  H   H6624     1.0  0.89397  0.49836  0.72791  1.0000
  H   H6625     1.0  0.85162  0.57585  0.73223  1.0000
  C   C5555     1.0  0.97904  0.68740  0.52465  1.0000
  S   S1483     1.0  0.97543  0.61471  0.51770  1.0000
  H   H6626     1.0  0.95943  0.86948  0.53762  1.0000
  H   H6627     1.0  0.89501  0.56552  0.73161  1.0000
  H   H6628     1.0  0.96144  0.57770  0.62061  1.0000
  C   C5556     1.0  0.93824  0.56876  0.72163  1.0000
  C   C5557     1.0  0.95933  0.79526  0.49501  1.0000
  C   C5558     1.0  0.94297  0.52393  0.59425  1.0000
  C   C5559     1.0  0.95826  0.84679  0.54015  1.0000
  C   C5560     1.0  0.91762  0.50793  0.71135  1.0000
  H   H6629     1.0  0.96053  0.52118  0.71951  1.0000
  H   H6630     1.0  0.95608  0.83946  0.54645  1.0000
  H   H6631     1.0  0.90587  0.87052  0.50164  1.0000
  H   H6632     1.0  0.94148  0.53923  0.67284  1.0000
  C   C5561     1.0  0.98490  0.53614  0.73298  1.0000
  S   S1484     1.0  0.97026  0.75415  0.52631  1.0000
  H   H6633     1.0  0.98434  0.85720  0.51107  1.0000
  C   C5562     1.0  0.89634  0.94489  0.53088  1.0000
  S   S1485     1.0  0.96116  0.72992  0.52279  1.0000
  C   C5563     1.0  0.97949  0.66825  0.52553  1.0000
  Fe  Fe744     1.0  0.97348  0.74029  0.51778  1.0000
  H   H6634     1.0  0.85706  0.50092  0.55978  1.0000
  H   H6635     1.0  0.94304  0.70704  0.50205  1.0000
  C   C5564     1.0  0.88255  0.50005  0.61186  1.0000
  H   H6636     1.0  0.86932  0.50155  0.56261  1.0000
  H   H6637     1.0  0.85605  0.85437  0.50807  1.0000
  C   C5565     1.0  0.97595  0.58668  0.57123  1.0000
  H   H6638     1.0  0.89460  0.49903  0.71384  1.0000
  H   H6639     1.0  0.88748  0.94567  0.53190  1.0000
  H   H6640     1.0  0.92344  0.51273  0.65113  1.0000
  H   H6641     1.0  0.88162  0.85881  0.49530  1.0000
  H   H6642     1.0  0.91309  0.52314  0.67861  1.0000
  C   C5566     1.0  0.95283  0.56636  0.55458  1.0000
  H   H6643     1.0  0.96273  0.85052  0.54370  1.0000
  H   H6644     1.0  0.89774  0.94310  0.53930  1.0000
  S   S1486     1.0  0.88656  0.81013  0.48575  1.0000
  H   H6645     1.0  0.94819  0.52280  0.72971  1.0000
  Fe  Fe745     1.0  0.96241  0.73279  0.50472  1.0000
  C   C5567     1.0  0.95164  0.57739  0.56720  1.0000
  H   H6646     1.0  0.96862  0.49687  0.56382  1.0000
  C   C5568     1.0  0.90441  0.66991  0.48480  1.0000
  C   C5569     1.0  0.95577  0.49171  0.72013  1.0000
  H   H6647     1.0  0.93498  0.85369  0.53123  1.0000
  H   H6648     1.0  0.86227  0.53227  0.70566  1.0000
  H   H6649     1.0  0.93555  0.54437  0.65551  1.0000
  C   C5570     1.0  0.95716  0.52088  0.72842  1.0000
  C   C5571     1.0  0.80971  0.94364  0.53921  1.0000
  S   S1487     1.0  0.98301  0.52605  0.70774  1.0000
  C   C5572     1.0  0.92208  0.52219  0.72282  1.0000
  C   C5573     1.0  0.92446  0.50870  0.67450  1.0000
  S   S1488     1.0  0.96562  0.81779  0.50452  1.0000
  H   H6650     1.0  0.93217  0.85815  0.49293  1.0000
  H   H6651     1.0  0.96602  0.69086  0.48490  1.0000
  C   C5574     1.0  0.93514  0.50423  0.66998  1.0000
  C   C5575     1.0  0.89941  0.86576  0.50513  1.0000
  H   H6652     1.0  0.88618  0.49022  0.55614  1.0000
  H   H6653     1.0  0.87971  0.49571  0.70842  1.0000
  N   N369      1.0  0.87901  0.49802  0.72446  1.0000
  H   H6654     1.0  0.96808  0.61510  0.48561  1.0000
  Fe  Fe746     1.0  0.98330  0.81076  0.50287  1.0000
  C   C5576     1.0  0.96340  0.59493  0.59520  1.0000
  H   H6655     1.0  0.91779  0.52726  0.71625  1.0000
  H   H6656     1.0  0.95873  0.48760  0.58453  1.0000
  H   H6657     1.0  0.95089  0.50684  0.66239  1.0000
  C   C5577     1.0  0.94908  0.53419  0.66883  1.0000
  H   H6658     1.0  0.97650  0.50642  0.72399  1.0000
  H   H6659     1.0  0.89923  0.61331  0.49380  1.0000
  H   H6660     1.0  0.87000  0.62544  0.51012  1.0000
  S   S1489     1.0  0.88502  0.63509  0.49159  1.0000
  C   C5578     1.0  0.98044  0.54737  0.72994  1.0000
  C   C5579     1.0  0.95251  0.51738  0.59713  1.0000
  S   S1490     1.0  0.97853  0.55374  0.71650  1.0000
  H   H6661     1.0  0.94562  0.93250  0.52052  1.0000
  H   H6662     1.0  0.92810  0.52434  0.59034  1.0000
  H   H6663     1.0  0.88080  0.57948  0.71485  1.0000
  H   H6664     1.0  0.96386  0.50480  0.71550  1.0000
  C   C5580     1.0  0.92440  0.49300  0.72536  1.0000
  H   H6665     1.0  0.92913  0.73367  0.49280  1.0000
  Fe  Fe747     1.0  0.98188  0.54416  0.70338  1.0000
  C   C5581     1.0  0.97311  0.50746  0.73258  1.0000
  H   H6666     1.0  0.90315  0.85721  0.50877  1.0000
  S   S1491     1.0  0.97128  0.92559  0.51247  1.0000
  C   C5582     1.0  0.97727  0.59015  0.61683  1.0000
  C   C5583     1.0  0.96691  0.58840  0.60487  1.0000
  H   H6667     1.0  0.94887  0.70516  0.48832  1.0000
  H   H6668     1.0  0.95566  0.56522  0.54598  1.0000
  H   H6669     1.0  0.91399  0.51639  0.70825  1.0000
  N   N370      1.0  0.91763  0.51234  0.72895  1.0000
  H   H6670     1.0  0.93084  0.51982  0.71896  1.0000
  H   H6671     1.0  0.94882  0.54407  0.64718  1.0000
  H   H6672     1.0  0.89655  0.56423  0.71790  1.0000
  H   H6673     1.0  0.87916  0.60418  0.49449  1.0000
  C   C5584     1.0  0.90363  0.67854  0.49935  1.0000
  C   C5585     1.0  0.86988  0.59926  0.52246  1.0000
  H   H6674     1.0  0.95061  0.60059  0.58633  1.0000
  C   C5586     1.0  0.87211  0.83980  0.48916  1.0000
  Fe  Fe748     1.0  0.98553  0.55903  0.58840  1.0000
  S   S1492     1.0  0.98302  0.63612  0.50011  1.0000
  H   H6675     1.0  0.96540  0.50512  0.62996  1.0000
  H   H6676     1.0  0.92177  0.57483  0.72946  1.0000
  H   H6677     1.0  0.96405  0.84368  0.53304  1.0000
  S   S1493     1.0  0.98485  0.48747  0.67640  1.0000
  H   H6678     1.0  0.80499  0.94949  0.55984  1.0000
  H   H6679     1.0  0.92122  0.52783  0.72822  1.0000
  C   C5587     1.0  0.98459  0.66953  0.51438  1.0000
  C   C5588     1.0  0.82667  0.93445  0.54529  1.0000
  H   H6680     1.0  0.85577  0.63106  0.51139  1.0000
  H   H6681     1.0  0.87608  0.83137  0.48898  1.0000
  H   H6682     1.0  0.97291  0.67617  0.53931  1.0000
  H   H6683     1.0  0.96242  0.91057  0.49257  1.0000
  H   H6684     1.0  0.93433  0.86533  0.54395  1.0000
  H   H6685     1.0  0.92262  0.60326  0.48755  1.0000
  C   C5589     1.0  0.95925  0.49989  0.72236  1.0000
  H   H6686     1.0  0.86430  0.54194  0.71855  1.0000
  H   H6687     1.0  0.94286  0.57747  0.57042  1.0000
  C   C5590     1.0  0.88305  0.58339  0.72027  1.0000
  H   H6688     1.0  0.91078  0.66803  0.51268  1.0000
  H   H6689     1.0  0.93380  0.49021  0.61327  1.0000
  H   H6690     1.0  0.88644  0.77394  0.50548  1.0000
  H   H6691     1.0  0.91710  0.50344  0.69686  1.0000
  C   C5591     1.0  0.94813  0.56183  0.72311  1.0000
  N   N371      1.0  0.88732  0.76969  0.49024  1.0000
  N   N372      1.0  0.97794  0.58702  0.60648  1.0000
  S   S1494     1.0  0.98448  0.54498  0.58222  1.0000
  H   H6692     1.0  0.93760  0.60153  0.49564  1.0000
  H   H6693     1.0  0.83238  0.93589  0.53717  1.0000
  H   H6694     1.0  0.88192  0.55234  0.72956  1.0000
  H   H6695     1.0  0.83893  0.94855  0.49416  1.0000
  C   C5592     1.0  0.98360  0.76455  0.50850  1.0000
  Fe  Fe749     1.0  0.80239  0.98551  0.50834  1.0000
  H   H6696     1.0  0.88388  0.49183  0.63902  1.0000
  C   C5593     1.0  0.98306  0.55457  0.65220  1.0000
  C   C5594     1.0  0.90484  0.59341  0.72260  1.0000
  H   H6697     1.0  0.88293  0.48897  0.60207  1.0000
  H   H6698     1.0  0.93122  0.79037  0.48877  1.0000
  H   H6699     1.0  0.98091  0.94985  0.49755  1.0000
  C   C5595     1.0  0.86672  0.56412  0.72957  1.0000
  C   C5596     1.0  0.83934  0.94637  0.48656  1.0000
  H   H6700     1.0  0.90431  0.69967  0.48679  1.0000
  H   H6701     1.0  0.98606  0.59124  0.58943  1.0000
  H   H6702     1.0  0.98172  0.52151  0.58728  1.0000
  C   C5597     1.0  0.94078  0.77414  0.49314  1.0000
  H   H6703     1.0  0.97361  0.58452  0.62425  1.0000
  C   C5598     1.0  0.95427  0.49378  0.56160  1.0000
  S   S1495     1.0  0.98384  0.81387  0.51883  1.0000
  N   N373      1.0  0.94810  0.48872  0.60024  1.0000
  C   C5599     1.0  0.94930  0.55549  0.73353  1.0000
  C   C5600     1.0  0.92946  0.56938  0.73056  1.0000
  C   C5601     1.0  0.98171  0.50584  0.58474  1.0000
  C   C5602     1.0  0.98471  0.59367  0.59738  1.0000
  H   H6704     1.0  0.98215  0.53170  0.63884  1.0000
  H   H6705     1.0  0.98422  0.86093  0.49013  1.0000
  H   H6706     1.0  0.98543  0.58984  0.61796  1.0000
  H   H6707     1.0  0.98604  0.75696  0.50569  1.0000
  H   H6708     1.0  0.89669  0.49110  0.67967  1.0000
  C   C5603     1.0  0.96530  0.49144  0.56132  1.0000
  C   C5604     1.0  0.87643  0.51601  0.72959  1.0000
  H   H6709     1.0  0.92632  0.48942  0.73334  1.0000
  H   H6710     1.0  0.82223  0.95207  0.48752  1.0000
  H   H6711     1.0  0.94147  0.77210  0.48540  1.0000
  S   S1496     1.0  0.95991  0.84641  0.48496  1.0000
  H   H6712     1.0  0.94135  0.48829  0.55914  1.0000
  H   H6713     1.0  0.98560  0.52938  0.65723  1.0000
  C   C5605     1.0  0.87571  0.55790  0.73399  1.0000
  C   C5606     1.0  0.98561  0.49445  0.58734  1.0000
  C   C5607     1.0  0.98558  0.56664  0.55370  1.0000
  H   H6714     1.0  0.87357  0.53172  0.73366  1.0000
  S   S1497     1.0  0.91725  0.48776  0.66215  1.0000
  C   C5608     1.0  0.88274  0.48777  0.55050  1.0000
  H   H6715     1.0  0.98617  0.69627  0.50883  1.0000
  H   H6716     1.0  0.94435  0.81379  0.48481  1.0000
  Fe  Fe750     1.0  0.81021  0.54580  0.94680  1.0000
  S   S1498     1.0  0.81452  0.56217  0.94348  1.0000
  Fe  Fe751     1.0  0.83342  0.53328  0.94738  1.0000
  S   S1499     1.0  0.83985  0.54834  0.94464  1.0000
  S   S1500     1.0  0.84233  0.51576  0.94790  1.0000
  Fe  Fe752     1.0  0.82433  0.55396  0.95639  1.0000
  S   S1501     1.0  0.82085  0.56158  0.97094  1.0000
  Fe  Fe753     1.0  0.82976  0.55544  0.93190  1.0000
  S   S1502     1.0  0.83648  0.56210  0.91393  1.0000
  S   S1503     1.0  0.81912  0.53813  0.96036  1.0000
  S   S1504     1.0  0.82435  0.54004  0.93394  1.0000
  C   C5609     1.0  0.84175  0.55336  0.97416  1.0000
  Fe  Fe754     1.0  0.90437  0.56795  0.77111  1.0000
  S   S1505     1.0  0.88709  0.57149  0.78035  1.0000
  S   S1506     1.0  0.91338  0.58156  0.76359  1.0000
  Fe  Fe755     1.0  0.90427  0.54454  0.77208  1.0000
  S   S1507     1.0  0.88711  0.54606  0.78142  1.0000
  S   S1508     1.0  0.91411  0.52864  0.76785  1.0000
  Fe  Fe756     1.0  0.88423  0.56222  0.76957  1.0000
  S   S1509     1.0  0.86947  0.56869  0.76231  1.0000
  Fe  Fe757     1.0  0.89164  0.55503  0.79134  1.0000
  S   S1510     1.0  0.88637  0.54972  0.80981  1.0000
  S   S1511     1.0  0.90112  0.56003  0.75941  1.0000
  S   S1512     1.0  0.90924  0.55211  0.78288  1.0000
  C   C5610     1.0  0.79188  0.56013  0.96680  1.0000
  S   S1513     1.0  0.96807  0.55875  0.88878  1.0000
  H   H6717     1.0  0.93205  0.52727  0.83320  1.0000
  Fe  Fe758     1.0  0.89630  0.55923  0.88116  1.0000
  S   S1514     1.0  0.89009  0.55297  0.87024  1.0000
  S   S1515     1.0  0.88624  0.56339  0.89727  1.0000
  Fe  Fe759     1.0  0.91879  0.55855  0.86607  1.0000
  S   S1516     1.0  0.91433  0.55220  0.85398  1.0000
  S   S1517     1.0  0.93582  0.56125  0.85969  1.0000
  Fe  Fe760     1.0  0.89873  0.56446  0.85648  1.0000
  S   S1518     1.0  0.89248  0.57537  0.84175  1.0000
  Fe  Fe761     1.0  0.90628  0.54126  0.86864  1.0000
  S   S1519     1.0  0.90972  0.52347  0.86834  1.0000
  S   S1520     1.0  0.90368  0.57182  0.86748  1.0000
  S   S1521     1.0  0.91195  0.54651  0.88068  1.0000
  C   C5611     1.0  0.89916  0.51907  0.86634  1.0000
  C   C5612     1.0  0.90061  0.50804  0.86624  1.0000
  C   C5613     1.0  0.89228  0.50427  0.86476  1.0000
  C   C5614     1.0  0.88236  0.51145  0.86369  1.0000
  C   C5615     1.0  0.88089  0.52251  0.86374  1.0000
  C   C5616     1.0  0.88935  0.52634  0.86489  1.0000
  H   H6718     1.0  0.90822  0.50243  0.86725  1.0000
  H   H6719     1.0  0.79571  0.57133  0.98098  1.0000
  H   H6720     1.0  0.87327  0.52813  0.86275  1.0000
  H   H6721     1.0  0.88822  0.53489  0.86471  1.0000
  C   C5617     1.0  0.95859  0.56069  0.88079  1.0000
  C   C5618     1.0  0.94791  0.55961  0.88586  1.0000
  C   C5619     1.0  0.94067  0.56000  0.87950  1.0000
  C   C5620     1.0  0.94412  0.56154  0.86807  1.0000
  C   C5621     1.0  0.95468  0.56291  0.86302  1.0000
  C   C5622     1.0  0.96186  0.56255  0.86934  1.0000
  H   H6722     1.0  0.94532  0.55820  0.89472  1.0000
  H   H6723     1.0  0.93252  0.55895  0.88346  1.0000
  H   H6724     1.0  0.95742  0.56411  0.85420  1.0000
  H   H6725     1.0  0.96996  0.56369  0.86531  1.0000
  C   C5623     1.0  0.88801  0.55712  0.81847  1.0000
  C   C5624     1.0  0.89083  0.56733  0.81434  1.0000
  C   C5625     1.0  0.89208  0.57296  0.82155  1.0000
  C   C5626     1.0  0.89089  0.56824  0.83282  1.0000
  C   C5627     1.0  0.88827  0.55794  0.83691  1.0000
  C   C5628     1.0  0.88666  0.55249  0.82977  1.0000
  H   H6726     1.0  0.89186  0.57097  0.80563  1.0000
  H   H6727     1.0  0.89400  0.58098  0.81836  1.0000
  H   H6728     1.0  0.88723  0.55428  0.84560  1.0000
  H   H6729     1.0  0.88438  0.54464  0.83301  1.0000
  H   H6730     1.0  0.92694  0.52005  0.81109  1.0000
  H   H6731     1.0  0.83089  0.53188  0.91073  1.0000
  H   H6732     1.0  0.85364  0.48892  0.88804  1.0000
  C   C5629     1.0  0.85383  0.49645  0.89037  1.0000
  C   C5630     1.0  0.83700  0.52865  0.90416  1.0000
  C   C5631     1.0  0.85188  0.61391  0.88094  1.0000
  H   H6733     1.0  0.84526  0.54181  0.89996  1.0000
  H   H6734     1.0  0.89320  0.53496  0.76221  1.0000
  H   H6735     1.0  0.89179  0.58735  0.75380  1.0000
  H   H6736     1.0  0.84379  0.55083  0.96645  1.0000
  H   H6737     1.0  0.95367  0.51968  0.81308  1.0000
  H   H6738     1.0  0.97692  0.50513  0.81152  1.0000
  H   H6739     1.0  0.88556  0.50921  0.88652  1.0000
  C   C5632     1.0  0.93697  0.57246  0.78074  1.0000
  C   C5633     1.0  0.92742  0.57311  0.77761  1.0000
  C   C5634     1.0  0.92426  0.58147  0.76892  1.0000
  N   N374      1.0  0.91729  0.53132  0.82752  1.0000
  C   C5635     1.0  0.83118  0.55884  0.97810  1.0000
  H   H6740     1.0  0.93951  0.56579  0.78723  1.0000
  H   H6741     1.0  0.92272  0.56694  0.78169  1.0000
  H   H6742     1.0  0.84911  0.62276  0.87908  1.0000
  H   H6743     1.0  0.88264  0.52414  0.75810  1.0000
  C   C5636     1.0  0.85039  0.56210  0.90957  1.0000
  C   C5637     1.0  0.85588  0.56442  0.91612  1.0000
  C   C5638     1.0  0.86685  0.56493  0.91218  1.0000
  C   C5639     1.0  0.87250  0.56271  0.90186  1.0000
  C   C5640     1.0  0.86708  0.56005  0.89546  1.0000
  C   C5641     1.0  0.85600  0.56005  0.89918  1.0000
  H   H6744     1.0  0.85159  0.56614  0.92409  1.0000
  H   H6745     1.0  0.87099  0.56699  0.91718  1.0000
  H   H6746     1.0  0.87135  0.55824  0.88756  1.0000
  H   H6747     1.0  0.85175  0.55845  0.89398  1.0000
  C   C5642     1.0  0.84816  0.60787  0.89138  1.0000
  C   C5643     1.0  0.83470  0.51062  0.94223  1.0000
  C   C5644     1.0  0.83969  0.50294  0.93564  1.0000
  C   C5645     1.0  0.96099  0.57444  0.81633  1.0000
  C   C5646     1.0  0.82263  0.50528  0.93063  1.0000
  C   C5647     1.0  0.81760  0.51254  0.93760  1.0000
  C   C5648     1.0  0.82358  0.51499  0.94358  1.0000
  C   C5649     1.0  0.95158  0.49409  0.74171  1.0000
  C   C5650     1.0  0.94310  0.58047  0.77556  1.0000
  H   H6748     1.0  0.80911  0.51647  0.93825  1.0000
  H   H6749     1.0  0.81956  0.52059  0.94900  1.0000
  H   H6750     1.0  0.92846  0.54130  0.82598  1.0000
  C   C5651     1.0  0.91764  0.51975  0.82786  1.0000
  C   C5652     1.0  0.93123  0.52120  0.78823  1.0000
  H   H6751     1.0  0.94973  0.49446  0.75023  1.0000
  C   C5653     1.0  0.92840  0.53268  0.82625  1.0000
  H   H6752     1.0  0.84927  0.51119  0.87223  1.0000
  H   H6753     1.0  0.85879  0.51775  0.88039  1.0000
  C   C5654     1.0  0.86860  0.56627  0.74994  1.0000
  H   H6754     1.0  0.78925  0.50789  0.91836  1.0000
  C   C5655     1.0  0.82023  0.49037  0.96120  1.0000
  N   N375      1.0  0.84369  0.50492  0.88965  1.0000
  H   H6755     1.0  0.92347  0.56390  0.74764  1.0000
  H   H6756     1.0  0.85522  0.49405  0.89887  1.0000
  C   C5656     1.0  0.85260  0.52051  0.88713  1.0000
  H   H6757     1.0  0.84252  0.61198  0.89761  1.0000
  H   H6758     1.0  0.90484  0.53721  0.81830  1.0000
  H   H6759     1.0  0.97609  0.50158  0.82604  1.0000
  H   H6760     1.0  0.85791  0.54702  0.97715  1.0000
  H   H6761     1.0  0.97077  0.52131  0.85884  1.0000
  H   H6762     1.0  0.97633  0.49962  0.73796  1.0000
  H   H6763     1.0  0.91162  0.54750  0.81801  1.0000
  N   N376      1.0  0.96095  0.50374  0.82149  1.0000
  C   C5657     1.0  0.84425  0.51475  0.89292  1.0000
  S   S1522     1.0  0.79470  0.53959  0.95263  1.0000
  N   N377      1.0  0.89333  0.51310  0.80407  1.0000
  C   C5658     1.0  0.89248  0.52175  0.80985  1.0000
  C   C5659     1.0  0.89301  0.50269  0.81241  1.0000
  C   C5660     1.0  0.90400  0.51202  0.79626  1.0000
  C   C5661     1.0  0.88464  0.51549  0.79803  1.0000
  C   C5662     1.0  0.87621  0.52511  0.79795  1.0000
  C   C5663     1.0  0.88452  0.50810  0.79185  1.0000
  C   C5664     1.0  0.86841  0.52729  0.79177  1.0000
  C   C5665     1.0  0.87660  0.51029  0.78583  1.0000
  C   C5666     1.0  0.86863  0.51992  0.78569  1.0000
  H   H6764     1.0  0.88472  0.52296  0.81606  1.0000
  H   H6765     1.0  0.89907  0.51973  0.81435  1.0000
  H   H6766     1.0  0.89312  0.52971  0.80392  1.0000
  H   H6767     1.0  0.88497  0.50318  0.81827  1.0000
  H   H6768     1.0  0.89926  0.50071  0.81731  1.0000
  H   H6769     1.0  0.89436  0.49556  0.80871  1.0000
  H   H6770     1.0  0.90439  0.51969  0.78977  1.0000
  H   H6771     1.0  0.91074  0.51049  0.80044  1.0000
  H   H6772     1.0  0.90572  0.50523  0.79201  1.0000
  H   H6773     1.0  0.87559  0.53125  0.80236  1.0000
  H   H6774     1.0  0.89060  0.50059  0.79154  1.0000
  H   H6775     1.0  0.86226  0.53484  0.79156  1.0000
  H   H6776     1.0  0.87677  0.50459  0.78104  1.0000
  H   H6777     1.0  0.86266  0.52172  0.78080  1.0000
  H   H6778     1.0  0.97071  0.51541  0.81929  1.0000
  S   S1523     1.0  0.97205  0.48785  0.87290  1.0000
  C   C5667     1.0  0.91017  0.50984  0.76622  1.0000
  C   C5668     1.0  0.91866  0.49758  0.82809  1.0000
  H   H6779     1.0  0.94781  0.57983  0.80372  1.0000
  C   C5669     1.0  0.95242  0.54271  0.75469  1.0000
  H   H6780     1.0  0.92749  0.50107  0.81131  1.0000
  C   C5670     1.0  0.94034  0.52444  0.78858  1.0000
  H   H6781     1.0  0.98078  0.51880  0.87858  1.0000
  C   C5671     1.0  0.78718  0.52242  0.92369  1.0000
  H   H6782     1.0  0.91795  0.50588  0.76829  1.0000
  N   N378      1.0  0.95159  0.57183  0.82528  1.0000
  C   C5672     1.0  0.95758  0.51114  0.74698  1.0000
  C   C5673     1.0  0.93776  0.55612  0.76206  1.0000
  H   H6783     1.0  0.94859  0.51306  0.74970  1.0000
  S   S1524     1.0  0.94399  0.49669  0.77222  1.0000
  C   C5674     1.0  0.95068  0.51918  0.78380  1.0000
  C   C5675     1.0  0.92340  0.50430  0.81860  1.0000
  H   H6784     1.0  0.90465  0.59961  0.74646  1.0000
  C   C5676     1.0  0.89030  0.52012  0.76041  1.0000
  C   C5677     1.0  0.95386  0.50513  0.83231  1.0000
  H   H6785     1.0  0.94763  0.50887  0.81325  1.0000
  C   C5678     1.0  0.94102  0.57762  0.81012  1.0000
  C   C5679     1.0  0.95647  0.50999  0.83951  1.0000
  N   N379      1.0  0.87056  0.59161  0.86642  1.0000
  C   C5680     1.0  0.86589  0.59439  0.85658  1.0000
  C   C5681     1.0  0.88084  0.59542  0.86323  1.0000
  C   C5682     1.0  0.87325  0.57947  0.86992  1.0000
  C   C5683     1.0  0.86290  0.59704  0.87509  1.0000
  C   C5684     1.0  0.85915  0.60861  0.87290  1.0000
  C   C5685     1.0  0.85904  0.59115  0.88588  1.0000
  C   C5686     1.0  0.85175  0.59651  0.89384  1.0000
  H   H6786     1.0  0.86472  0.60325  0.85262  1.0000
  H   H6787     1.0  0.87129  0.59000  0.85010  1.0000
  H   H6788     1.0  0.85792  0.59207  0.85874  1.0000
  H   H6789     1.0  0.87970  0.60438  0.85974  1.0000
  H   H6790     1.0  0.88688  0.59135  0.85682  1.0000
  H   H6791     1.0  0.88457  0.59355  0.87044  1.0000
  H   H6792     1.0  0.86588  0.57600  0.87240  1.0000
  H   H6793     1.0  0.87876  0.57565  0.86313  1.0000
  H   H6794     1.0  0.87750  0.57671  0.87684  1.0000
  H   H6795     1.0  0.86186  0.61365  0.86495  1.0000
  H   H6796     1.0  0.86152  0.58238  0.88843  1.0000
  H   H6797     1.0  0.84891  0.59178  0.90199  1.0000
  N   N380      1.0  0.96476  0.52431  0.87520  1.0000
  C   C5687     1.0  0.96215  0.53364  0.88059  1.0000
  C   C5688     1.0  0.93960  0.58917  0.76729  1.0000
  H   H6798     1.0  0.96063  0.51769  0.74833  1.0000
  C   C5689     1.0  0.95470  0.52062  0.87666  1.0000
  C   C5690     1.0  0.95313  0.51004  0.88275  1.0000
  C   C5691     1.0  0.94596  0.52785  0.87217  1.0000
  C   C5692     1.0  0.94345  0.50690  0.88408  1.0000
  C   C5693     1.0  0.93632  0.52461  0.87357  1.0000
  C   C5694     1.0  0.93505  0.51418  0.87955  1.0000
  H   H6799     1.0  0.95800  0.53148  0.88939  1.0000
  C   C5695     1.0  0.91350  0.50175  0.83746  1.0000
  H   H6800     1.0  0.95673  0.54086  0.87658  1.0000
  H   H6801     1.0  0.88049  0.51189  0.73627  1.0000
  C   C5696     1.0  0.93999  0.50735  0.85304  1.0000
  C   C5697     1.0  0.81244  0.49044  0.98014  1.0000
  H   H6802     1.0  0.96413  0.53537  0.85927  1.0000
  C   C5698     1.0  0.84234  0.50801  0.87814  1.0000
  H   H6803     1.0  0.83436  0.49243  0.89393  1.0000
  H   H6804     1.0  0.86561  0.49545  0.73818  1.0000
  H   H6805     1.0  0.94646  0.53612  0.86762  1.0000
  C   C5699     1.0  0.89283  0.58426  0.73803  1.0000
  H   H6806     1.0  0.92980  0.53021  0.86996  1.0000
  H   H6807     1.0  0.92759  0.51166  0.88056  1.0000
  N   N381      1.0  0.86633  0.52669  0.92215  1.0000
  C   C5700     1.0  0.87081  0.53574  0.92270  1.0000
  C   C5701     1.0  0.85459  0.53098  0.92261  1.0000
  C   C5702     1.0  0.86781  0.51785  0.93205  1.0000
  C   C5703     1.0  0.87149  0.52228  0.91213  1.0000
  C   C5704     1.0  0.87978  0.52655  0.90371  1.0000
  C   C5705     1.0  0.86831  0.51332  0.91064  1.0000
  C   C5706     1.0  0.88474  0.52186  0.89457  1.0000
  C   C5707     1.0  0.87335  0.50870  0.90149  1.0000
  C   C5708     1.0  0.88158  0.51292  0.89351  1.0000
  H   H6808     1.0  0.87959  0.53304  0.92275  1.0000
  H   H6809     1.0  0.86971  0.54277  0.91565  1.0000
  H   H6810     1.0  0.86663  0.53903  0.93023  1.0000
  H   H6811     1.0  0.85313  0.53788  0.91549  1.0000
  H   H6812     1.0  0.85042  0.53415  0.93015  1.0000
  H   H6813     1.0  0.85039  0.52461  0.92278  1.0000
  H   H6814     1.0  0.87654  0.51403  0.93174  1.0000
  H   H6815     1.0  0.86439  0.52099  0.93974  1.0000
  H   H6816     1.0  0.86359  0.51123  0.93302  1.0000
  H   H6817     1.0  0.88268  0.53344  0.90398  1.0000
  H   H6818     1.0  0.86194  0.50979  0.91661  1.0000
  H   H6819     1.0  0.89117  0.52511  0.88831  1.0000
  H   H6820     1.0  0.95681  0.57836  0.83599  1.0000
  H   H6821     1.0  0.92906  0.56021  0.76303  1.0000
  H   H6822     1.0  0.96388  0.51287  0.83756  1.0000
  H   H6823     1.0  0.91393  0.53062  0.84493  1.0000
  H   H6824     1.0  0.95990  0.50642  0.77520  1.0000
  H   H6825     1.0  0.79928  0.56181  0.96787  1.0000
  C   C5709     1.0  0.89625  0.52624  0.76277  1.0000
  H   H6826     1.0  0.92555  0.54549  0.75750  1.0000
  H   H6827     1.0  0.86106  0.49929  0.88473  1.0000
  C   C5710     1.0  0.89430  0.50887  0.76094  1.0000
  C   C5711     1.0  0.95544  0.51090  0.81268  1.0000
  C   C5712     1.0  0.90624  0.52110  0.76556  1.0000
  C   C5713     1.0  0.93028  0.58958  0.76388  1.0000
  C   C5714     1.0  0.90417  0.50373  0.76397  1.0000
  H   H6828     1.0  0.96873  0.49083  0.81258  1.0000
  C   C5715     1.0  0.92218  0.50775  0.73894  1.0000
  H   H6829     1.0  0.87094  0.50176  0.90058  1.0000
  H   H6830     1.0  0.91816  0.53757  0.80999  1.0000
  C   C5716     1.0  0.96939  0.52793  0.86330  1.0000
  H   H6831     1.0  0.88354  0.55420  0.74764  1.0000
  C   C5717     1.0  0.91050  0.53508  0.83758  1.0000
  C   C5718     1.0  0.98466  0.49223  0.89842  1.0000
  C   C5719     1.0  0.91292  0.51266  0.83737  1.0000
  H   H6832     1.0  0.93188  0.56768  0.83755  1.0000
  H   H6833     1.0  0.90883  0.51532  0.84490  1.0000
  C   C5720     1.0  0.89536  0.58909  0.74505  1.0000
  H   H6834     1.0  0.84828  0.49945  0.93467  1.0000
  H   H6835     1.0  0.90992  0.54395  0.83684  1.0000
  H   H6836     1.0  0.82986  0.51534  0.90650  1.0000
  H   H6837     1.0  0.98383  0.55598  0.80829  1.0000
  C   C5721     1.0  0.83651  0.51908  0.90162  1.0000
  C   C5722     1.0  0.85303  0.53009  0.88973  1.0000
  C   C5723     1.0  0.84515  0.53422  0.89814  1.0000
  H   H6838     1.0  0.95273  0.53774  0.76317  1.0000
  C   C5724     1.0  0.92299  0.51519  0.81852  1.0000
  C   C5725     1.0  0.94050  0.55591  0.74283  1.0000
  H   H6839     1.0  0.94670  0.58782  0.82904  1.0000
  H   H6840     1.0  0.78884  0.55932  0.93604  1.0000
  H   H6841     1.0  0.90207  0.53401  0.83924  1.0000
  S   S1525     1.0  0.95431  0.55260  0.80100  1.0000
  H   H6842     1.0  0.85943  0.53438  0.88511  1.0000
  C   C5726     1.0  0.91281  0.53867  0.81807  1.0000
  H   H6843     1.0  0.93482  0.50781  0.86108  1.0000
  H   H6844     1.0  0.79575  0.52106  0.92340  1.0000
  H   H6845     1.0  0.96319  0.56909  0.81032  1.0000
  C   C5727     1.0  0.96314  0.49218  0.82052  1.0000
  H   H6846     1.0  0.95773  0.52175  0.78392  1.0000
  H   H6847     1.0  0.93386  0.53067  0.81852  1.0000
  H   H6848     1.0  0.96048  0.51010  0.80437  1.0000
  S   S1526     1.0  0.97635  0.48847  0.76771  1.0000
  S   S1527     1.0  0.95536  0.57935  0.77905  1.0000
  S   S1528     1.0  0.93864  0.53486  0.79529  1.0000
  C   C5728     1.0  0.94945  0.57907  0.83301  1.0000
  H   H6849     1.0  0.94430  0.59537  0.76326  1.0000
  H   H6850     1.0  0.94310  0.57702  0.84047  1.0000
  H   H6851     1.0  0.94122  0.49806  0.83088  1.0000
  H   H6852     1.0  0.95937  0.58317  0.81186  1.0000
  H   H6853     1.0  0.95810  0.54826  0.75263  1.0000
  Fe  Fe762     1.0  0.98121  0.48915  0.85539  1.0000
  H   H6854     1.0  0.79332  0.55998  0.95798  1.0000
  H   H6855     1.0  0.96947  0.53643  0.88031  1.0000
  C   C5729     1.0  0.93140  0.57920  0.80678  1.0000
  H   H6856     1.0  0.93107  0.58264  0.79822  1.0000
  C   C5730     1.0  0.85956  0.57218  0.74560  1.0000
  C   C5731     1.0  0.92222  0.57647  0.81436  1.0000
  C   C5732     1.0  0.94166  0.57333  0.82133  1.0000
  C   C5733     1.0  0.93209  0.57076  0.82886  1.0000
  H   H6857     1.0  0.91480  0.57771  0.81170  1.0000
  S   S1529     1.0  0.88712  0.50147  0.75730  1.0000
  H   H6858     1.0  0.91534  0.57032  0.83131  1.0000
  C   C5734     1.0  0.92256  0.57226  0.82539  1.0000
  H   H6859     1.0  0.94246  0.56266  0.75965  1.0000
  C   C5735     1.0  0.82836  0.49779  0.97109  1.0000
  H   H6860     1.0  0.90735  0.49513  0.76428  1.0000
  H   H6861     1.0  0.96243  0.55882  0.83395  1.0000
  C   C5736     1.0  0.83361  0.50019  0.92989  1.0000
  H   H6862     1.0  0.97063  0.51299  0.88903  1.0000
  H   H6863     1.0  0.96083  0.50348  0.75261  1.0000
  Fe  Fe763     1.0  0.95378  0.54079  0.79177  1.0000
  H   H6864     1.0  0.84177  0.50087  0.87537  1.0000
  S   S1530     1.0  0.96994  0.53016  0.79365  1.0000
  H   H6865     1.0  0.92320  0.52544  0.79168  1.0000
  S   S1531     1.0  0.95997  0.55050  0.77523  1.0000
  C   C5737     1.0  0.97936  0.54924  0.74840  1.0000
  S   S1532     1.0  0.97416  0.53681  0.81858  1.0000
  N   N382      1.0  0.96112  0.51007  0.73535  1.0000
  H   H6866     1.0  0.95618  0.55452  0.82569  1.0000
  H   H6867     1.0  0.95924  0.50400  0.88653  1.0000
  C   C5738     1.0  0.95482  0.56027  0.83112  1.0000
  Fe  Fe764     1.0  0.96203  0.56150  0.78460  1.0000
  H   H6868     1.0  0.85328  0.57776  0.75001  1.0000
  H   H6869     1.0  0.97733  0.53010  0.86185  1.0000
  H   H6870     1.0  0.94868  0.55785  0.83861  1.0000
  H   H6871     1.0  0.91002  0.49642  0.84491  1.0000
  H   H6872     1.0  0.93451  0.53590  0.76547  1.0000
  C   C5739     1.0  0.87459  0.49285  0.73602  1.0000
  C   C5740     1.0  0.95191  0.51049  0.77886  1.0000
  H   H6873     1.0  0.80671  0.49818  0.97737  1.0000
  H   H6874     1.0  0.97853  0.53345  0.83947  1.0000
  H   H6875     1.0  0.92054  0.51397  0.74392  1.0000
  H   H6876     1.0  0.90341  0.52173  0.73793  1.0000
  H   H6877     1.0  0.87786  0.49487  0.74203  1.0000
  C   C5741     1.0  0.94277  0.50729  0.77851  1.0000
  C   C5742     1.0  0.85861  0.57109  0.73553  1.0000
  H   H6878     1.0  0.97579  0.50853  0.87610  1.0000
  H   H6879     1.0  0.91852  0.50087  0.74448  1.0000
  H   H6880     1.0  0.94248  0.49870  0.88852  1.0000
  H   H6881     1.0  0.95192  0.51436  0.85527  1.0000
  H   H6882     1.0  0.83491  0.51453  0.87720  1.0000
  H   H6883     1.0  0.92783  0.59611  0.75719  1.0000
  H   H6884     1.0  0.97735  0.55441  0.75423  1.0000
  C   C5743     1.0  0.84975  0.55124  0.98020  1.0000
  H   H6885     1.0  0.89351  0.49575  0.86465  1.0000
  S   S1533     1.0  0.81533  0.50351  0.92215  1.0000
  H   H6886     1.0  0.93867  0.55131  0.77045  1.0000
  C   C5744     1.0  0.93246  0.51264  0.78315  1.0000
  C   C5745     1.0  0.97331  0.51573  0.87998  1.0000
  H   H6887     1.0  0.93636  0.53581  0.75123  1.0000
  H   H6888     1.0  0.79069  0.58135  0.96462  1.0000
  C   C5746     1.0  0.98424  0.53814  0.75130  1.0000
  H   H6889     1.0  0.79176  0.52997  0.97892  1.0000
  H   H6890     1.0  0.96832  0.57315  0.81958  1.0000
  H   H6891     1.0  0.79123  0.55173  0.97160  1.0000
  C   C5747     1.0  0.98056  0.54407  0.82342  1.0000
  H   H6892     1.0  0.88722  0.57886  0.74173  1.0000
  C   C5748     1.0  0.87663  0.55895  0.74422  1.0000
  H   H6893     1.0  0.83642  0.49679  0.96530  1.0000
  S   S1534     1.0  0.87174  0.50658  0.86251  1.0000
  H   H6894     1.0  0.83517  0.49700  0.90535  1.0000
  C   C5749     1.0  0.93712  0.50273  0.84613  1.0000
  S   S1535     1.0  0.97917  0.55283  0.78576  1.0000
  H   H6895     1.0  0.82356  0.50608  0.96804  1.0000
  H   H6896     1.0  0.92544  0.51024  0.78269  1.0000
  C   C5750     1.0  0.94962  0.51099  0.84974  1.0000
  C   C5751     1.0  0.83456  0.49978  0.89659  1.0000
  N   N383      1.0  0.94131  0.54909  0.75392  1.0000
  H   H6897     1.0  0.92979  0.49960  0.84896  1.0000
  Fe  Fe765     1.0  0.97108  0.54290  0.80158  1.0000
  C   C5752     1.0  0.93053  0.56307  0.74099  1.0000
  C   C5753     1.0  0.97160  0.50658  0.81953  1.0000
  H   H6898     1.0  0.82657  0.50554  0.89618  1.0000
  C   C5754     1.0  0.93417  0.54123  0.75714  1.0000
  H   H6899     1.0  0.95551  0.53685  0.74918  1.0000
  H   H6900     1.0  0.81448  0.49829  0.95902  1.0000
  C   C5755     1.0  0.94386  0.50172  0.83588  1.0000
  H   H6901     1.0  0.90208  0.50864  0.73712  1.0000
  H   H6902     1.0  0.82970  0.49783  0.97916  1.0000
  H   H6903     1.0  0.95576  0.48955  0.82078  1.0000
  Fe  Fe766     1.0  0.97635  0.54093  0.77767  1.0000
  S   S1536     1.0  0.89113  0.48945  0.84210  1.0000
  H   H6904     1.0  0.82756  0.49044  0.95439  1.0000
  H   H6905     1.0  0.83751  0.49452  0.92453  1.0000
  H   H6906     1.0  0.80788  0.53057  0.98397  1.0000
  C   C5756     1.0  0.98152  0.54059  0.83436  1.0000
  C   C5757     1.0  0.98451  0.55324  0.81677  1.0000
  C   C5758     1.0  0.90261  0.59602  0.74091  1.0000
  H   H6907     1.0  0.93110  0.50475  0.73672  1.0000
  Fe  Fe767     1.0  0.87859  0.49040  0.85768  1.0000
  H   H6908     1.0  0.98171  0.49177  0.92902  1.0000
  C   C5759     1.0  0.97754  0.55384  0.73775  1.0000
  H   H6909     1.0  0.97404  0.56251  0.73550  1.0000
  C   C5760     1.0  0.98275  0.49224  0.92038  1.0000
  H   H6910     1.0  0.91901  0.48911  0.82829  1.0000
  Fe  Fe768     1.0  0.98526  0.55521  0.87899  1.0000
  H   H6911     1.0  0.98568  0.49182  0.88995  1.0000
  N   N384      1.0  0.82287  0.48898  0.97196  1.0000
  H   H6912     1.0  0.92422  0.48840  0.78530  1.0000
