data_image0
_chemical_formula_structural       CH2CHSHC2HCH2CHCFeSCH2NH2SH2C3HC2HCS2FeSFe2S2FeS2Fe2S3H2SHSFeSH4C6H5C6H5C2FeH2CHCH2CH2SCH6C2H2C3NC3H3NH3C2H4C5S2H3C2HCFeHCH3SCFeS2C4H2CHC2H2C2HC2HCFeNFeCH6CH2C3HC2HNSCH3CHC2H4C2H3FeH2CSHCHC3HCHCFeHCFeS2HCFeCHCS2C6H7SH2C3HCHSCH2C2HC4HCH4NHNH4NHSCH2CH2CH2CH2CHC4H4C2HCNH2C3H2CH2SHCSH2SHCHC2SCHCH2NHFeS2CS2HCFeCFeH4C8H5FeHCH2FeC2H2C2SC3H2SH2SC2H2CHCHNHCHCHCH2CH3C3SNSH2C2HCH3C2H4S2HFeCHSH4SHFeSH2CSFeHSFeS2FeSCS2C3HC7H4CHC6H3C2H3C2H2CH2C2FeC5HC2HNCH2C4H2CSC2HCH2CHSHSC2H3CH6CH3NCH2CHCHC2NHCS2CFeHCH5C2HSH6CHCHFeHCFe2SHC6H5NHC5HCSC2H4CHCH7
_chemical_formula_sum              "C240 H288 S64 Fe32 N16"
_cell_length_a       34.5544
_cell_length_b       34.4494
_cell_length_c       32.4642
_cell_angle_alpha    92.152
_cell_angle_beta     91.9349
_cell_angle_gamma    119.618

_space_group_name_H-M_alt    "P 1"
_space_group_IT_number       1

loop_
  _space_group_symop_operation_xyz
  'x, y, z'

loop_
  _atom_site_type_symbol
  _atom_site_label
  _atom_site_symmetry_multiplicity
  _atom_site_fract_x
  _atom_site_fract_y
  _atom_site_fract_z
  _atom_site_occupancy
  C   C1        1.0  0.22999  0.17751  0.32529  1.0000
  H   H1        1.0  0.10746  0.09178  0.01419  1.0000
  H   H2        1.0  0.25242  0.16428  0.32208  1.0000
  C   C2        1.0  0.08500  0.13966  0.01188  1.0000
  H   H3        1.0  0.06259  0.18745  0.01872  1.0000
  S   S1        1.0  0.03184  0.01886  0.31593  1.0000
  H   H4        1.0  0.02192  0.09544  0.14768  1.0000
  C   C3        1.0  0.15765  0.17098  0.30949  1.0000
  C   C4        1.0  0.07366  0.16725  0.03468  1.0000
  H   H5        1.0  0.10745  0.11587  0.19758  1.0000
  C   C5        1.0  0.09904  0.11349  0.03215  1.0000
  H   H6        1.0  0.03395  0.15243  0.15046  1.0000
  H   H7        1.0  0.04690  0.13060  0.19435  1.0000
  C   C6        1.0  0.07616  0.16860  0.07787  1.0000
  H   H8        1.0  0.11108  0.09195  0.08872  1.0000
  C   C7        1.0  0.08978  0.14190  0.09958  1.0000
  Fe  Fe1       1.0  0.06251  0.06881  0.26822  1.0000
  S   S2        1.0  0.07888  0.02472  0.22830  1.0000
  C   C8        1.0  0.10644  0.11372  0.16318  1.0000
  H   H9        1.0  0.11197  0.21392  0.15397  1.0000
  H   H10       1.0  0.17547  0.12195  0.28945  1.0000
  N   N1        1.0  0.09159  0.14360  0.14534  1.0000
  H   H11       1.0  0.08317  0.07802  0.15304  1.0000
  H   H12       1.0  0.12650  0.19172  0.19676  1.0000
  S   S3        1.0  0.10386  0.14381  0.28388  1.0000
  H   H13       1.0  0.06689  0.19042  0.09417  1.0000
  H   H14       1.0  0.15689  0.20194  0.15073  1.0000
  C   C9        1.0  0.10118  0.11415  0.07530  1.0000
  C   C10       1.0  0.12307  0.18983  0.16228  1.0000
  C   C11       1.0  0.04670  0.13002  0.15998  1.0000
  H   H15       1.0  0.14067  0.12278  0.15462  1.0000
  C   C12       1.0  0.18638  0.15342  0.30679  1.0000
  C   C13       1.0  0.01005  0.15676  0.41592  1.0000
  H   H16       1.0  0.34172  0.14115  0.39688  1.0000
  C   C14       1.0  0.21565  0.23557  0.35139  1.0000
  S   S4        1.0  0.04853  0.35803  0.54765  1.0000
  S   S5        1.0  0.38059  0.05116  0.52738  1.0000
  Fe  Fe2       1.0  0.08132  0.34449  0.60191  1.0000
  S   S6        1.0  0.15190  0.35988  0.61368  1.0000
  Fe  Fe3       1.0  0.39330  0.01634  0.57881  1.0000
  Fe  Fe4       1.0  0.32834  0.31534  0.51347  1.0000
  S   S7        1.0  0.37503  0.31303  0.46830  1.0000
  S   S8        1.0  0.30462  0.27200  0.56742  1.0000
  Fe  Fe5       1.0  0.31061  0.37727  0.46352  1.0000
  S   S9        1.0  0.35466  0.37908  0.41360  1.0000
  S   S10       1.0  0.27223  0.41414  0.46131  1.0000
  Fe  Fe6       1.0  0.32267  0.30469  0.41997  1.0000
  Fe  Fe7       1.0  0.40278  0.38762  0.46674  1.0000
  S   S11       1.0  0.47615  0.44075  0.46354  1.0000
  S   S12       1.0  0.27472  0.30270  0.46549  1.0000
  S   S13       1.0  0.36011  0.39013  0.51613  1.0000
  H   H17       1.0  0.19397  0.18632  0.63672  1.0000
  H   H18       1.0  0.12206  0.22983  0.51685  1.0000
  S   S14       1.0  0.29978  0.24732  0.37107  1.0000
  H   H19       1.0  0.29801  0.20555  0.45193  1.0000
  S   S15       1.0  0.30187  0.05216  0.58173  1.0000
  Fe  Fe8       1.0  0.37573  0.09424  0.57830  1.0000
  S   S16       1.0  0.41268  0.16902  0.57687  1.0000
  H   H20       1.0  0.28855  0.17715  0.49893  1.0000
  H   H21       1.0  0.34414  0.21573  0.48538  1.0000
  H   H22       1.0  0.09310  0.14504  0.37539  1.0000
  H   H23       1.0  0.35128  0.47164  0.52782  1.0000
  C   C15       1.0  0.33474  0.24375  0.57224  1.0000
  C   C16       1.0  0.31373  0.19960  0.58415  1.0000
  C   C17       1.0  0.33728  0.17613  0.58556  1.0000
  C   C18       1.0  0.38211  0.19719  0.57609  1.0000
  C   C19       1.0  0.40327  0.24167  0.56526  1.0000
  C   C20       1.0  0.37954  0.26480  0.56299  1.0000
  H   H24       1.0  0.27908  0.18335  0.59149  1.0000
  H   H25       1.0  0.32076  0.14197  0.59406  1.0000
  H   H26       1.0  0.43800  0.25815  0.55807  1.0000
  H   H27       1.0  0.39612  0.29915  0.55446  1.0000
  H   H28       1.0  0.10721  0.31052  0.50794  1.0000
  C   C21       1.0  0.18488  0.37596  0.57117  1.0000
  C   C22       1.0  0.17697  0.39777  0.53919  1.0000
  C   C23       1.0  0.20447  0.41051  0.50566  1.0000
  C   C24       1.0  0.23891  0.40026  0.50373  1.0000
  C   C25       1.0  0.24617  0.37790  0.53547  1.0000
  C   C26       1.0  0.21972  0.36647  0.56944  1.0000
  H   H29       1.0  0.15026  0.40547  0.54068  1.0000
  H   H30       1.0  0.19873  0.42771  0.48103  1.0000
  H   H31       1.0  0.27229  0.36946  0.53411  1.0000
  H   H32       1.0  0.22593  0.34961  0.59408  1.0000
  H   H33       1.0  0.37065  0.47009  0.45865  1.0000
  C   C27       1.0  0.26773  0.11489  0.43848  1.0000
  C   C28       1.0  0.03554  0.19669  0.44011  1.0000
  Fe  Fe9       1.0  0.31843  0.01730  0.63005  1.0000
  H   H34       1.0  0.23582  0.03920  0.64226  1.0000
  H   H35       1.0  0.14710  0.01966  0.40134  1.0000
  C   C29       1.0  0.13647  0.50463  0.54831  1.0000
  H   H36       1.0  0.18291  0.25090  0.64263  1.0000
  C   C30       1.0  0.24474  0.21849  0.34796  1.0000
  H   H37       1.0  0.06297  0.28499  0.46871  1.0000
  H   H38       1.0  0.42521  0.48301  0.47695  1.0000
  C   C31       1.0  0.07715  0.15942  0.39382  1.0000
  H   H39       1.0  0.13884  0.21471  0.41720  1.0000
  H   H40       1.0  0.16264  0.29012  0.42208  1.0000
  S   S17       1.0  0.39297  0.06270  0.62970  1.0000
  C   C32       1.0  0.50375  0.05048  0.52014  1.0000
  H   H41       1.0  0.46291  0.45778  0.54975  1.0000
  H   H42       1.0  0.34339  0.11095  0.46498  1.0000
  H   H43       1.0  0.37241  0.16612  0.48897  1.0000
  H   H44       1.0  0.37404  0.19590  0.42288  1.0000
  H   H45       1.0  0.17543  0.09645  0.37875  1.0000
  H   H46       1.0  0.15927  0.33064  0.45489  1.0000
  C   C33       1.0  0.33843  0.13777  0.47965  1.0000
  C   C34       1.0  0.33947  0.16831  0.41434  1.0000
  H   H47       1.0  0.25007  0.15620  0.40196  1.0000
  H   H48       1.0  0.32129  0.12592  0.50875  1.0000
  C   C35       1.0  0.23922  0.12314  0.41229  1.0000
  C   C36       1.0  0.14137  0.25730  0.49629  1.0000
  C   C37       1.0  0.08516  0.27851  0.48958  1.0000
  N   N2        1.0  0.31328  0.15151  0.45130  1.0000
  C   C38       1.0  0.20723  0.03675  0.43797  1.0000
  C   C39       1.0  0.31075  0.18892  0.47276  1.0000
  C   C40       1.0  0.19636  0.08914  0.39899  1.0000
  H   H49       1.0  0.11736  0.30104  0.41367  1.0000
  H   H50       1.0  0.48667  0.06953  0.52318  1.0000
  H   H51       1.0  0.16182  0.28855  0.51622  1.0000
  N   N3        1.0  0.11119  0.26234  0.46606  1.0000
  H   H52       1.0  0.13550  0.47561  0.56130  1.0000
  H   H53       1.0  0.22676  0.26730  0.36833  1.0000
  H   H54       1.0  0.32462  0.18232  0.39268  1.0000
  C   C41       1.0  0.49567  0.48347  0.54227  1.0000
  C   C42       1.0  0.10300  0.19936  0.41787  1.0000
  H   H55       1.0  0.06418  0.25404  0.51195  1.0000
  H   H56       1.0  0.12042  0.26695  0.64119  1.0000
  H   H57       1.0  0.16556  0.24988  0.48113  1.0000
  H   H58       1.0  0.26917  0.06100  0.47148  1.0000
  C   C43       1.0  0.48931  0.01142  0.54130  1.0000
  C   C44       1.0  0.08300  0.21941  0.44167  1.0000
  C   C45       1.0  0.13871  0.29743  0.43795  1.0000
  C   C46       1.0  0.25030  0.07052  0.45118  1.0000
  C   C47       1.0  0.18039  0.04594  0.41172  1.0000
  S   S18       1.0  0.04867  0.36468  0.65006  1.0000
  S   S19       1.0  0.03140  0.27157  0.60104  1.0000
  H   H59       1.0  0.39479  0.28298  0.65381  1.0000
  H   H60       1.0  0.40653  0.48890  0.54970  1.0000
  H   H61       1.0  0.15080  0.22641  0.33329  1.0000
  C   C48       1.0  0.40480  0.49832  0.46739  1.0000
  C   C49       1.0  0.03079  0.13826  0.39270  1.0000
  H   H62       1.0  0.17683  0.50625  0.49887  1.0000
  C   C50       1.0  0.38460  0.50126  0.53676  1.0000
  Fe  Fe10      1.0  0.01183  0.37389  0.59555  1.0000
  H   H63       1.0  0.01710  0.20910  0.45701  1.0000
  C   C51       1.0  0.17261  0.21229  0.33157  1.0000
  H   H64       1.0  0.00862  0.48478  0.45403  1.0000
  H   H65       1.0  0.01158  0.43525  0.50637  1.0000
  H   H66       1.0  0.01093  0.10761  0.37354  1.0000
  S   S20       1.0  0.02499  0.04646  0.75810  1.0000
  C   C52       1.0  0.15193  0.23558  0.70191  1.0000
  Fe  Fe11      1.0  0.03922  0.09001  0.81546  1.0000
  S   S21       1.0  0.09551  0.08010  0.83947  1.0000
  S   S22       1.0  0.04803  0.15998  0.81671  1.0000
  C   C53       1.0  0.33926  0.18746  0.70632  1.0000
  C   C54       1.0  0.13688  0.20250  0.73158  1.0000
  C   C55       1.0  0.18163  0.00733  0.74772  1.0000
  C   C56       1.0  0.29809  0.22863  0.70194  1.0000
  H   H67       1.0  0.31208  0.08933  0.75305  1.0000
  H   H68       1.0  0.30787  0.13603  0.77398  1.0000
  C   C57       1.0  0.22118  0.03039  0.67171  1.0000
  H   H69       1.0  0.15382  0.28444  0.77129  1.0000
  C   C58       1.0  0.17218  0.22827  0.66731  1.0000
  C   C59       1.0  0.37278  0.22141  0.68397  1.0000
  H   H70       1.0  0.09641  0.25352  0.75140  1.0000
  H   H71       1.0  0.10152  0.29518  0.67531  1.0000
  C   C60       1.0  0.18638  0.31653  0.69752  1.0000
  C   C61       1.0  0.30795  0.11825  0.74467  1.0000
  H   H72       1.0  0.39137  0.18697  0.76841  1.0000
  C   C62       1.0  0.38700  0.16403  0.74136  1.0000
  C   C63       1.0  0.01483  0.16816  0.73952  1.0000
  H   H73       1.0  0.13050  0.14005  0.74988  1.0000
  C   C64       1.0  0.36918  0.25798  0.67163  1.0000
  Fe  Fe12      1.0  0.07865  0.03295  0.78312  1.0000
  N   N4        1.0  0.34355  0.14860  0.71823  1.0000
  Fe  Fe13      1.0  0.04278  0.02116  0.87157  1.0000
  C   C65       1.0  0.18742  0.04002  0.68210  1.0000
  H   H74       1.0  0.11996  0.20425  0.75839  1.0000
  H   H75       1.0  0.41582  0.18193  0.72189  1.0000
  H   H76       1.0  0.21449  0.32125  0.71881  1.0000
  H   H77       1.0  0.16741  0.13022  0.68987  1.0000
  H   H78       1.0  0.27436  0.10319  0.72846  1.0000
  H   H79       1.0  0.18220  0.34650  0.70188  1.0000
  C   C66       1.0  0.02430  0.18189  0.78170  1.0000
  H   H80       1.0  0.40146  0.21930  0.67459  1.0000
  H   H81       1.0  0.27405  0.16788  0.73130  1.0000
  C   C67       1.0  0.01830  0.21716  0.79650  1.0000
  C   C68       1.0  0.10984  0.26778  0.67304  1.0000
  C   C69       1.0  0.33173  0.26137  0.68020  1.0000
  H   H82       1.0  0.26888  0.23132  0.70833  1.0000
  C   C70       1.0  0.34150  0.12204  0.68043  1.0000
  C   C71       1.0  0.30158  0.19214  0.71497  1.0000
  H   H83       1.0  0.19656  0.31758  0.66531  1.0000
  N   N5        1.0  0.14473  0.27458  0.70483  1.0000
  S   S23       1.0  0.12564  0.04264  0.73122  1.0000
  C   C72       1.0  0.13004  0.28134  0.74567  1.0000
  H   H84       1.0  0.38989  0.13544  0.75290  1.0000
  H   H85       1.0  0.12690  0.31203  0.74773  1.0000
  H   H86       1.0  0.08260  0.13819  0.97838  1.0000
  C   C73       1.0  0.16746  0.02867  0.72014  1.0000
  H   H87       1.0  0.34406  0.09209  0.68796  1.0000
  C   C74       1.0  0.16342  0.15951  0.69318  1.0000
  C   C75       1.0  0.14269  0.16517  0.72710  1.0000
  H   H88       1.0  0.02079  0.14201  0.72752  1.0000
  H   H89       1.0  0.07852  0.23576  0.67630  1.0000
  H   H90       1.0  0.02590  0.22839  0.82884  1.0000
  H   H91       1.0  0.30947  0.11003  0.66204  1.0000
  C   C76       1.0  0.23575  0.00951  0.69943  1.0000
  C   C77       1.0  0.17820  0.19102  0.66334  1.0000
  H   H92       1.0  0.32842  0.28895  0.66906  1.0000
  H   H93       1.0  0.36896  0.14161  0.65996  1.0000
  H   H94       1.0  0.17655  0.05631  0.66042  1.0000
  Fe  Fe14      1.0  0.04247  0.97196  0.27414  1.0000
  H   H95       1.0  0.12717  0.86726  0.29736  1.0000
  H   H96       1.0  0.07637  0.78707  0.29871  1.0000
  C   C78       1.0  0.10646  0.80293  0.31898  1.0000
  S   S24       1.0  0.07295  0.93742  0.31153  1.0000
  H   H97       1.0  0.24409  0.96727  0.29958  1.0000
  C   C79       1.0  0.21870  0.93127  0.30095  1.0000
  H   H98       1.0  0.19004  0.92584  0.28009  1.0000
  C   C80       1.0  0.13608  0.84883  0.31824  1.0000
  C   C81       1.0  0.01290  0.00239  0.07360  1.0000
  C   C82       1.0  0.04664  0.99293  0.06351  1.0000
  H   H99       1.0  0.06357  0.98512  0.08765  1.0000
  C   C83       1.0  0.05827  0.99305  0.02199  1.0000
  H   H100      1.0  0.08429  0.98547  0.01493  1.0000
  C   C84       1.0  0.01369  0.84586  0.30019  1.0000
  Fe  Fe15      1.0  0.01096  0.99992  0.19583  1.0000
  H   H101      1.0  0.23281  0.91102  0.28757  1.0000
  C   C85       1.0  0.04587  0.88122  0.32627  1.0000
  Fe  Fe16      1.0  0.08278  0.72859  0.48144  1.0000
  S   S25       1.0  0.05478  0.68366  0.42399  1.0000
  S   S26       1.0  0.15685  0.76307  0.49546  1.0000
  H   H102      1.0  0.16572  0.92043  0.55939  1.0000
  C   C86       1.0  0.03600  0.87598  0.64360  1.0000
  Fe  Fe17      1.0  0.30817  0.00514  0.53660  1.0000
  C   C87       1.0  0.24774  0.93606  0.37012  1.0000
  H   H103      1.0  0.26637  0.91866  0.36117  1.0000
  C   C88       1.0  0.11431  0.56128  0.54978  1.0000
  S   S27       1.0  0.25404  0.97251  0.48586  1.0000
  S   S28       1.0  0.32013  0.96695  0.58505  1.0000
  C   C89       1.0  0.18434  0.82087  0.48963  1.0000
  C   C90       1.0  0.22948  0.84684  0.50247  1.0000
  C   C91       1.0  0.25124  0.89345  0.50071  1.0000
  C   C92       1.0  0.22784  0.91418  0.48636  1.0000
  C   C93       1.0  0.18309  0.88817  0.47227  1.0000
  C   C94       1.0  0.16143  0.84154  0.47379  1.0000
  H   H104      1.0  0.24759  0.83100  0.51423  1.0000
  H   H105      1.0  0.28632  0.91320  0.50998  1.0000
  H   H106      1.0  0.16492  0.90400  0.46073  1.0000
  H   H107      1.0  0.12710  0.82175  0.46257  1.0000
  H   H108      1.0  0.12689  0.64835  0.54944  1.0000
  H   H109      1.0  0.20481  0.98042  0.35927  1.0000
  H   H110      1.0  0.08429  0.57472  0.45127  1.0000
  S   S29       1.0  0.44471  0.99277  0.57521  1.0000
  H   H111      1.0  0.18397  0.84292  0.57767  1.0000
  H   H112      1.0  0.15724  0.77823  0.39664  1.0000
  C   C95       1.0  0.07315  0.84200  0.60748  1.0000
  C   C96       1.0  0.18486  0.92038  0.58766  1.0000
  C   C97       1.0  0.11308  0.63648  0.51710  1.0000
  H   H113      1.0  0.11408  0.63169  0.43753  1.0000
  C   C98       1.0  0.11407  0.52437  0.56663  1.0000
  H   H114      1.0  0.07711  0.61115  0.51738  1.0000
  S   S30       1.0  0.03784  0.67725  0.52359  1.0000
  C   C99       1.0  0.17532  0.87059  0.34491  1.0000
  H   H115      1.0  0.17829  0.57092  0.46859  1.0000
  H   H116      1.0  0.20148  0.66560  0.52522  1.0000
  C   C100      1.0  0.04201  0.82699  0.37514  1.0000
  C   C101      1.0  0.11808  0.60488  0.45186  1.0000
  H   H117      1.0  0.37028  0.56611  0.51076  1.0000
  C   C102      1.0  0.05957  0.87150  0.36394  1.0000
  C   C103      1.0  0.11588  0.87801  0.62157  1.0000
  C   C104      1.0  0.03396  0.84121  0.61850  1.0000
  C   C105      1.0  0.15162  0.84051  0.58504  1.0000
  H   H118      1.0  0.50112  0.95682  0.55279  1.0000
  C   C106      1.0  0.16028  0.55897  0.49610  1.0000
  H   H119      1.0  0.19467  0.00327  0.44839  1.0000
  H   H120      1.0  0.50093  0.65558  0.58594  1.0000
  H   H121      1.0  0.13833  0.59664  0.43124  1.0000
  H   H122      1.0  0.13274  0.80896  0.60098  1.0000
  N   N6        1.0  0.40461  0.52865  0.50105  1.0000
  H   H123      1.0  0.20527  0.64669  0.47397  1.0000
  N   N7        1.0  0.15821  0.88009  0.61086  1.0000
  H   H124      1.0  0.37910  0.52010  0.56219  1.0000
  H   H125      1.0  0.13360  0.83719  0.55489  1.0000
  H   H126      1.0  0.18617  0.68596  0.48097  1.0000
  H   H127      1.0  0.11457  0.66568  0.50207  1.0000
  N   N8        1.0  0.13819  0.61849  0.49473  1.0000
  H   H128      1.0  0.27060  0.97259  0.36797  1.0000
  S   S31       1.0  0.03983  0.76005  0.47372  1.0000
  C   C107      1.0  0.49725  0.63286  0.56012  1.0000
  H   H129      1.0  0.06878  0.81384  0.58794  1.0000
  H   H130      1.0  0.19532  0.95198  0.60652  1.0000
  C   C108      1.0  0.18240  0.84364  0.37301  1.0000
  H   H131      1.0  0.05365  0.82011  0.40378  1.0000
  H   H132      1.0  0.21639  0.88405  0.64218  1.0000
  C   C109      1.0  0.15962  0.52192  0.51313  1.0000
  H   H133      1.0  0.08436  0.89849  0.38443  1.0000
  H   H134      1.0  0.24104  0.93164  0.40333  1.0000
  C   C110      1.0  0.13759  0.57981  0.51388  1.0000
  H   H135      1.0  0.09523  0.57400  0.56510  1.0000
  H   H136      1.0  0.21068  0.85709  0.39516  1.0000
  C   C111      1.0  0.01088  0.79148  0.34847  1.0000
  H   H137      1.0  0.17159  0.93447  0.39028  1.0000
  C   C112      1.0  0.07728  0.91184  0.65771  1.0000
  C   C113      1.0  0.18481  0.65563  0.49362  1.0000
  C   C114      1.0  0.37537  0.54604  0.48619  1.0000
  C   C115      1.0  0.44955  0.56648  0.51383  1.0000
  H   H138      1.0  0.21615  0.92210  0.57757  1.0000
  H   H139      1.0  0.38988  0.56771  0.45997  1.0000
  H   H140      1.0  0.48830  0.55192  0.46952  1.0000
  H   H141      1.0  0.15273  0.93521  0.33838  1.0000
  C   C116      1.0  0.45509  0.59748  0.54679  1.0000
  C   C117      1.0  0.48875  0.57388  0.49442  1.0000
  H   H142      1.0  0.42691  0.59430  0.56286  1.0000
  C   C118      1.0  0.18281  0.94346  0.35855  1.0000
  N   N9        1.0  0.20587  0.91942  0.34384  1.0000
  H   H143      1.0  0.34157  0.51825  0.47529  1.0000
  H   H144      1.0  0.41784  0.51601  0.43876  1.0000
  C   C119      1.0  0.15190  0.79791  0.37414  1.0000
  C   C120      1.0  0.18452  0.88302  0.64913  1.0000
  C   C121      1.0  0.11662  0.91294  0.64689  1.0000
  H   H145      1.0  0.09543  0.51029  0.59364  1.0000
  H   H146      1.0  0.14772  0.94141  0.65866  1.0000
  C   C122      1.0  0.11405  0.77763  0.34716  1.0000
  H   H147      1.0  0.08995  0.74239  0.34855  1.0000
  H   H148      1.0  0.16658  0.99833  0.77707  1.0000
  S   S32       1.0  0.02999  0.97271  0.81619  1.0000
  H   H149      1.0  0.22647  0.98154  0.75903  1.0000
  C   C123      1.0  0.21561  0.99785  0.73737  1.0000
  S   S33       1.0  0.27912  0.99785  0.68819  1.0000
  H   H150      1.0  0.16529  0.85395  0.66807  1.0000
  H   H151      1.0  0.19429  0.91384  0.66894  1.0000
  S   S34       1.0  0.05402  0.00333  0.93772  1.0000
  H   H152      1.0  0.07891  0.93899  0.67726  1.0000
  C   C124      1.0  0.03698  0.00317  0.98965  1.0000
  H   H153      1.0  0.82471  0.04799  0.28375  1.0000
  C   C125      1.0  0.86575  0.01923  0.30085  1.0000
  C   C126      1.0  0.00335  0.01281  0.99973  1.0000
  S   S35       1.0  0.99629  0.04668  0.23461  1.0000
  C   C127      1.0  0.83641  0.03576  0.30875  1.0000
  H   H154      1.0  0.96534  0.01973  0.04830  1.0000
  C   C128      1.0  0.99138  0.01221  0.04121  1.0000
  H   H155      1.0  0.87601  0.01837  0.26986  1.0000
  H   H156      1.0  0.83728  0.18434  0.42954  1.0000
  N   N10       1.0  0.82571  0.23104  0.46603  1.0000
  H   H157      1.0  0.82685  0.02099  0.41145  1.0000
  Fe  Fe18      1.0  0.73814  0.03898  0.50452  1.0000
  S   S36       1.0  0.78572  0.07294  0.55986  1.0000
  S   S37       1.0  0.73296  0.08170  0.45690  1.0000
  C   C129      1.0  0.91260  0.34699  0.51091  1.0000
  S   S38       1.0  0.96103  0.23500  0.49979  1.0000
  S   S39       1.0  0.95520  0.30277  0.59645  1.0000
  H   H158      1.0  0.78355  0.22890  0.41430  1.0000
  C   C130      1.0  0.54080  0.06536  0.49541  1.0000
  Fe  Fe19      1.0  0.73701  0.03310  0.41121  1.0000
  C   C131      1.0  0.67898  0.01746  0.61336  1.0000
  Fe  Fe20      1.0  0.65876  0.03414  0.45637  1.0000
  H   H159      1.0  0.79800  0.29403  0.44990  1.0000
  H   H160      1.0  0.79982  0.21447  0.52618  1.0000
  H   H161      1.0  0.94457  0.36257  0.52836  1.0000
  H   H162      1.0  0.90756  0.28293  0.50748  1.0000
  C   C132      1.0  0.84855  0.27979  0.47703  1.0000
  C   C133      1.0  0.85341  0.22081  0.43859  1.0000
  C   C134      1.0  0.91562  0.18679  0.51732  1.0000
  C   C135      1.0  0.90717  0.18375  0.55930  1.0000
  C   C136      1.0  0.86799  0.14782  0.57249  1.0000
  C   C137      1.0  0.83704  0.11484  0.54374  1.0000
  C   C138      1.0  0.84640  0.11680  0.50198  1.0000
  C   C139      1.0  0.88574  0.15258  0.48884  1.0000
  H   H163      1.0  0.93032  0.20947  0.58171  1.0000
  H   H164      1.0  0.86113  0.14645  0.60485  1.0000
  H   H165      1.0  0.82312  0.09104  0.47961  1.0000
  H   H166      1.0  0.89233  0.15431  0.45640  1.0000
  H   H167      1.0  0.85137  0.21490  0.52065  1.0000
  Fe  Fe21      1.0  0.99453  0.28661  0.55242  1.0000
  H   H168      1.0  0.85953  0.23906  0.40982  1.0000
  C   C140      1.0  0.61147  0.07741  0.60886  1.0000
  H   H169      1.0  0.65014  0.06826  0.54124  1.0000
  H   H170      1.0  0.75789  0.21846  0.46355  1.0000
  Fe  Fe22      1.0  0.99608  0.29188  0.64555  1.0000
  C   C141      1.0  0.85209  0.35292  0.47855  1.0000
  C   C142      1.0  0.51030  0.48265  0.50275  1.0000
  H   H171      1.0  0.55171  0.09575  0.47944  1.0000
  H   H172      1.0  0.91020  0.40815  0.51012  1.0000
  C   C143      1.0  0.64313  0.02651  0.61020  1.0000
  C   C144      1.0  0.82982  0.30712  0.46683  1.0000
  S   S40       1.0  0.61173  0.06286  0.46121  1.0000
  C   C145      1.0  0.00144  0.47017  0.55749  1.0000
  C   C146      1.0  0.68359  0.10230  0.64200  1.0000
  C   C147      1.0  0.83699  0.02000  0.38050  1.0000
  H   H173      1.0  0.83393  0.03876  0.61483  1.0000
  H   H174      1.0  0.67901  0.12442  0.56355  1.0000
  S   S41       1.0  0.78116  0.05287  0.35639  1.0000
  H   H175      1.0  0.68849  0.13679  0.64239  1.0000
  H   H176      1.0  0.80143  0.16966  0.49736  1.0000
  S   S42       1.0  0.00155  0.43492  0.59642  1.0000
  C   C148      1.0  0.89091  0.30132  0.49903  1.0000
  C   C149      1.0  0.67261  0.08989  0.56784  1.0000
  H   H177      1.0  0.83737  0.37328  0.47053  1.0000
  H   H178      1.0  0.58792  0.05971  0.58162  1.0000
  C   C150      1.0  0.81928  0.20655  0.50414  1.0000
  H   H179      1.0  0.61934  0.11284  0.60808  1.0000
  C   C151      1.0  0.78115  0.21328  0.44421  1.0000
  H   H180      1.0  0.88654  0.23039  0.45356  1.0000
  N   N11       1.0  0.65216  0.07308  0.60740  1.0000
  H   H181      1.0  0.90388  0.09283  0.64443  1.0000
  C   C152      1.0  0.00673  0.46289  0.51584  1.0000
  H   H182      1.0  0.71324  0.04404  0.61387  1.0000
  C   C153      1.0  0.82098  0.03523  0.34839  1.0000
  H   H183      1.0  0.59358  0.06402  0.63736  1.0000
  C   C154      1.0  0.89323  0.37273  0.50073  1.0000
  H   H184      1.0  0.97389  0.14023  0.41493  1.0000
  H   H185      1.0  0.76501  0.17657  0.43648  1.0000
  C   C155      1.0  0.56393  0.04147  0.49135  1.0000
  H   H186      1.0  0.70484  0.09024  0.56536  1.0000
  H   H187      1.0  0.71741  0.10632  0.63995  1.0000
  H   H188      1.0  0.94364  0.04872  0.65561  1.0000
  C   C156      1.0  0.00521  0.49122  0.48619  1.0000
  C   C157      1.0  0.83086  0.00686  0.62143  1.0000
  C   C158      1.0  0.88979  0.08281  0.67512  1.0000
  S   S43       1.0  0.96461  0.24627  0.69787  1.0000
  N   N12       1.0  0.88494  0.03892  0.68524  1.0000
  S   S44       1.0  0.98807  0.03498  0.85135  1.0000
  H   H189      1.0  0.85732  0.08230  0.67518  1.0000
  H   H190      1.0  0.91262  0.11017  0.69817  1.0000
  C   C159      1.0  0.99212  0.22425  0.72812  1.0000
  C   C160      1.0  0.99865  0.18926  0.71278  1.0000
  H   H191      1.0  0.98661  0.02091  0.97565  1.0000
  C   C161      1.0  0.93009  0.04370  0.68678  1.0000
  H   H192      1.0  0.99049  0.17807  0.68048  1.0000
  H   H193      1.0  0.83298  0.02391  0.72703  1.0000
  H   H194      1.0  0.88877  0.05701  0.75032  1.0000
  C   C162      1.0  0.86748  0.02923  0.72699  1.0000
  C   C163      1.0  0.00183  0.23770  0.77012  1.0000
  H   H195      1.0  0.67102  0.08848  0.67227  1.0000
  H   H196      1.0  0.95397  0.07255  0.70789  1.0000
  H   H197      1.0  0.99594  0.26381  0.78255  1.0000
  H   H198      1.0  0.93037  0.01398  0.69878  1.0000
  S   S45       1.0  0.99619  0.00243  0.12567  1.0000
  S   S46       1.0  0.97548  0.94365  0.23931  1.0000
  H   H199      1.0  0.97270  0.77407  0.29015  1.0000
  Fe  Fe23      1.0  0.96655  0.99324  0.27975  1.0000
  C   C164      1.0  0.99662  0.80126  0.31110  1.0000
  H   H200      1.0  0.00316  0.85273  0.27090  1.0000
  S   S47       1.0  0.90918  0.97251  0.32269  1.0000
  H   H201      1.0  0.69454  0.86353  0.31630  1.0000
  H   H202      1.0  0.78062  0.91217  0.31721  1.0000
  H   H203      1.0  0.77914  0.86084  0.32565  1.0000
  H   H204      1.0  0.90827  0.84872  0.32176  1.0000
  S   S48       1.0  0.74667  0.99359  0.45947  1.0000
  H   H205      1.0  0.62188  0.79153  0.47094  1.0000
  Fe  Fe24      1.0  0.67205  0.95366  0.45597  1.0000
  S   S49       1.0  0.63928  0.87889  0.44988  1.0000
  H   H206      1.0  0.98652  0.91843  0.41068  1.0000
  H   H207      1.0  0.82178  0.58915  0.52424  1.0000
  C   C165      1.0  0.81819  0.92152  0.63357  1.0000
  S   S50       1.0  0.95841  0.72130  0.55953  1.0000
  Fe  Fe25      1.0  0.69982  0.75675  0.60126  1.0000
  H   H208      1.0  0.99048  0.56340  0.54903  1.0000
  S   S51       1.0  0.68655  0.81355  0.61245  1.0000
  Fe  Fe26      1.0  0.74602  0.71829  0.55031  1.0000
  S   S52       1.0  0.73638  0.66770  0.59622  1.0000
  S   S53       1.0  0.78619  0.72466  0.49524  1.0000
  Fe  Fe27      1.0  0.66661  0.65703  0.59845  1.0000
  S   S54       1.0  0.60181  0.59087  0.60367  1.0000
  C   C166      1.0  0.51217  0.98727  0.53690  1.0000
  S   S55       1.0  0.67497  0.70403  0.54885  1.0000
  S   S56       1.0  0.77144  0.77600  0.59709  1.0000
  C   C167      1.0  0.56697  0.55052  0.56369  1.0000
  C   C168      1.0  0.58147  0.54997  0.52404  1.0000
  C   C169      1.0  0.73999  0.91863  0.37983  1.0000
  H   H209      1.0  0.61444  0.57544  0.51675  1.0000
  C   C170      1.0  0.96406  0.90765  0.38216  1.0000
  C   C171      1.0  0.83748  0.72983  0.51196  1.0000
  C   C172      1.0  0.86346  0.72260  0.48381  1.0000
  C   C173      1.0  0.90222  0.72231  0.49789  1.0000
  C   C174      1.0  0.91511  0.72950  0.54010  1.0000
  C   C175      1.0  0.89069  0.73957  0.56774  1.0000
  C   C176      1.0  0.85173  0.73927  0.55378  1.0000
  H   H210      1.0  0.85270  0.71546  0.45138  1.0000
  H   H211      1.0  0.92128  0.71520  0.47622  1.0000
  H   H212      1.0  0.90083  0.74583  0.60034  1.0000
  H   H213      1.0  0.83225  0.74531  0.57576  1.0000
  C   C177      1.0  0.75405  0.79290  0.43138  1.0000
  H   H214      1.0  0.56774  0.66576  0.55163  1.0000
  C   C178      1.0  0.64945  0.85952  0.49573  1.0000
  C   C179      1.0  0.67065  0.88938  0.53010  1.0000
  C   C180      1.0  0.68026  0.87435  0.56636  1.0000
  C   C181      1.0  0.67019  0.82988  0.56791  1.0000
  C   C182      1.0  0.64891  0.79985  0.53363  1.0000
  C   C183      1.0  0.63812  0.81462  0.49759  1.0000
  H   H215      1.0  0.67982  0.92408  0.52878  1.0000
  H   H216      1.0  0.69661  0.89742  0.59296  1.0000
  H   H217      1.0  0.64064  0.76534  0.53490  1.0000
  C   C184      1.0  0.53063  0.60980  0.50766  1.0000
  C   C185      1.0  0.89262  0.85400  0.34931  1.0000
  H   H218      1.0  0.75872  0.76418  0.42639  1.0000
  H   H219      1.0  0.56499  0.51585  0.46338  1.0000
  H   H220      1.0  0.99182  0.51291  0.60115  1.0000
  C   C186      1.0  0.83320  0.61807  0.54715  1.0000
  C   C187      1.0  0.75150  0.81630  0.39804  1.0000
  H   H221      1.0  0.89436  0.81497  0.45833  1.0000
  H   H222      1.0  0.90363  0.79588  0.39315  1.0000
  C   C188      1.0  0.86570  0.00285  0.37252  1.0000
  H   H223      1.0  0.95811  0.93556  0.37453  1.0000
  H   H224      1.0  0.74028  0.93756  0.35261  1.0000
  C   C189      1.0  0.88764  0.90482  0.42492  1.0000
  C   C190      1.0  0.59212  0.94530  0.60859  1.0000
  Fe  Fe28      1.0  0.99153  0.70387  0.50953  1.0000
  C   C191      1.0  0.99940  0.52776  0.49777  1.0000
  C   C192      1.0  0.74162  0.56833  0.62294  1.0000
  C   C193      1.0  0.74371  0.84241  0.47831  1.0000
  C   C194      1.0  0.87984  0.00183  0.33257  1.0000
  C   C195      1.0  0.73837  0.57344  0.54877  1.0000
  H   H225      1.0  0.73458  0.89302  0.45288  1.0000
  C   C196      1.0  0.53496  0.63886  0.54071  1.0000
  C   C197      1.0  0.89936  0.87068  0.42322  1.0000
  H   H226      1.0  0.87034  0.63505  0.54945  1.0000
  N   N13       1.0  0.92207  0.86525  0.38735  1.0000
  C   C198      1.0  0.99512  0.53561  0.53953  1.0000
  H   H227      1.0  0.82433  0.64244  0.53448  1.0000
  H   H228      1.0  0.55840  0.91711  0.60608  1.0000
  C   C199      1.0  0.62812  0.93769  0.61167  1.0000
  C   C200      1.0  0.82827  0.57234  0.60274  1.0000
  C   C201      1.0  0.86652  0.84879  0.49034  1.0000
  C   C202      1.0  0.74990  0.80581  0.47139  1.0000
  H   H229      1.0  0.83982  0.88778  0.51736  1.0000
  H   H230      1.0  0.75126  0.78722  0.49710  1.0000
  C   C203      1.0  0.74511  0.85379  0.40396  1.0000
  S   S57       1.0  0.95633  0.65590  0.45446  1.0000
  C   C204      1.0  0.79511  0.92775  0.60090  1.0000
  C   C205      1.0  0.86652  0.91092  0.45856  1.0000
  H   H231      1.0  0.69863  0.81596  0.33113  1.0000
  C   C206      1.0  0.67035  0.54046  0.58525  1.0000
  H   H232      1.0  0.63436  0.52538  0.58503  1.0000
  H   H233      1.0  0.75273  0.58301  0.51928  1.0000
  C   C207      1.0  0.85631  0.88316  0.49134  1.0000
  H   H234      1.0  0.77184  0.89930  0.58069  1.0000
  S   S58       1.0  0.66202  0.99016  0.40471  1.0000
  H   H235      1.0  0.85753  0.82649  0.51548  1.0000
  S   S59       1.0  0.99045  0.73464  0.35953  1.0000
  C   C208      1.0  0.88771  0.84243  0.45691  1.0000
  C   C209      1.0  0.77972  0.89007  0.34185  1.0000
  H   H236      1.0  0.86523  0.58730  0.60331  1.0000
  H   H237      1.0  0.81186  0.90880  0.36068  1.0000
  H   H238      1.0  0.66986  0.83645  0.36235  1.0000
  C   C210      1.0  0.54919  0.00210  0.51212  1.0000
  H   H239      1.0  0.88541  0.88120  0.34214  1.0000
  H   H240      1.0  0.75933  0.57381  0.65255  1.0000
  H   H241      1.0  0.70917  0.91126  0.39553  1.0000
  H   H242      1.0  0.56628  0.98307  0.50916  1.0000
  H   H243      1.0  0.98279  0.90422  0.35631  1.0000
  H   H244      1.0  0.75368  0.80422  0.36753  1.0000
  C   C211      1.0  0.69186  0.55291  0.54856  1.0000
  H   H245      1.0  0.85798  0.93728  0.45920  1.0000
  H   H246      1.0  0.67228  0.54730  0.51988  1.0000
  H   H247      1.0  0.89488  0.92715  0.40019  1.0000
  N   N14       1.0  0.81409  0.60381  0.58784  1.0000
  C   C212      1.0  0.74103  0.86603  0.44526  1.0000
  H   H248      1.0  0.95100  0.82639  0.36408  1.0000
  H   H249      1.0  0.86019  0.82296  0.35229  1.0000
  C   C213      1.0  0.52395  0.51705  0.57256  1.0000
  H   H250      1.0  0.73987  0.85189  0.50947  1.0000
  C   C214      1.0  0.69933  0.84692  0.34325  1.0000
  H   H251      1.0  0.56022  0.61440  0.49298  1.0000
  C   C215      1.0  0.76477  0.58195  0.58620  1.0000
  C   C216      1.0  0.93376  0.82937  0.39127  1.0000
  N   N15       1.0  0.74120  0.87720  0.36802  1.0000
  H   H252      1.0  0.82174  0.66753  0.60815  1.0000
  C   C217      1.0  0.80150  0.97032  0.59474  1.0000
  S   S60       1.0  0.99742  0.56225  0.45895  1.0000
  S   S61       1.0  0.66417  0.99452  0.50707  1.0000
  C   C218      1.0  0.69515  0.54821  0.62235  1.0000
  Fe  Fe29      1.0  0.75788  0.72524  0.64353  1.0000
  H   H253      1.0  0.81260  0.88817  0.63858  1.0000
  C   C219      1.0  0.55333  0.51614  0.49384  1.0000
  H   H254      1.0  0.78324  0.97507  0.56938  1.0000
  H   H255      1.0  0.95685  0.83615  0.41879  1.0000
  H   H256      1.0  0.76931  0.94157  0.40061  1.0000
  H   H257      1.0  0.56983  0.99225  0.60504  1.0000
  H   H258      1.0  0.81838  0.56282  0.63464  1.0000
  C   C220      1.0  0.59926  0.98896  0.60795  1.0000
  C   C221      1.0  0.83388  0.64425  0.61675  1.0000
  H   H259      1.0  0.81315  0.54098  0.58241  1.0000
  S   S62       1.0  0.68737  0.70959  0.65120  1.0000
  H   H260      1.0  0.87100  0.66315  0.61675  1.0000
  H   H261      1.0  0.00174  0.81326  0.60749  1.0000
  H   H262      1.0  0.67814  0.53923  0.65086  1.0000
  H   H263      1.0  0.82566  0.63643  0.64924  1.0000
  H   H264      1.0  0.87670  0.98999  0.39742  1.0000
  H   H265      1.0  0.51253  0.51699  0.60318  1.0000
  C   C222      1.0  0.99583  0.50682  0.56905  1.0000
  H   H266      1.0  0.62240  0.90375  0.61153  1.0000
  C   C223      1.0  0.67147  0.97375  0.61422  1.0000
  H   H267      1.0  0.00550  0.87507  0.65216  1.0000
  Fe  Fe30      1.0  0.00802  0.71155  0.41886  1.0000
  H   H268      1.0  0.69950  0.96783  0.61589  1.0000
  C   C224      1.0  0.85476  0.00157  0.65533  1.0000
  Fe  Fe31      1.0  0.00681  0.63306  0.46581  1.0000
  Fe  Fe32      1.0  0.97807  0.99005  0.79488  1.0000
  S   S63       1.0  0.90686  0.94579  0.76829  1.0000
  H   H269      1.0  0.94863  0.90362  0.95764  1.0000
  C   C225      1.0  0.88321  0.89041  0.74600  1.0000
  C   C226      1.0  0.84004  0.87028  0.72690  1.0000
  C   C227      1.0  0.81929  0.82617  0.70941  1.0000
  C   C228      1.0  0.84085  0.80100  0.71205  1.0000
  C   C229      1.0  0.88390  0.82084  0.73160  1.0000
  C   C230      1.0  0.90529  0.86561  0.74809  1.0000
  H   H270      1.0  0.92071  0.84430  0.94752  1.0000
  H   H271      1.0  0.82209  0.88858  0.72608  1.0000
  H   H272      1.0  0.90069  0.80149  0.73397  1.0000
  H   H273      1.0  0.93836  0.88053  0.76302  1.0000
  H   H274      1.0  0.97196  0.88481  0.84904  1.0000
  N   N16       1.0  0.92622  0.88169  0.89382  1.0000
  H   H275      1.0  0.90338  0.79302  0.89076  1.0000
  C   C231      1.0  0.92085  0.87519  0.93859  1.0000
  C   C232      1.0  0.88836  0.84382  0.86960  1.0000
  C   C233      1.0  0.88182  0.79983  0.87117  1.0000
  C   C234      1.0  0.85766  0.84921  0.84346  1.0000
  C   C235      1.0  0.82359  0.81296  0.81964  1.0000
  H   H276      1.0  0.93494  0.93298  0.85304  1.0000
  C   C236      1.0  0.84774  0.95781  0.66028  1.0000
  S   S64       1.0  0.81358  0.74428  0.69286  1.0000
  C   C237      1.0  0.93033  0.92579  0.88623  1.0000
  C   C238      1.0  0.84797  0.76396  0.84676  1.0000
  H   H277      1.0  0.84432  0.73088  0.84752  1.0000
  H   H278      1.0  0.90059  0.92762  0.89567  1.0000
  H   H279      1.0  0.97147  0.85502  0.89336  1.0000
  H   H280      1.0  0.80130  0.81800  0.79904  1.0000
  C   C239      1.0  0.96869  0.88395  0.88306  1.0000
  H   H281      1.0  0.78593  0.81114  0.69495  1.0000
  C   C240      1.0  0.81920  0.77063  0.82073  1.0000
  H   H282      1.0  0.85982  0.88125  0.83979  1.0000
  H   H283      1.0  0.95959  0.95367  0.90422  1.0000
  H   H284      1.0  0.88900  0.87274  0.94782  1.0000
  H   H285      1.0  0.79375  0.74314  0.80087  1.0000
  H   H286      1.0  0.86475  0.95125  0.68527  1.0000
  H   H287      1.0  0.86641  0.99867  0.73847  1.0000
  H   H288      1.0  0.99831  0.91431  0.89788  1.0000
