data_image0
_chemical_formula_structural       FeS2FeSFeSFeS3HC2HC3H2NC2H2CSH12CHC2HC2HCSCH2C2H2CHCH3CH2NC2HC4HSC3H2CHC2H5C4H2CH3FeHSH2FeS2FeSFeSFeS3C2H2CHC4SCHCHCH2SH2CHCH4C2H2C2NCH7C3HCHC2SC2H2CSH4C2H3CNHFeH3FeS2FeS2FeSFeCS2C2SHCSNFeSCH2CFeS2FeS2FeSFeS3CH3C2H2CH2C4H2C6H4C2H4CH6C6H4C4FeCH4CH3CH5C3HCH2CHC3H7C2H2CSHCHCHCH3C2SHC5H3CH5CHC2HC2H2SC3HFeH2CH3C5H4CHNC2HNHN2H3CH2NC2H2CHCH2CHFeS2FeS2FeSFeS3CNSHCSNFeSCHSHFeS2FeS2FeSFeS3H2CH2FeH3C7H6C6H4C6H4C3HCH2C2NC6HC2H7CHC2H8CHCH8CH2C3H3CHNC9H8CNH3CH2CFeC2HC2HCHNH2C2HC4H2C3H2C4H3CH2SHCHC2HC5H4CHC2HCHCHCH2CHC2H2CFeHFeS2FeSFeS3FeS2H3CHS2NHFeSCFeS2CFeCHSH4FeHCHCH4CFeCH4C3HC3HC10H5NH3CHNHCHCHCHFeH3C3H3CH2SC3H5CHCHCHCHCH3NH6CH3C3HSCHCHCNC2H2NH3SC2HSC2HCHCH6CFeC2H2CHFeCFeS2FeSFeS3FeS2FeSC2H3SFeSCFeSHFeCSC2H2NCH2SH2CH3NHC2HCH3C3HC2H2CH3CHC3H2CH4C6H4C2SCHCHNC3NC2H7CHCHSHNH5C3H4CHC3HSCH4C4HC6H2C3H2SCH2CH2CHC3HCHSHSCHCHC4H5CHCFeH2FeS2FeS2FeS2FeHFeS3FeHSFeS2FeCFeHS2CSFeSHFeSFeHSFeS2FeS2FeSFeS3CFeS2FeS2FeSFeS3CHC6H4C6H4C6H5CHCHCHC5H2CHC9H4C2HC2H3C6H4CH3CHC6HCHCHCHC6HSH2CHCHNHCHCSHC3HC2SCH3CHC2H2CH7CH2CH2CHC7H2FeH4CNHCHSH2C7HC2HCH4NC9H14NC9H14NC8H4CH6C2FeH3CH5CH2C2H3C2HCHCHC2H2CNSCH3C2H4SH2C5NC2HCH5C3HC2HSC2H2C2H4C2HC6H3S2NHNCNCH3CHCH3SHC2H2C4H8CH8CH2CH3CH3C2H2SHFeSHFeSFeSFeS3FeS2FeS2FeHFeCS2HSFeSCFeSFeS2FeS2FeS2FeSFeS3HFeS2FeS2FeSFeS3CHC2H3CHC2HC6H4C6H4CH2CHC2H5CHC7H4C6H4C6H8SHC6H2FeH3SH4CH3SH2CH6CH3CHC2H2CHSC3HCNHCH4CHC2HNC9H17CH4C2NC4H2C4HNC2HCNC3H3CH3CH2C2H2CHC6H7NC9H14NC4H4C2NCH2CNC2H3CH5C3HCNHC2HCS2C3HC3H3CHC2H3SH3CHCHC2HCH3C5H4NH5CH9C4HCHSHCHC2H3FeSH2C2H2SH3NCHCH2CFeS2H2FeS2FeS2FeSFeS3FeS2FeSHFeSFeS3FeS2FeS2FeSFeS3FeS2FeS2FeSFeS3FeS2FeSFeSFeHS2C7H6C2HC2H3C3SH2C7H4C3HCH2CH6C6H4CHC2SH3CHC6H4CHC4HCH2C6H4CHC3HC4H2C6H4CHC2NC6NCH14CNC9H14NC2HC2H4SH2N2HNC9H12CHNC4H2S2CH2C2HC2HC3H2CHCH4CH3CHCHC3NH6C2HNCH5CHCH3C3H3CSHCHSH4C2H2CH2C2H6CHC4SC8HCH2C4H2SHCHC2H7C3HCHCH2SCNCH4C2H2NCHC3H7FeCHCH2CHC4HCH3C2HCH5C4HCH3C2H2CH2SHCHC2H6C2HC4H2CFeS2NCSFeS2FeS2FeSFeS3FeS2FeSCFeSFeS2HFeS2FeS2FeSFeS3FeS2FeSCFeSFeS3FeS2FeSFeSFeS3FeSHC6H4C5H4C2H3CSC7H5C2HNHC6H4C6H4C6H5SCSHC3H3C7H4C2HCH6C3H2CHCH5C3H2CH3C2H2CH4C2HCSHCNC9H14NC8H9CHNC9H14NH2C2HC3HCSHFeHC2H2CHC2H2C3HC2HFeH3CNHCNHCHNCH3CHC2H7CHCNHCH2CHC3HCHSH3NHNHC2HCH4CHCH2SH3CHCH4CH4CHC2HCHC3H2CSH4CH2C3H2CH4CH2C3H4CH2CHC2HC2H4CH2CH2CHCH2CSCH2CH5CH2C4SC2HCHFeSCSHC3SH2CS2FeS2FeSHFeSHSHC4HCHC4HSCHC2HNFeSHCH2CH2CSFeH2C6H4C2FeNC2H3CH9C3HCHNSCHCH2CH2C3FeNHCFeH2NHCH7C2H2C2SCH5CH2CH8CH2FeHCFeH2FeSHSHFeHSFeCH3CHFeS2FeSC2FeSHSHC4NCHCH2C2H2CH5C6HCNCHC2H4CHC2HC6H4C4HCHCHCHCHSH4C2HS2H2CHCHCH5CS2H2CHC2H3CH2CNC4H2CHC2H5CSHCHSC2HFeSCFeS2FeS2FeSFeS3FeS2FeS2FeSFeS3FeS2FeS2FeSFeS3C5HC2HCHC6H4C3H2CH4C2H2CH2C2HC6H4NHC4H3C6H4C2HNCNC4HCHC2H8SCHNH2CHSH2CH2C2H3C3NH5C6H5C3HCH5C2H2C3H2C2HCHC3H2NC5H10CNC5H2CH4C2H5C2H6CNCH2C2H2CH10C4HNH2NHCH5CH3CHCH2CHCH2FeS2FeS2FeS2FeSFeS3FeS2FeS2FeSFeS3FeS2FeS2FeSFeHS2H3C8H4C2HC3HCHC7H4C2HCHCHNH2CH2C2H3C6H8C2H2CH2CHCHC3H2NHCH2NC9H11CH2CHCHCHCH4CH4C2H4C2NHC5H2C2HCH7CHSHC3H2SCH4C2H3C3H2CHCHCHCSH2C3H4FeHSCH2FeS2H2CH2CSCSCHFeHFeS2CHC2H2CH2CHC2SH2CH3CHC2NHC2H4FeSC3H2CFeC2
_chemical_formula_sum              "Fe192 S384 H1728 C1440 N96"
_cell_length_a       88.2589
_cell_length_b       88.1563
_cell_length_c       47.0852
_cell_angle_alpha    87.5286
_cell_angle_beta     87.4947
_cell_angle_gamma    108.273

_space_group_name_H-M_alt    "P 1"
_space_group_IT_number       1

loop_
  _space_group_symop_operation_xyz
  'x, y, z'

loop_
  _atom_site_type_symbol
  _atom_site_label
  _atom_site_symmetry_multiplicity
  _atom_site_fract_x
  _atom_site_fract_y
  _atom_site_fract_z
  _atom_site_occupancy
  Fe  Fe1       1.0  0.05017  0.42906  0.35329  1.0000
  S   S1        1.0  0.07402  0.43025  0.37035  1.0000
  S   S2        1.0  0.03443  0.40705  0.33315  1.0000
  Fe  Fe2       1.0  0.05381  0.46301  0.36714  1.0000
  S   S3        1.0  0.07759  0.46680  0.38613  1.0000
  Fe  Fe3       1.0  0.08363  0.45480  0.34738  1.0000
  S   S4        1.0  0.10834  0.46765  0.32391  1.0000
  Fe  Fe4       1.0  0.06625  0.44224  0.40741  1.0000
  S   S5        1.0  0.06663  0.43214  0.45311  1.0000
  S   S6        1.0  0.06031  0.45255  0.32766  1.0000
  S   S7        1.0  0.04195  0.43944  0.39112  1.0000
  H   H1        1.0  0.10082  0.44865  0.27306  1.0000
  C   C1        1.0  0.01500  0.39427  0.34459  1.0000
  C   C2        1.0  0.02060  0.41049  0.45020  1.0000
  H   H2        1.0  0.01790  0.37555  0.31916  1.0000
  C   C3        1.0  0.11778  0.46936  0.28882  1.0000
  C   C4        1.0  0.11165  0.45855  0.26805  1.0000
  C   C5        1.0  0.11979  0.46026  0.24093  1.0000
  H   H3        1.0  0.11510  0.45156  0.22538  1.0000
  H   H4        1.0  0.20538  0.47020  0.26096  1.0000
  N   N1        1.0  0.02868  0.38773  0.43118  1.0000
  C   C6        1.0  0.04037  0.39851  0.40972  1.0000
  C   C7        1.0  0.01600  0.43557  0.30531  1.0000
  H   H5        1.0  0.07507  0.46586  0.46749  1.0000
  H   H6        1.0  0.17783  0.48224  0.21384  1.0000
  C   C8        1.0  0.02220  0.37198  0.41854  1.0000
  S   S8        1.0  0.03986  0.48036  0.36231  1.0000
  H   H7        1.0  0.16336  0.47267  0.34163  1.0000
  H   H8        1.0  0.03187  0.36703  0.41180  1.0000
  H   H9        1.0  0.01398  0.36289  0.43400  1.0000
  H   H10       1.0  0.04660  0.37975  0.45123  1.0000
  H   H11       1.0  0.21655  0.49130  0.07531  1.0000
  H   H12       1.0  0.14112  0.45104  0.32407  1.0000
  H   H13       1.0  0.00106  0.49260  0.38899  1.0000
  H   H14       1.0  0.04769  0.40970  0.41869  1.0000
  H   H15       1.0  0.04905  0.39290  0.40069  1.0000
  H   H16       1.0  0.00082  0.48877  0.35153  1.0000
  H   H17       1.0  0.99500  0.37517  0.42994  1.0000
  H   H18       1.0  0.16367  0.45902  0.24066  1.0000
  C   C9        1.0  0.01444  0.45028  0.31174  1.0000
  H   H19       1.0  0.14183  0.44429  0.27378  1.0000
  C   C10       1.0  0.00451  0.39865  0.36346  1.0000
  C   C11       1.0  0.00995  0.37909  0.33371  1.0000
  H   H20       1.0  0.99821  0.46344  0.31997  1.0000
  C   C12       1.0  0.01622  0.39498  0.43955  1.0000
  C   C13       1.0  0.07306  0.45844  0.48706  1.0000
  H   H21       1.0  0.04367  0.39702  0.46570  1.0000
  C   C14       1.0  0.06873  0.44179  0.48596  1.0000
  S   S9        1.0  0.18521  0.48966  0.14951  1.0000
  C   C15       1.0  0.15177  0.45364  0.28144  1.0000
  H   H22       1.0  0.03421  0.40200  0.39177  1.0000
  H   H23       1.0  0.18605  0.48787  0.30946  1.0000
  C   C16       1.0  0.13200  0.48208  0.28167  1.0000
  C   C17       1.0  0.99612  0.44421  0.38882  1.0000
  H   H24       1.0  0.01292  0.42960  0.46599  1.0000
  H   H25       1.0  0.02780  0.43422  0.30308  1.0000
  C   C18       1.0  0.99371  0.49103  0.37005  1.0000
  H   H26       1.0  0.02891  0.37780  0.47365  1.0000
  C   C19       1.0  0.20593  0.48299  0.26093  1.0000
  H   H27       1.0  0.01573  0.37304  0.39908  1.0000
  H   H28       1.0  0.02500  0.46037  0.31454  1.0000
  H   H29       1.0  0.00618  0.46920  0.38066  1.0000
  C   C20       1.0  0.99484  0.36823  0.34184  1.0000
  H   H30       1.0  0.00781  0.44261  0.38960  1.0000
  H   H31       1.0  0.07846  0.48583  0.25472  1.0000
  N   N2        1.0  0.19073  0.48503  0.25206  1.0000
  C   C21       1.0  0.15133  0.45744  0.30979  1.0000
  C   C22       1.0  0.17730  0.47518  0.27163  1.0000
  H   H32       1.0  0.00826  0.41036  0.37201  1.0000
  C   C23       1.0  0.18589  0.49416  0.00878  1.0000
  C   C24       1.0  0.03729  0.38544  0.45654  1.0000
  C   C25       1.0  0.99958  0.38698  0.43788  1.0000
  C   C26       1.0  0.18900  0.48079  0.22192  1.0000
  H   H33       1.0  0.19911  0.48861  0.20766  1.0000
  S   S10       1.0  0.14422  0.47392  0.19971  1.0000
  C   C27       1.0  0.13396  0.47300  0.23378  1.0000
  C   C28       1.0  0.16450  0.46232  0.26252  1.0000
  C   C29       1.0  0.13985  0.48407  0.25427  1.0000
  H   H34       1.0  0.19202  0.48541  0.01195  1.0000
  H   H35       1.0  0.18882  0.46827  0.21916  1.0000
  C   C30       1.0  0.16382  0.46973  0.31955  1.0000
  H   H36       1.0  0.03300  0.41722  0.45249  1.0000
  C   C31       1.0  0.00247  0.42242  0.30213  1.0000
  C   C32       1.0  0.99930  0.45196  0.31489  1.0000
  H   H37       1.0  0.00468  0.41138  0.29751  1.0000
  H   H38       1.0  0.15068  0.49393  0.24927  1.0000
  H   H39       1.0  0.09165  0.47861  0.27603  1.0000
  H   H40       1.0  0.07408  0.49399  0.36029  1.0000
  H   H41       1.0  0.07621  0.48469  0.29270  1.0000
  C   C33       1.0  0.17669  0.47842  0.30088  1.0000
  C   C34       1.0  0.99500  0.45955  0.38354  1.0000
  C   C35       1.0  0.08525  0.48762  0.27432  1.0000
  C   C36       1.0  0.00914  0.41767  0.45812  1.0000
  H   H42       1.0  0.13705  0.49043  0.29752  1.0000
  H   H43       1.0  0.22882  0.49257  0.15663  1.0000
  C   C37       1.0  0.99295  0.40957  0.45604  1.0000
  H   H44       1.0  0.20875  0.48706  0.28265  1.0000
  H   H45       1.0  0.21625  0.49006  0.24626  1.0000
  H   H46       1.0  0.10109  0.48618  0.22865  1.0000
  Fe  Fe5       1.0  0.16377  0.49352  0.17276  1.0000
  H   H47       1.0  0.23112  0.49368  0.10158  1.0000
  S   S11       1.0  0.18531  0.49516  0.06738  1.0000
  H   H48       1.0  0.12187  0.49441  0.19066  1.0000
  H   H49       1.0  0.22793  0.49541  0.02864  1.0000
  Fe  Fe6       1.0  0.05101  0.43190  0.66554  1.0000
  S   S12       1.0  0.07565  0.43555  0.64439  1.0000
  S   S13       1.0  0.03147  0.40770  0.67247  1.0000
  Fe  Fe7       1.0  0.05785  0.46698  0.67203  1.0000
  S   S14       1.0  0.08238  0.47342  0.65094  1.0000
  Fe  Fe8       1.0  0.07120  0.45580  0.61857  1.0000
  S   S15       1.0  0.07642  0.46590  0.57201  1.0000
  Fe  Fe9       1.0  0.08501  0.45308  0.67867  1.0000
  S   S16       1.0  0.10953  0.45839  0.69889  1.0000
  S   S17       1.0  0.04635  0.45112  0.63801  1.0000
  S   S18       1.0  0.06073  0.44760  0.70151  1.0000
  C   C38       1.0  0.11691  0.46515  0.73260  1.0000
  C   C39       1.0  0.13354  0.47180  0.73501  1.0000
  H   H50       1.0  0.18333  0.46930  0.82271  1.0000
  H   H51       1.0  0.16702  0.42474  0.81987  1.0000
  C   C40       1.0  0.10683  0.46361  0.75713  1.0000
  H   H52       1.0  0.16696  0.47276  0.80489  1.0000
  C   C41       1.0  0.00343  0.46341  0.72269  1.0000
  C   C42       1.0  0.14002  0.47672  0.76136  1.0000
  C   C43       1.0  0.07289  0.45615  0.53934  1.0000
  C   C44       1.0  0.06823  0.43948  0.53826  1.0000
  S   S19       1.0  0.13736  0.47988  0.82043  1.0000
  C   C45       1.0  0.00188  0.46656  0.67190  1.0000
  H   H53       1.0  0.01030  0.41990  0.60027  1.0000
  C   C46       1.0  0.07522  0.46555  0.51355  1.0000
  H   H54       1.0  0.06648  0.43208  0.55782  1.0000
  C   C47       1.0  0.01038  0.38150  0.60532  1.0000
  H   H55       1.0  0.02857  0.40420  0.60823  1.0000
  H   H56       1.0  0.07888  0.47843  0.51401  1.0000
  S   S20       1.0  0.21577  0.48901  0.84630  1.0000
  H   H57       1.0  0.14150  0.47298  0.71633  1.0000
  H   H58       1.0  0.01843  0.37471  0.60977  1.0000
  C   C48       1.0  0.01072  0.40553  0.67233  1.0000
  H   H59       1.0  0.18147  0.43826  0.79486  1.0000
  C   C49       1.0  0.12947  0.43327  0.75066  1.0000
  H   H60       1.0  0.06299  0.41951  0.51124  1.0000
  H   H61       1.0  0.01393  0.43049  0.66347  1.0000
  H   H62       1.0  0.16643  0.45145  0.85946  1.0000
  H   H63       1.0  0.00297  0.45065  0.72201  1.0000
  C   C50       1.0  0.17436  0.46465  0.80662  1.0000
  C   C51       1.0  0.99935  0.39021  0.67687  1.0000
  H   H64       1.0  0.12086  0.43018  0.73436  1.0000
  H   H65       1.0  0.16940  0.44510  0.75721  1.0000
  C   C52       1.0  0.13530  0.43866  0.79971  1.0000
  C   C53       1.0  0.99455  0.48480  0.70260  1.0000
  N   N3        1.0  0.16412  0.44800  0.81443  1.0000
  C   C54       1.0  0.06627  0.43239  0.51175  1.0000
  H   H66       1.0  0.14971  0.43700  0.72126  1.0000
  H   H67       1.0  0.10534  0.46683  0.80232  1.0000
  H   H68       1.0  0.09404  0.45843  0.75587  1.0000
  H   H69       1.0  0.18323  0.44084  0.83192  1.0000
  H   H70       1.0  0.18615  0.49267  0.96288  1.0000
  H   H71       1.0  0.14994  0.45610  0.84522  1.0000
  H   H72       1.0  0.14923  0.43545  0.85115  1.0000
  C   C55       1.0  0.15203  0.44272  0.79298  1.0000
  C   C56       1.0  0.15690  0.44188  0.76408  1.0000
  C   C57       1.0  0.12427  0.43395  0.77878  1.0000
  H   H73       1.0  0.18124  0.46575  0.78590  1.0000
  C   C58       1.0  0.14575  0.43723  0.74332  1.0000
  H   H74       1.0  0.13039  0.43950  0.82077  1.0000
  C   C59       1.0  0.01615  0.39814  0.60439  1.0000
  C   C60       1.0  0.00535  0.41867  0.66701  1.0000
  S   S21       1.0  0.04707  0.48547  0.68610  1.0000
  C   C61       1.0  0.12994  0.47495  0.78596  1.0000
  C   C62       1.0  0.17437  0.43749  0.81525  1.0000
  H   H75       1.0  0.10245  0.49313  0.73529  1.0000
  H   H76       1.0  0.15281  0.48138  0.76272  1.0000
  C   C63       1.0  0.11331  0.46840  0.78353  1.0000
  S   S22       1.0  0.17326  0.48652  0.87530  1.0000
  H   H77       1.0  0.01635  0.47051  0.72069  1.0000
  H   H78       1.0  0.11160  0.43137  0.78415  1.0000
  H   H79       1.0  0.99864  0.46512  0.74416  1.0000
  H   H80       1.0  0.00337  0.37998  0.68112  1.0000
  C   C64       1.0  0.15706  0.44768  0.84378  1.0000
  C   C65       1.0  0.00579  0.40698  0.59991  1.0000
  H   H81       1.0  0.06316  0.49176  0.60096  1.0000
  H   H82       1.0  0.01463  0.47412  0.66936  1.0000
  H   H83       1.0  0.00182  0.45408  0.66900  1.0000
  C   C66       1.0  0.99424  0.37363  0.60152  1.0000
  N   N4        1.0  0.99430  0.46802  0.69995  1.0000
  H   H84       1.0  0.99560  0.47024  0.65419  1.0000
  Fe  Fe10      1.0  0.16083  0.49470  0.83930  1.0000
  H   H85       1.0  0.11119  0.49494  0.68454  1.0000
  H   H86       1.0  0.08105  0.49539  0.69301  1.0000
  H   H87       1.0  0.02055  0.49502  0.69901  1.0000
  Fe  Fe11      1.0  0.05627  0.58509  0.36497  1.0000
  S   S23       1.0  0.06349  0.56559  0.38656  1.0000
  S   S24       1.0  0.02993  0.58314  0.37222  1.0000
  Fe  Fe12      1.0  0.09144  0.60437  0.34525  1.0000
  S   S25       1.0  0.10035  0.58616  0.36824  1.0000
  S   S26       1.0  0.11244  0.62390  0.32099  1.0000
  Fe  Fe13      1.0  0.08030  0.56853  0.34833  1.0000
  S   S27       1.0  0.08626  0.54932  0.32503  1.0000
  Fe  Fe14      1.0  0.08272  0.58539  0.40491  1.0000
  C   C67       1.0  0.23396  0.71194  0.15984  1.0000
  S   S28       1.0  0.07158  0.58639  0.32457  1.0000
  S   S29       1.0  0.07524  0.60515  0.38401  1.0000
  C   C68       1.0  0.01352  0.56555  0.36821  1.0000
  C   C69       1.0  0.00203  0.53911  0.35028  1.0000
  S   S30       1.0  0.19542  0.52744  0.12475  1.0000
  H   H88       1.0  0.20744  0.71384  0.03738  1.0000
  C   C70       1.0  0.17412  0.61378  0.02422  1.0000
  S   S31       1.0  0.17833  0.51668  0.18951  1.0000
  N   N5        1.0  0.03445  0.58019  0.46302  1.0000
  Fe  Fe15      1.0  0.17315  0.52808  0.14918  1.0000
  S   S32       1.0  0.16207  0.54796  0.15038  1.0000
  C   C71       1.0  0.10714  0.54656  0.20225  1.0000
  H   H89       1.0  0.21693  0.51366  0.04252  1.0000
  H   H90       1.0  0.20196  0.69291  0.03240  1.0000
  C   C72       1.0  0.16688  0.58688  0.00792  1.0000
  Fe  Fe16      1.0  0.18133  0.65650  0.10477  1.0000
  S   S33       1.0  0.20518  0.66044  0.12363  1.0000
  S   S34       1.0  0.18638  0.65786  0.05623  1.0000
  Fe  Fe17      1.0  0.16426  0.65143  0.16610  1.0000
  S   S35       1.0  0.18744  0.65597  0.18750  1.0000
  S   S36       1.0  0.13945  0.64167  0.19030  1.0000
  Fe  Fe18      1.0  0.19795  0.67621  0.15385  1.0000
  S   S37       1.0  0.21328  0.70260  0.15485  1.0000
  Fe  Fe19      1.0  0.19257  0.63997  0.15479  1.0000
  S   S38       1.0  0.20291  0.62014  0.16635  1.0000
  S   S39       1.0  0.17422  0.67291  0.13434  1.0000
  S   S40       1.0  0.16928  0.63485  0.13427  1.0000
  C   C73       1.0  0.17834  0.65965  0.02267  1.0000
  H   H91       1.0  0.17497  0.58712  0.07811  1.0000
  H   H92       1.0  0.99639  0.57496  0.38893  1.0000
  H   H93       1.0  0.16322  0.52478  0.99711  1.0000
  C   C74       1.0  0.16258  0.65947  0.01976  1.0000
  C   C75       1.0  0.99807  0.56487  0.37845  1.0000
  H   H94       1.0  0.23832  0.78800  0.19868  1.0000
  H   H95       1.0  0.15479  0.65863  0.03856  1.0000
  C   C76       1.0  0.15864  0.60102  0.26231  1.0000
  H   H96       1.0  0.07925  0.55656  0.26780  1.0000
  H   H97       1.0  0.22471  0.76824  0.20180  1.0000
  C   C77       1.0  0.24056  0.50018  0.03208  1.0000
  C   C78       1.0  0.10945  0.49812  0.22896  1.0000
  C   C79       1.0  0.19196  0.50219  0.25297  1.0000
  C   C80       1.0  0.21458  0.69869  0.08242  1.0000
  H   H98       1.0  0.16691  0.56846  0.03967  1.0000
  H   H99       1.0  0.10413  0.57581  0.28015  1.0000
  C   C81       1.0  0.17403  0.56788  0.15375  1.0000
  C   C82       1.0  0.18970  0.57175  0.16230  1.0000
  C   C83       1.0  0.19855  0.58785  0.16582  1.0000
  C   C84       1.0  0.19183  0.60011  0.16056  1.0000
  C   C85       1.0  0.17617  0.59611  0.15194  1.0000
  C   C86       1.0  0.16733  0.58010  0.14858  1.0000
  H   H100      1.0  0.19496  0.56238  0.16639  1.0000
  H   H101      1.0  0.21065  0.59080  0.17257  1.0000
  H   H102      1.0  0.17077  0.60526  0.14794  1.0000
  H   H103      1.0  0.15528  0.57718  0.14161  1.0000
  C   C87       1.0  0.04690  0.59442  0.44915  1.0000
  C   C88       1.0  0.08967  0.60512  0.48665  1.0000
  H   H104      1.0  0.13780  0.58012  0.18228  1.0000
  H   H105      1.0  0.02722  0.55281  0.34635  1.0000
  H   H106      1.0  0.16904  0.51752  0.04613  1.0000
  H   H107      1.0  0.21582  0.52561  0.07115  1.0000
  C   C89       1.0  0.01870  0.58108  0.45465  1.0000
  H   H108      1.0  0.14453  0.65990  0.99030  1.0000
  H   H109      1.0  0.16025  0.62101  0.28964  1.0000
  H   H110      1.0  0.23273  0.74531  0.20516  1.0000
  H   H111      1.0  0.13892  0.60627  0.32396  1.0000
  H   H112      1.0  0.13085  0.56396  0.27767  1.0000
  H   H113      1.0  0.17639  0.62654  0.02113  1.0000
  C   C90       1.0  0.11969  0.62858  0.28445  1.0000
  C   C91       1.0  0.13609  0.63666  0.27801  1.0000
  C   C92       1.0  0.14240  0.64072  0.24952  1.0000
  C   C93       1.0  0.13231  0.63714  0.22692  1.0000
  C   C94       1.0  0.11584  0.62965  0.23341  1.0000
  C   C95       1.0  0.10958  0.62526  0.26184  1.0000
  H   H114      1.0  0.14395  0.63990  0.29528  1.0000
  H   H115      1.0  0.15496  0.64705  0.24508  1.0000
  H   H116      1.0  0.10782  0.62756  0.21625  1.0000
  H   H117      1.0  0.09685  0.61985  0.26636  1.0000
  C   C96       1.0  0.07315  0.53079  0.33817  1.0000
  C   C97       1.0  0.05658  0.52766  0.33866  1.0000
  C   C98       1.0  0.04628  0.51219  0.34663  1.0000
  C   C99       1.0  0.22898  0.68847  0.04735  1.0000
  Fe  Fe20      1.0  0.19935  0.51373  0.16367  1.0000
  C   C100      1.0  0.07938  0.51871  0.34661  1.0000
  H   H118      1.0  0.05171  0.53707  0.33243  1.0000
  H   H119      1.0  0.03348  0.50972  0.34669  1.0000
  H   H120      1.0  0.12124  0.53218  0.26534  1.0000
  H   H121      1.0  0.09216  0.52134  0.34739  1.0000
  C   C101      1.0  0.16428  0.61222  0.21390  1.0000
  H   H122      1.0  0.15164  0.57845  0.24133  1.0000
  H   H123      1.0  0.17489  0.63402  0.25086  1.0000
  H   H124      1.0  0.17354  0.61895  0.19718  1.0000
  C   C102      1.0  0.08680  0.51524  0.27345  1.0000
  H   H125      1.0  0.19178  0.63108  0.23313  1.0000
  H   H126      1.0  0.15750  0.60083  0.20489  1.0000
  H   H127      1.0  0.18623  0.59565  0.25523  1.0000
  H   H128      1.0  0.19327  0.60667  0.22188  1.0000
  H   H129      1.0  0.17664  0.58917  0.22278  1.0000
  C   C103      1.0  0.13395  0.58407  0.30348  1.0000
  C   C104      1.0  0.18170  0.62537  0.24923  1.0000
  C   C105      1.0  0.17293  0.51217  0.02812  1.0000
  H   H130      1.0  0.18035  0.50400  0.24848  1.0000
  C   C106      1.0  0.10188  0.58494  0.26537  1.0000
  H   H131      1.0  0.23638  0.73036  0.12673  1.0000
  H   H132      1.0  0.18705  0.62427  0.26988  1.0000
  C   C107      1.0  0.14217  0.60018  0.30622  1.0000
  H   H133      1.0  0.15594  0.61929  0.21727  1.0000
  C   C108      1.0  0.13753  0.57641  0.28001  1.0000
  C   C109      1.0  0.15440  0.60857  0.28612  1.0000
  C   C110      1.0  0.14952  0.58478  0.25948  1.0000
  H   H134      1.0  0.17967  0.61613  0.06827  1.0000
  H   H135      1.0  0.09521  0.59136  0.27816  1.0000
  H   H136      1.0  0.23436  0.77706  0.23275  1.0000
  H   H137      1.0  0.04888  0.56482  0.45676  1.0000
  H   H138      1.0  0.04567  0.60576  0.45681  1.0000
  H   H139      1.0  0.08669  0.54498  0.22888  1.0000
  H   H140      1.0  0.20050  0.66105  0.99984  1.0000
  C   C111      1.0  0.16889  0.58114  0.03525  1.0000
  C   C112      1.0  0.16936  0.60345  0.00162  1.0000
  H   H141      1.0  0.22148  0.69526  0.09934  1.0000
  H   H142      1.0  0.14220  0.53959  0.22651  1.0000
  C   C113      1.0  0.12156  0.55627  0.18900  1.0000
  S   S41       1.0  0.08456  0.57900  0.45225  1.0000
  H   H143      1.0  0.05917  0.59406  0.45277  1.0000
  C   C114      1.0  0.10886  0.50855  0.25092  1.0000
  H   H144      1.0  0.12206  0.59209  0.21265  1.0000
  C   C115      1.0  0.24111  0.51590  0.17069  1.0000
  H   H145      1.0  0.24221  0.76156  0.16185  1.0000
  C   C116      1.0  0.21243  0.70401  0.03274  1.0000
  H   H146      1.0  0.21131  0.70919  0.08964  1.0000
  H   H147      1.0  0.02773  0.55456  0.45939  1.0000
  H   H148      1.0  0.14245  0.52092  0.18903  1.0000
  C   C117      1.0  0.22399  0.49995  0.08965  1.0000
  C   C118      1.0  0.07740  0.56597  0.25311  1.0000
  S   S42       1.0  0.22362  0.52010  0.18326  1.0000
  H   H149      1.0  0.09150  0.61266  0.46723  1.0000
  C   C119      1.0  0.12673  0.57260  0.19306  1.0000
  C   C120      1.0  0.08617  0.58856  0.48513  1.0000
  C   C121      1.0  0.03704  0.56580  0.45129  1.0000
  C   C122      1.0  0.10426  0.50559  0.30226  1.0000
  C   C123      1.0  0.18097  0.50098  0.03262  1.0000
  H   H150      1.0  0.07672  0.51174  0.29002  1.0000
  H   H151      1.0  0.23316  0.52909  0.10938  1.0000
  H   H152      1.0  0.11355  0.59400  0.25854  1.0000
  C   C124      1.0  0.15679  0.66019  0.99233  1.0000
  H   H153      1.0  0.00367  0.52934  0.33877  1.0000
  H   H154      1.0  0.12455  0.57763  0.31932  1.0000
  H   H155      1.0  0.04607  0.59504  0.42559  1.0000
  H   H156      1.0  0.10318  0.53386  0.19884  1.0000
  H   H157      1.0  0.23541  0.69605  0.19484  1.0000
  C   C125      1.0  0.23780  0.71676  0.05577  1.0000
  H   H158      1.0  0.06964  0.56018  0.23606  1.0000
  C   C126      1.0  0.09778  0.55315  0.21951  1.0000
  C   C127      1.0  0.17344  0.59162  0.05695  1.0000
  H   H159      1.0  0.08241  0.58463  0.20453  1.0000
  C   C128      1.0  0.17608  0.60792  0.05142  1.0000
  C   C129      1.0  0.08906  0.58983  0.22323  1.0000
  H   H160      1.0  0.00876  0.56993  0.46082  1.0000
  H   H161      1.0  0.09391  0.52777  0.27722  1.0000
  S   S43       1.0  0.15749  0.50502  0.13317  1.0000
  C   C130      1.0  0.06914  0.50327  0.35421  1.0000
  C   C131      1.0  0.23619  0.77599  0.20946  1.0000
  C   C132      1.0  0.18826  0.66081  0.99792  1.0000
  H   H162      1.0  0.08165  0.59579  0.23545  1.0000
  Fe  Fe21      1.0  0.18017  0.50349  0.11133  1.0000
  H   H163      1.0  0.01586  0.59120  0.46446  1.0000
  H   H164      1.0  0.10989  0.51820  0.30754  1.0000
  C   C133      1.0  0.10265  0.56982  0.22387  1.0000
  H   H165      1.0  0.20118  0.50984  0.23692  1.0000
  H   H166      1.0  0.01844  0.58290  0.43110  1.0000
  H   H167      1.0  0.03677  0.56621  0.42761  1.0000
  C   C134      1.0  0.12095  0.52369  0.24934  1.0000
  C   C135      1.0  0.24036  0.73091  0.03797  1.0000
  C   C136      1.0  0.16964  0.51626  0.00023  1.0000
  C   C137      1.0  0.22446  0.52203  0.05711  1.0000
  C   C138      1.0  0.13295  0.52805  0.22730  1.0000
  H   H168      1.0  0.11373  0.49978  0.30204  1.0000
  H   H169      1.0  0.09994  0.59949  0.21483  1.0000
  H   H170      1.0  0.12872  0.55116  0.17537  1.0000
  H   H171      1.0  0.20331  0.68849  0.08189  1.0000
  C   C139      1.0  0.01544  0.55247  0.35445  1.0000
  H   H172      1.0  0.23213  0.73198  0.02229  1.0000
  N   N6        1.0  0.22366  0.70233  0.05438  1.0000
  C   C140      1.0  0.11753  0.57931  0.21034  1.0000
  C   C141      1.0  0.18227  0.59979  0.23504  1.0000
  H   H173      1.0  0.07044  0.57210  0.26603  1.0000
  N   N7        1.0  0.17154  0.60953  0.24066  1.0000
  H   H174      1.0  0.21863  0.67752  0.04513  1.0000
  N   N8        1.0  0.23450  0.51466  0.07385  1.0000
  N   N9        1.0  0.09284  0.57737  0.24111  1.0000
  H   H175      1.0  0.09573  0.49958  0.32047  1.0000
  H   H176      1.0  0.21827  0.70619  0.01085  1.0000
  H   H177      1.0  0.23644  0.69099  0.02698  1.0000
  C   C142      1.0  0.13313  0.51757  0.20606  1.0000
  H   H178      1.0  0.23191  0.53286  0.04417  1.0000
  H   H179      1.0  0.08154  0.51521  0.25241  1.0000
  N   N10       1.0  0.09646  0.50418  0.27473  1.0000
  C   C143      1.0  0.12140  0.50268  0.20687  1.0000
  C   C144      1.0  0.05259  0.49992  0.35405  1.0000
  H   H180      1.0  0.21543  0.50264  0.10519  1.0000
  H   H181      1.0  0.23605  0.68525  0.06420  1.0000
  C   C145      1.0  0.24033  0.50137  0.15897  1.0000
  H   H182      1.0  0.19541  0.50707  0.27392  1.0000
  C   C146      1.0  0.24169  0.70681  0.18185  1.0000
  H   H183      1.0  0.24164  0.75136  0.23818  1.0000
  H   H184      1.0  0.16340  0.57810  0.99214  1.0000
  C   C147      1.0  0.24218  0.52617  0.09514  1.0000
  H   H185      1.0  0.15907  0.62889  0.98923  1.0000
  Fe  Fe22      1.0  0.05527  0.57528  0.65217  1.0000
  S   S44       1.0  0.07201  0.57069  0.61849  1.0000
  S   S45       1.0  0.03030  0.55889  0.64354  1.0000
  Fe  Fe23      1.0  0.08391  0.59924  0.68049  1.0000
  S   S46       1.0  0.10188  0.59639  0.64776  1.0000
  S   S47       1.0  0.09155  0.61351  0.72029  1.0000
  Fe  Fe24      1.0  0.08406  0.59709  0.61507  1.0000
  S   S48       1.0  0.09072  0.61156  0.57234  1.0000
  Fe  Fe25      1.0  0.08796  0.57037  0.65383  1.0000
  S   S49       1.0  0.10019  0.55205  0.66181  1.0000
  S   S50       1.0  0.06676  0.60212  0.64730  1.0000
  S   S51       1.0  0.07065  0.57286  0.68795  1.0000
  C   C148      1.0  0.12128  0.55891  0.78629  1.0000
  N   N11       1.0  0.16730  0.61004  0.97305  1.0000
  S   S52       1.0  0.18374  0.50726  0.81375  1.0000
  H   H186      1.0  0.12040  0.50719  0.76981  1.0000
  C   C149      1.0  0.23214  0.51157  0.91911  1.0000
  S   S53       1.0  0.19869  0.52352  0.87297  1.0000
  N   N12       1.0  0.23898  0.63780  0.84721  1.0000
  Fe  Fe26      1.0  0.18397  0.52867  0.83823  1.0000
  S   S54       1.0  0.18684  0.55206  0.81363  1.0000
  C   C150      1.0  0.23424  0.62048  0.84234  1.0000
  H   H187      1.0  0.17580  0.52943  0.77135  1.0000
  S   S55       1.0  0.16054  0.51656  0.86208  1.0000
  H   H188      1.0  0.08855  0.55026  0.72829  1.0000
  Fe  Fe27      1.0  0.17076  0.65626  0.89202  1.0000
  S   S56       1.0  0.19514  0.65387  0.89418  1.0000
  S   S57       1.0  0.15855  0.66058  0.93344  1.0000
  Fe  Fe28      1.0  0.16768  0.64691  0.82899  1.0000
  S   S58       1.0  0.19227  0.64402  0.82829  1.0000
  S   S59       1.0  0.15669  0.64069  0.78525  1.0000
  Fe  Fe29      1.0  0.18493  0.63151  0.87138  1.0000
  S   S60       1.0  0.18979  0.60976  0.89069  1.0000
  Fe  Fe30      1.0  0.20062  0.66693  0.85113  1.0000
  S   S61       1.0  0.22648  0.68265  0.83894  1.0000
  S   S62       1.0  0.16006  0.63288  0.87140  1.0000
  S   S63       1.0  0.17653  0.67085  0.84950  1.0000
  H   H189      1.0  0.01351  0.55620  0.55291  1.0000
  H   H190      1.0  0.09108  0.54490  0.76426  1.0000
  C   C151      1.0  0.02276  0.56562  0.54074  1.0000
  H   H191      1.0  0.16249  0.54919  0.73111  1.0000
  H   H192      1.0  0.10205  0.64807  0.69473  1.0000
  Fe  Fe31      1.0  0.19633  0.50085  0.85082  1.0000
  H   H193      1.0  0.16023  0.60314  0.93089  1.0000
  H   H194      1.0  0.07529  0.54006  0.54739  1.0000
  H   H195      1.0  0.05536  0.55396  0.55001  1.0000
  C   C152      1.0  0.04179  0.53928  0.58580  1.0000
  C   C153      1.0  0.18632  0.56767  0.83528  1.0000
  C   C154      1.0  0.18584  0.58223  0.82278  1.0000
  C   C155      1.0  0.18648  0.59516  0.83969  1.0000
  C   C156      1.0  0.18778  0.59355  0.86910  1.0000
  C   C157      1.0  0.18796  0.57890  0.88160  1.0000
  C   C158      1.0  0.18711  0.56594  0.86477  1.0000
  H   H196      1.0  0.18527  0.58364  0.79996  1.0000
  H   H197      1.0  0.18635  0.60644  0.82991  1.0000
  H   H198      1.0  0.18892  0.57759  0.90434  1.0000
  H   H199      1.0  0.18745  0.55473  0.87459  1.0000
  H   H200      1.0  0.21690  0.72995  0.78922  1.0000
  H   H201      1.0  0.09671  0.53680  0.57045  1.0000
  C   C159      1.0  0.10985  0.62058  0.73807  1.0000
  C   C160      1.0  0.10921  0.62437  0.76679  1.0000
  C   C161      1.0  0.12329  0.63028  0.78169  1.0000
  C   C162      1.0  0.13834  0.63281  0.76794  1.0000
  C   C163      1.0  0.13899  0.62909  0.73913  1.0000
  C   C164      1.0  0.12490  0.62292  0.72437  1.0000
  H   H202      1.0  0.09772  0.62277  0.77770  1.0000
  H   H203      1.0  0.12248  0.63311  0.80373  1.0000
  H   H204      1.0  0.15052  0.63106  0.72810  1.0000
  H   H205      1.0  0.12574  0.62035  0.70222  1.0000
  C   C165      1.0  0.08533  0.53384  0.67097  1.0000
  C   C166      1.0  0.06920  0.53252  0.66899  1.0000
  C   C167      1.0  0.05736  0.51778  0.67543  1.0000
  C   C168      1.0  0.23760  0.70217  0.84884  1.0000
  C   C169      1.0  0.03439  0.57666  0.55499  1.0000
  C   C170      1.0  0.08959  0.52052  0.67995  1.0000
  H   H206      1.0  0.06578  0.54268  0.66167  1.0000
  H   H207      1.0  0.04495  0.51673  0.67299  1.0000
  H   H208      1.0  0.19194  0.61526  0.95848  1.0000
  H   H209      1.0  0.10205  0.52164  0.68167  1.0000
  C   C171      1.0  0.08889  0.60243  0.53896  1.0000
  C   C172      1.0  0.08524  0.58586  0.53737  1.0000
  C   C173      1.0  0.08396  0.57902  0.51068  1.0000
  H   H210      1.0  0.21582  0.75755  0.78152  1.0000
  C   C174      1.0  0.09107  0.61200  0.51341  1.0000
  H   H211      1.0  0.08358  0.57831  0.55669  1.0000
  H   H212      1.0  0.09391  0.62483  0.51429  1.0000
  C   C175      1.0  0.16175  0.59769  0.95198  1.0000
  C   C176      1.0  0.24165  0.51629  0.83206  1.0000
  N   N13       1.0  0.15214  0.52792  0.75898  1.0000
  C   C177      1.0  0.14611  0.52451  0.78931  1.0000
  C   C178      1.0  0.16692  0.52336  0.75604  1.0000
  C   C179      1.0  0.15630  0.54541  0.75253  1.0000
  C   C180      1.0  0.14049  0.51923  0.73885  1.0000
  C   C181      1.0  0.12477  0.50927  0.74774  1.0000
  C   C182      1.0  0.14479  0.52060  0.70919  1.0000
  H   H213      1.0  0.21510  0.63587  0.86186  1.0000
  C   C183      1.0  0.13430  0.51196  0.68988  1.0000
  C   C184      1.0  0.07453  0.50148  0.60382  1.0000
  H   H214      1.0  0.14321  0.51157  0.79580  1.0000
  H   H215      1.0  0.15516  0.53111  0.80392  1.0000
  H   H216      1.0  0.13530  0.52812  0.79355  1.0000
  H   H217      1.0  0.16423  0.51022  0.76010  1.0000
  H   H218      1.0  0.23514  0.61285  0.88681  1.0000
  H   H219      1.0  0.17314  0.52671  0.73461  1.0000
  H   H220      1.0  0.13796  0.51277  0.66743  1.0000
  C   C185      1.0  0.18276  0.62140  0.96137  1.0000
  H   H221      1.0  0.15640  0.52816  0.70074  1.0000
  C   C186      1.0  0.00994  0.51334  0.70365  1.0000
  C   C187      1.0  0.22643  0.59791  0.81133  1.0000
  H   H222      1.0  0.23082  0.62193  0.79641  1.0000
  H   H223      1.0  0.13522  0.55235  0.81856  1.0000
  H   H224      1.0  0.15138  0.58015  0.82583  1.0000
  H   H225      1.0  0.00174  0.53578  0.62804  1.0000
  H   H226      1.0  0.08130  0.56622  0.50979  1.0000
  H   H227      1.0  0.04988  0.50850  0.61971  1.0000
  H   H228      1.0  0.23303  0.52263  0.83000  1.0000
  H   H229      1.0  0.19028  0.66229  0.95193  1.0000
  C   C188      1.0  0.09292  0.52691  0.58728  1.0000
  H   H230      1.0  0.15356  0.62393  0.95422  1.0000
  C   C189      1.0  0.04655  0.59005  0.50973  1.0000
  H   H231      1.0  0.11602  0.65838  0.73625  1.0000
  H   H232      1.0  0.22733  0.64538  0.81245  1.0000
  H   H233      1.0  0.03422  0.57581  0.57810  1.0000
  H   H234      1.0  0.16070  0.67446  0.68715  1.0000
  H   H235      1.0  0.22313  0.50653  0.90412  1.0000
  H   H236      1.0  0.13590  0.64418  0.61703  1.0000
  H   H237      1.0  0.21745  0.70850  0.86550  1.0000
  H   H238      1.0  0.14637  0.60268  0.79888  1.0000
  C   C190      1.0  0.01019  0.55432  0.65731  1.0000
  H   H239      1.0  0.11455  0.54651  0.78419  1.0000
  H   H240      1.0  0.16454  0.55236  0.76809  1.0000
  C   C191      1.0  0.18246  0.66143  0.97061  1.0000
  C   C192      1.0  0.00563  0.56232  0.67955  1.0000
  C   C193      1.0  0.17437  0.50933  0.97640  1.0000
  H   H241      1.0  0.11723  0.59024  0.72238  1.0000
  H   H242      1.0  0.14543  0.54924  0.75322  1.0000
  H   H243      1.0  0.14729  0.66462  0.64409  1.0000
  C   C194      1.0  0.02295  0.56672  0.51096  1.0000
  H   H244      1.0  0.14528  0.67120  0.73338  1.0000
  N   N14       1.0  0.11550  0.64832  0.63889  1.0000
  C   C195      1.0  0.09836  0.63883  0.64435  1.0000
  C   C196      1.0  0.11645  0.66152  0.61760  1.0000
  C   C197      1.0  0.12371  0.63760  0.62634  1.0000
  C   C198      1.0  0.12332  0.65504  0.66482  1.0000
  C   C199      1.0  0.14006  0.66300  0.66378  1.0000
  C   C200      1.0  0.11479  0.65392  0.69159  1.0000
  C   C201      1.0  0.14785  0.66880  0.68823  1.0000
  C   C202      1.0  0.12269  0.65990  0.71583  1.0000
  C   C203      1.0  0.13919  0.66712  0.71426  1.0000
  H   H245      1.0  0.09108  0.64633  0.65179  1.0000
  H   H246      1.0  0.09294  0.63338  0.62472  1.0000
  H   H247      1.0  0.09684  0.62884  0.66062  1.0000
  H   H248      1.0  0.11049  0.66990  0.62629  1.0000
  H   H249      1.0  0.11053  0.65687  0.59786  1.0000
  H   H250      1.0  0.12901  0.66864  0.61101  1.0000
  H   H251      1.0  0.12485  0.62860  0.64273  1.0000
  H   H252      1.0  0.11712  0.63095  0.60864  1.0000
  C   C204      1.0  0.03475  0.57910  0.49450  1.0000
  N   N15       1.0  0.10556  0.56889  0.74959  1.0000
  H   H253      1.0  0.02137  0.52279  0.70248  1.0000
  H   H254      1.0  0.08196  0.51800  0.53630  1.0000
  H   H255      1.0  0.14999  0.58883  0.95905  1.0000
  C   C205      1.0  0.22551  0.58715  0.83436  1.0000
  H   H256      1.0  0.10332  0.57492  0.70538  1.0000
  H   H257      1.0  0.09783  0.58872  0.76236  1.0000
  C   C206      1.0  0.06471  0.52279  0.58319  1.0000
  Fe  Fe32      1.0  0.17507  0.50966  0.89577  1.0000
  C   C207      1.0  0.23027  0.71248  0.86106  1.0000
  C   C208      1.0  0.13944  0.59041  0.79522  1.0000
  H   H258      1.0  0.05539  0.59728  0.55069  1.0000
  C   C209      1.0  0.11915  0.50201  0.69939  1.0000
  C   C210      1.0  0.04047  0.52653  0.60527  1.0000
  H   H259      1.0  0.21494  0.51199  0.95258  1.0000
  C   C211      1.0  0.05426  0.54386  0.56486  1.0000
  H   H260      1.0  0.03327  0.54582  0.58744  1.0000
  N   N16       1.0  0.07731  0.51498  0.58218  1.0000
  H   H261      1.0  0.23361  0.73612  0.87585  1.0000
  H   H262      1.0  0.12223  0.57273  0.71310  1.0000
  C   C212      1.0  0.11245  0.57707  0.72156  1.0000
  C   C213      1.0  0.14226  0.57775  0.81039  1.0000
  H   H263      1.0  0.12555  0.59765  0.76508  1.0000
  C   C214      1.0  0.07836  0.50851  0.55382  1.0000
  C   C215      1.0  0.12755  0.58740  0.77566  1.0000
  C   C216      1.0  0.11821  0.57158  0.77026  1.0000
  C   C217      1.0  0.15537  0.61869  0.97532  1.0000
  H   H264      1.0  0.17061  0.59130  0.94777  1.0000
  H   H265      1.0  0.01457  0.57184  0.68897  1.0000
  C   C218      1.0  0.23640  0.49986  0.83950  1.0000
  C   C219      1.0  0.13315  0.56206  0.80608  1.0000
  C   C220      1.0  0.16662  0.66094  0.96756  1.0000
  H   H266      1.0  0.08778  0.57001  0.78153  1.0000
  H   H267      1.0  0.10636  0.54597  0.73633  1.0000
  C   C221      1.0  0.09307  0.57559  0.76022  1.0000
  C   C222      1.0  0.09762  0.55173  0.74463  1.0000
  C   C223      1.0  0.04627  0.58879  0.53951  1.0000
  C   C224      1.0  0.06561  0.53581  0.56357  1.0000
  H   H268      1.0  0.09234  0.53243  0.60802  1.0000
  H   H269      1.0  0.08319  0.57372  0.74553  1.0000
  H   H270      1.0  0.23542  0.52336  0.98671  1.0000
  C   C225      1.0  0.99838  0.54205  0.64526  1.0000
  H   H271      1.0  0.08730  0.50195  0.55281  1.0000
  H   H272      1.0  0.22989  0.65387  0.87110  1.0000
  S   S64       1.0  0.16947  0.51482  0.94183  1.0000
  H   H273      1.0  0.18156  0.62692  0.94019  1.0000
  C   C226      1.0  0.07775  0.50572  0.68614  1.0000
  H   H274      1.0  0.03094  0.52334  0.62194  1.0000
  C   C227      1.0  0.22753  0.51458  0.94639  1.0000
  C   C228      1.0  0.06166  0.50428  0.68318  1.0000
  H   H275      1.0  0.22343  0.59338  0.79055  1.0000
  C   C229      1.0  0.23949  0.72818  0.86692  1.0000
  C   C230      1.0  0.22776  0.74007  0.78879  1.0000
  C   C231      1.0  0.22720  0.75562  0.78454  1.0000
  C   C232      1.0  0.05162  0.51823  0.60392  1.0000
  C   C233      1.0  0.22752  0.64083  0.86847  1.0000
  H   H276      1.0  0.06668  0.49981  0.54902  1.0000
  H   H277      1.0  0.07436  0.50551  0.62584  1.0000
  H   H278      1.0  0.08416  0.49582  0.60221  1.0000
  H   H279      1.0  0.05617  0.59969  0.49919  1.0000
  C   C234      1.0  0.23912  0.52102  0.96555  1.0000
  H   H280      1.0  0.22744  0.58425  0.87937  1.0000
  C   C235      1.0  0.23067  0.61434  0.81509  1.0000
  C   C236      1.0  0.11426  0.50099  0.72810  1.0000
  H   H281      1.0  0.18758  0.63140  0.97531  1.0000
  C   C237      1.0  0.18260  0.49828  0.98087  1.0000
  H   H282      1.0  0.10265  0.52137  0.58792  1.0000
  C   C238      1.0  0.23304  0.60914  0.86538  1.0000
  H   H283      1.0  0.01373  0.55783  0.50089  1.0000
  C   C239      1.0  0.22872  0.59274  0.86136  1.0000
  H   H284      1.0  0.22779  0.63521  0.88992  1.0000
  H   H285      1.0  0.99643  0.52959  0.70878  1.0000
  C   C240      1.0  0.99589  0.51723  0.70704  1.0000
  H   H286      1.0  0.22181  0.57439  0.83142  1.0000
  C   C241      1.0  0.00932  0.49740  0.70154  1.0000
  C   C242      1.0  0.24117  0.76868  0.78475  1.0000
  H   H287      1.0  0.14358  0.61063  0.98427  1.0000
  H   H288      1.0  0.24008  0.78050  0.78186  1.0000
  C   C243      1.0  0.23939  0.64805  0.82108  1.0000
  Fe  Fe33      1.0  0.41648  0.48059  0.36539  1.0000
  H   H289      1.0  0.44582  0.00975  0.42722  1.0000
  Fe  Fe34      1.0  0.40069  0.44791  0.34490  1.0000
  S   S65       1.0  0.37613  0.44763  0.36095  1.0000
  S   S66       1.0  0.40981  0.43067  0.32064  1.0000
  Fe  Fe35      1.0  0.38333  0.47323  0.34241  1.0000
  S   S67       1.0  0.39361  0.48339  0.38335  1.0000
  Fe  Fe36      1.0  0.38830  0.45794  0.40043  1.0000
  S   S68       1.0  0.37881  0.44756  0.44540  1.0000
  S   S69       1.0  0.40688  0.47256  0.32357  1.0000
  S   S70       1.0  0.41205  0.45608  0.38532  1.0000
  Fe  Fe37      1.0  0.45351  0.37505  0.37844  1.0000
  S   S71       1.0  0.46247  0.35542  0.39583  1.0000
  S   S72       1.0  0.42817  0.37525  0.38649  1.0000
  H   H290      1.0  0.41385  0.36350  0.33214  1.0000
  H   H291      1.0  0.45357  0.46541  0.38915  1.0000
  H   H292      1.0  0.39947  0.40655  0.43201  1.0000
  C   C244      1.0  0.45225  0.09737  0.13389  1.0000
  H   H293      1.0  0.43104  0.44523  0.44558  1.0000
  S   S73       1.0  0.46695  0.37766  0.33591  1.0000
  S   S74       1.0  0.47210  0.39455  0.39800  1.0000
  N   N17       1.0  0.31033  0.47395  0.20724  1.0000
  H   H294      1.0  0.45669  0.39457  0.48721  1.0000
  Fe  Fe38      1.0  0.47235  0.05565  0.34625  1.0000
  S   S75       1.0  0.46825  0.03294  0.32296  1.0000
  C   C245      1.0  0.45679  0.33296  0.26353  1.0000
  Fe  Fe39      1.0  0.47637  0.03915  0.40439  1.0000
  S   S76       1.0  0.47361  0.01602  0.38389  1.0000
  S   S77       1.0  0.48329  0.03691  0.45034  1.0000
  C   C246      1.0  0.38623  0.45664  0.47712  1.0000
  Fe  Fe40      1.0  0.45304  0.02009  0.36222  1.0000
  C   C247      1.0  0.47448  0.04093  0.48252  1.0000
  H   H295      1.0  0.44309  0.38907  0.44216  1.0000
  S   S78       1.0  0.45521  0.04306  0.38400  1.0000
  H   H296      1.0  0.47273  0.43717  0.33503  1.0000
  H   H297      1.0  0.31122  0.47402  0.16126  1.0000
  H   H298      1.0  0.47136  0.37353  0.25590  1.0000
  H   H299      1.0  0.44614  0.02302  0.45442  1.0000
  Fe  Fe41      1.0  0.47780  0.35974  0.35449  1.0000
  H   H300      1.0  0.46174  0.07329  0.10515  1.0000
  C   C248      1.0  0.37421  0.48680  0.26196  1.0000
  H   H301      1.0  0.39704  0.42580  0.42829  1.0000
  C   C249      1.0  0.29290  0.46528  0.20850  1.0000
  H   H302      1.0  0.44607  0.08452  0.13094  1.0000
  H   H303      1.0  0.29056  0.45209  0.20992  1.0000
  H   H304      1.0  0.28641  0.46834  0.22699  1.0000
  H   H305      1.0  0.43829  0.34266  0.22613  1.0000
  C   C250      1.0  0.43893  0.36655  0.27370  1.0000
  Fe  Fe42      1.0  0.48216  0.37536  0.41256  1.0000
  C   C251      1.0  0.44432  0.01023  0.45075  1.0000
  H   H306      1.0  0.33695  0.45772  0.30033  1.0000
  H   H307      1.0  0.30686  0.49477  0.22585  1.0000
  H   H308      1.0  0.31424  0.46830  0.30561  1.0000
  H   H309      1.0  0.33648  0.46197  0.21007  1.0000
  C   C252      1.0  0.47126  0.36109  0.26122  1.0000
  C   C253      1.0  0.42203  0.36048  0.31723  1.0000
  C   C254      1.0  0.33740  0.45877  0.25458  1.0000
  H   H310      1.0  0.45874  0.34647  0.21329  1.0000
  C   C255      1.0  0.42900  0.40474  0.44923  1.0000
  C   C256      1.0  0.31861  0.46659  0.28450  1.0000
  C   C257      1.0  0.42677  0.34709  0.32307  1.0000
  H   H311      1.0  0.49074  0.11415  0.30627  1.0000
  C   C258      1.0  0.47662  0.11804  0.14124  1.0000
  C   C259      1.0  0.42492  0.41548  0.46753  1.0000
  C   C260      1.0  0.46738  0.43842  0.35634  1.0000
  C   C261      1.0  0.43745  0.34318  0.30412  1.0000
  C   C262      1.0  0.41509  0.41569  0.33986  1.0000
  C   C263      1.0  0.42867  0.41182  0.33057  1.0000
  C   C264      1.0  0.43301  0.39971  0.34521  1.0000
  C   C265      1.0  0.42337  0.39093  0.36847  1.0000
  C   C266      1.0  0.40954  0.39449  0.37724  1.0000
  C   C267      1.0  0.40558  0.40707  0.36338  1.0000
  H   H312      1.0  0.43591  0.41826  0.31206  1.0000
  H   H313      1.0  0.44359  0.39693  0.33806  1.0000
  H   H314      1.0  0.40182  0.38743  0.39473  1.0000
  H   H315      1.0  0.39484  0.40970  0.37014  1.0000
  H   H316      1.0  0.47079  0.48672  0.36479  1.0000
  N   N18       1.0  0.46990  0.10127  0.13297  1.0000
  H   H317      1.0  0.44378  0.37485  0.25557  1.0000
  H   H318      1.0  0.46166  0.45770  0.31458  1.0000
  H   H319      1.0  0.25377  0.48661  0.14253  1.0000
  C   C268      1.0  0.31760  0.46912  0.23245  1.0000
  H   H320      1.0  0.48112  0.33990  0.46711  1.0000
  N   N19       1.0  0.46565  0.45457  0.35890  1.0000
  H   H321      1.0  0.44578  0.44421  0.38959  1.0000
  C   C269      1.0  0.33076  0.46307  0.23027  1.0000
  H   H322      1.0  0.40380  0.99803  0.45915  1.0000
  C   C270      1.0  0.39730  0.47201  0.47658  1.0000
  H   H323      1.0  0.40143  0.47876  0.45645  1.0000
  C   C271      1.0  0.31180  0.47083  0.26036  1.0000
  H   H324      1.0  0.46160  0.33155  0.28452  1.0000
  Fe  Fe43      1.0  0.48884  0.03061  0.34717  1.0000
  H   H325      1.0  0.41533  0.42333  0.41502  1.0000
  H   H326      1.0  0.45188  0.36276  0.22093  1.0000
  H   H327      1.0  0.41181  0.44742  0.45355  1.0000
  C   C272      1.0  0.45556  0.45716  0.33597  1.0000
  C   C273      1.0  0.41593  0.00556  0.45074  1.0000
  C   C274      1.0  0.33136  0.46055  0.28161  1.0000
  H   H328      1.0  0.38225  0.48009  0.26674  1.0000
  H   H329      1.0  0.45260  0.46848  0.33782  1.0000
  H   H330      1.0  0.38961  0.42315  0.47745  1.0000
  C   C275      1.0  0.42818  0.37026  0.29272  1.0000
  H   H331      1.0  0.41618  0.00556  0.42701  1.0000
  H   H332      1.0  0.47489  0.36072  0.28354  1.0000
  S   S79       1.0  0.36721  0.48575  0.32069  1.0000
  C   C276      1.0  0.48349  0.09028  0.29143  1.0000
  C   C277      1.0  0.47589  0.09857  0.10436  1.0000
  C   C278      1.0  0.42024  0.44106  0.46049  1.0000
  H   H333      1.0  0.37874  0.48734  0.21638  1.0000
  H   H334      1.0  0.42479  0.38095  0.28881  1.0000
  H   H335      1.0  0.30214  0.47575  0.26372  1.0000
  H   H336      1.0  0.47739  0.06849  0.26947  1.0000
  H   H337      1.0  0.48548  0.08219  0.22134  1.0000
  C   C279      1.0  0.48692  0.08925  0.23984  1.0000
  H   H338      1.0  0.44746  0.09997  0.15479  1.0000
  C   C280      1.0  0.48113  0.46767  0.35673  1.0000
  H   H339      1.0  0.44506  0.32348  0.26253  1.0000
  C   C281      1.0  0.37217  0.49093  0.23336  1.0000
  H   H340      1.0  0.46509  0.05867  0.46422  1.0000
  C   C282      1.0  0.44364  0.35267  0.27846  1.0000
  H   H341      1.0  0.44089  0.33286  0.31042  1.0000
  C   C283      1.0  0.48233  0.08140  0.26720  1.0000
  H   H342      1.0  0.46041  0.36066  0.47611  1.0000
  H   H343      1.0  0.33015  0.47779  0.17625  1.0000
  H   H344      1.0  0.31595  0.45776  0.17855  1.0000
  N   N20       1.0  0.41287  0.42342  0.46084  1.0000
  H   H345      1.0  0.47365  0.12666  0.12621  1.0000
  H   H346      1.0  0.45566  0.42879  0.35900  1.0000
  H   H347      1.0  0.47140  0.06859  0.05796  1.0000
  H   H348      1.0  0.46537  0.33049  0.24771  1.0000
  H   H349      1.0  0.48729  0.09322  0.15426  1.0000
  H   H350      1.0  0.46469  0.45350  0.40466  1.0000
  C   C284      1.0  0.47580  0.08039  0.06613  1.0000
  H   H351      1.0  0.48067  0.35878  0.24711  1.0000
  H   H352      1.0  0.42375  0.44531  0.48186  1.0000
  H   H353      1.0  0.42237  0.33988  0.34276  1.0000
  C   C285      1.0  0.44030  0.39733  0.45642  1.0000
  C   C286      1.0  0.31725  0.47068  0.17972  1.0000
  C   C287      1.0  0.31272  0.49136  0.20690  1.0000
  H   H354      1.0  0.44390  0.44736  0.33645  1.0000
  S   S80       1.0  0.47647  0.08113  0.32631  1.0000
  C   C288      1.0  0.36555  0.49102  0.28415  1.0000
  H   H355      1.0  0.47203  0.11969  0.16294  1.0000
  C   C289      1.0  0.45082  0.35034  0.22849  1.0000
  H   H356      1.0  0.44862  0.10452  0.11695  1.0000
  C   C290      1.0  0.44792  0.40037  0.48181  1.0000
  N   N21       1.0  0.45536  0.34920  0.25835  1.0000
  C   C291      1.0  0.45710  0.45444  0.38682  1.0000
  C   C292      1.0  0.48161  0.48373  0.36042  1.0000
  H   H357      1.0  0.28725  0.46836  0.18925  1.0000
  H   H358      1.0  0.47589  0.32483  0.44136  1.0000
  N   N22       1.0  0.42847  0.99953  0.46230  1.0000
  H   H359      1.0  0.47496  0.43570  0.37290  1.0000
  H   H360      1.0  0.46850  0.07786  0.15149  1.0000
  H   H361      1.0  0.42359  0.40170  0.42927  1.0000
  S   S81       1.0  0.43007  0.99903  0.37178  1.0000
  C   C293      1.0  0.48526  0.33590  0.44692  1.0000
  C   C294      1.0  0.46658  0.05240  0.48365  1.0000
  H   H362      1.0  0.34767  0.45456  0.25246  1.0000
  S   S82       1.0  0.48070  0.33831  0.33159  1.0000
  C   C295      1.0  0.48984  0.10710  0.28780  1.0000
  C   C296      1.0  0.47410  0.09078  0.15465  1.0000
  H   H363      1.0  0.45422  0.00692  0.46042  1.0000
  C   C297      1.0  0.47033  0.08323  0.09311  1.0000
  H   H364      1.0  0.39429  0.40508  0.48519  1.0000
  C   C298      1.0  0.40597  0.41956  0.43280  1.0000
  H   H365      1.0  0.47020  0.09280  0.17664  1.0000
  H   H366      1.0  0.48983  0.12158  0.14216  1.0000
  H   H367      1.0  0.48466  0.31234  0.30026  1.0000
  H   H368      1.0  0.41746  0.01808  0.45624  1.0000
  H   H369      1.0  0.48579  0.34542  0.43033  1.0000
  H   H370      1.0  0.49054  0.24195  0.08014  1.0000
  C   C299      1.0  0.48697  0.09270  0.04963  1.0000
  Fe  Fe44      1.0  0.48634  0.39570  0.35707  1.0000
  C   C300      1.0  0.39946  0.41835  0.48292  1.0000
  C   C301      1.0  0.48735  0.11081  0.08700  1.0000
  H   H371      1.0  0.24662  0.48776  0.99705  1.0000
  H   H372      1.0  0.48999  0.31059  0.47311  1.0000
  C   C302      1.0  0.49220  0.32334  0.28930  1.0000
  H   H373      1.0  0.49122  0.09053  0.02872  1.0000
  Fe  Fe45      1.0  0.41981  0.47222  0.66014  1.0000
  C   C303      1.0  0.48688  0.36917  0.54121  1.0000
  Fe  Fe46      1.0  0.40039  0.43948  0.64521  1.0000
  S   S83       1.0  0.38115  0.44830  0.62692  1.0000
  S   S84       1.0  0.40273  0.41486  0.63973  1.0000
  Fe  Fe47      1.0  0.40159  0.46810  0.60536  1.0000
  S   S85       1.0  0.40412  0.47982  0.56041  1.0000
  Fe  Fe48      1.0  0.38381  0.46361  0.66524  1.0000
  S   S86       1.0  0.36321  0.47108  0.68569  1.0000
  S   S87       1.0  0.42049  0.45852  0.62157  1.0000
  S   S88       1.0  0.40098  0.45263  0.68540  1.0000
  Fe  Fe49      1.0  0.47325  0.38199  0.67064  1.0000
  S   S89       1.0  0.46467  0.35550  0.66446  1.0000
  S   S90       1.0  0.45943  0.39593  0.69407  1.0000
  Fe  Fe50      1.0  0.47550  0.36281  0.61948  1.0000
  S   S91       1.0  0.46166  0.35403  0.58036  1.0000
  C   C304      1.0  0.34991  0.48191  0.57114  1.0000
  C   C305      1.0  0.48803  0.10583  0.73591  1.0000
  H   H374      1.0  0.34451  0.48416  0.64384  1.0000
  H   H375      1.0  0.42891  0.04312  0.71036  1.0000
  H   H376      1.0  0.48840  0.26959  0.88193  1.0000
  S   S92       1.0  0.40302  0.48398  0.64193  1.0000
  Fe  Fe51      1.0  0.47383  0.05984  0.67208  1.0000
  S   S93       1.0  0.48055  0.03794  0.68397  1.0000
  C   C306      1.0  0.33638  0.49041  0.53187  1.0000
  Fe  Fe52      1.0  0.46465  0.04757  0.61188  1.0000
  S   S94       1.0  0.47089  0.02506  0.62002  1.0000
  H   H377      1.0  0.46776  0.47979  0.64383  1.0000
  Fe  Fe53      1.0  0.45846  0.02361  0.66312  1.0000
  C   C307      1.0  0.46782  0.36309  0.49414  1.0000
  S   S95       1.0  0.45057  0.04528  0.65416  1.0000
  C   C308      1.0  0.46343  0.04860  0.53572  1.0000
  C   C309      1.0  0.47070  0.03663  0.53440  1.0000
  H   H378      1.0  0.33578  0.45568  0.60554  1.0000
  H   H379      1.0  0.40625  0.37703  0.71729  1.0000
  N   N23       1.0  0.41692  0.35103  0.61952  1.0000
  C   C310      1.0  0.42125  0.35546  0.67208  1.0000
  H   H380      1.0  0.47195  0.03020  0.55376  1.0000
  H   H381      1.0  0.42491  0.36119  0.71585  1.0000
  S   S96       1.0  0.44291  0.48481  0.67905  1.0000
  H   H382      1.0  0.39773  0.36991  0.62985  1.0000
  H   H383      1.0  0.43204  0.02688  0.78146  1.0000
  C   C311      1.0  0.46113  0.05624  0.51017  1.0000
  H   H384      1.0  0.42984  0.36019  0.57918  1.0000
  H   H385      1.0  0.47449  0.42919  0.64693  1.0000
  H   H386      1.0  0.41847  0.03789  0.77424  1.0000
  N   N24       1.0  0.44096  0.04667  0.74977  1.0000
  H   H387      1.0  0.43182  0.02549  0.54746  1.0000
  C   C312      1.0  0.41849  0.36237  0.69717  1.0000
  C   C313      1.0  0.42542  0.33897  0.62274  1.0000
  H   H388      1.0  0.47486  0.24318  0.79771  1.0000
  C   C314      1.0  0.40280  0.47883  0.50225  1.0000
  H   H389      1.0  0.45154  0.43689  0.65642  1.0000
  H   H390      1.0  0.42478  0.05789  0.73165  1.0000
  H   H391      1.0  0.48666  0.44721  0.69985  1.0000
  C   C315      1.0  0.44922  0.07546  0.76485  1.0000
  C   C316      1.0  0.46217  0.08239  0.80894  1.0000
  C   C317      1.0  0.48249  0.27169  0.86246  1.0000
  H   H392      1.0  0.43775  0.34440  0.62959  1.0000
  C   C318      1.0  0.47051  0.36101  0.54568  1.0000
  C   C319      1.0  0.46102  0.35801  0.52200  1.0000
  H   H393      1.0  0.48226  0.02391  0.50731  1.0000
  H   H394      1.0  0.47745  0.00086  0.66371  1.0000
  C   C320      1.0  0.48175  0.21545  0.84244  1.0000
  H   H395      1.0  0.35610  0.45677  0.59722  1.0000
  H   H396      1.0  0.44837  0.35167  0.52521  1.0000
  H   H397      1.0  0.48344  0.44598  0.62173  1.0000
  C   C321      1.0  0.48585  0.46919  0.65802  1.0000
  H   H398      1.0  0.36997  0.47143  0.78979  1.0000
  C   C322      1.0  0.35991  0.47600  0.72146  1.0000
  C   C323      1.0  0.47635  0.03296  0.50799  1.0000
  C   C324      1.0  0.42703  0.36440  0.60015  1.0000
  H   H399      1.0  0.37229  0.43625  0.50426  1.0000
  H   H400      1.0  0.46890  0.26645  0.81216  1.0000
  C   C325      1.0  0.36781  0.47185  0.74422  1.0000
  H   H401      1.0  0.41109  0.49087  0.50163  1.0000
  H   H402      1.0  0.37756  0.48230  0.59722  1.0000
  H   H403      1.0  0.43384  0.02540  0.49565  1.0000
  H   H404      1.0  0.37647  0.46567  0.74028  1.0000
  C   C326      1.0  0.41969  0.41136  0.65372  1.0000
  C   C327      1.0  0.42348  0.41466  0.68181  1.0000
  C   C328      1.0  0.43573  0.40993  0.69384  1.0000
  C   C329      1.0  0.44446  0.40207  0.67779  1.0000
  C   C330      1.0  0.44109  0.39930  0.64937  1.0000
  C   C331      1.0  0.42865  0.40381  0.63745  1.0000
  H   H405      1.0  0.41656  0.42033  0.69462  1.0000
  H   H406      1.0  0.43827  0.41213  0.71583  1.0000
  H   H407      1.0  0.44790  0.39345  0.63681  1.0000
  H   H408      1.0  0.42578  0.40124  0.61574  1.0000
  C   C332      1.0  0.39761  0.47026  0.52866  1.0000
  C   C333      1.0  0.38680  0.45475  0.52916  1.0000
  S   S97       1.0  0.48255  0.38915  0.62545  1.0000
  C   C334      1.0  0.43430  0.05277  0.72489  1.0000
  H   H409      1.0  0.34227  0.48709  0.71000  1.0000
  C   C335      1.0  0.48004  0.48180  0.64871  1.0000
  H   H410      1.0  0.38261  0.44805  0.54932  1.0000
  N   N25       1.0  0.35228  0.47964  0.60178  1.0000
  C   C336      1.0  0.44791  0.05906  0.77002  1.0000
  C   C337      1.0  0.48836  0.22493  0.86446  1.0000
  C   C338      1.0  0.45414  0.05493  0.79549  1.0000
  N   N26       1.0  0.47551  0.45228  0.66208  1.0000
  C   C339      1.0  0.48221  0.44197  0.64468  1.0000
  C   C340      1.0  0.48569  0.24875  0.83874  1.0000
  H   H411      1.0  0.45846  0.45360  0.63126  1.0000
  H   H412      1.0  0.39579  0.35183  0.59838  1.0000
  H   H413      1.0  0.47184  0.21483  0.80158  1.0000
  H   H414      1.0  0.42847  0.99591  0.63376  1.0000
  H   H415      1.0  0.43024  0.42613  0.50843  1.0000
  H   H416      1.0  0.45009  0.41309  0.52009  1.0000
  H   H417      1.0  0.49061  0.06836  0.74579  1.0000
  C   C341      1.0  0.35268  0.48294  0.77821  1.0000
  H   H418      1.0  0.41883  0.32895  0.63826  1.0000
  C   C342      1.0  0.40179  0.34318  0.60589  1.0000
  H   H419      1.0  0.45822  0.03411  0.75572  1.0000
  S   S98       1.0  0.45703  0.05428  0.56871  1.0000
  H   H420      1.0  0.40387  0.33702  0.58662  1.0000
  N   N27       1.0  0.48901  0.26632  0.83650  1.0000
  H   H421      1.0  0.44378  0.06209  0.71166  1.0000
  H   H422      1.0  0.48386  0.11310  0.72101  1.0000
  H   H423      1.0  0.45398  0.04281  0.80052  1.0000
  H   H424      1.0  0.42194  0.02418  0.74937  1.0000
  H   H425      1.0  0.43872  0.37030  0.60933  1.0000
  C   C343      1.0  0.44419  0.41081  0.50026  1.0000
  C   C344      1.0  0.41362  0.35748  0.64685  1.0000
  C   C345      1.0  0.46116  0.06646  0.81459  1.0000
  H   H426      1.0  0.46945  0.26539  0.86621  1.0000
  H   H427      1.0  0.46811  0.09140  0.82329  1.0000
  H   H428      1.0  0.46619  0.06314  0.83357  1.0000
  H   H429      1.0  0.35009  0.46005  0.63250  1.0000
  C   C346      1.0  0.34856  0.48388  0.72729  1.0000
  H   H430      1.0  0.45754  0.09938  0.77940  1.0000
  C   C347      1.0  0.45618  0.08686  0.78419  1.0000
  C   C348      1.0  0.43052  0.01399  0.50767  1.0000
  C   C349      1.0  0.40801  0.37132  0.69804  1.0000
  H   H431      1.0  0.44898  0.03122  0.72256  1.0000
  S   S99       1.0  0.47626  0.08174  0.69907  1.0000
  C   C350      1.0  0.48635  0.08984  0.73003  1.0000
  H   H432      1.0  0.39270  0.38109  0.67416  1.0000
  H   H433      1.0  0.44550  0.07994  0.74556  1.0000
  H   H434      1.0  0.46689  0.43416  0.69652  1.0000
  H   H435      1.0  0.45260  0.45621  0.66759  1.0000
  C   C351      1.0  0.47869  0.23867  0.81683  1.0000
  C   C352      1.0  0.48425  0.37104  0.48972  1.0000
  C   C353      1.0  0.34590  0.48565  0.51200  1.0000
  C   C354      1.0  0.42780  0.03337  0.76441  1.0000
  H   H436      1.0  0.48444  0.28534  0.81121  1.0000
  C   C355      1.0  0.45885  0.44972  0.65393  1.0000
  C   C356      1.0  0.47683  0.22228  0.81878  1.0000
  C   C357      1.0  0.40033  0.37353  0.67375  1.0000
  C   C358      1.0  0.36407  0.47512  0.77237  1.0000
  C   C359      1.0  0.38098  0.44808  0.50355  1.0000
  C   C360      1.0  0.40323  0.36693  0.64840  1.0000
  H   H437      1.0  0.24389  0.47910  0.84758  1.0000
  H   H438      1.0  0.42713  0.33378  0.60214  1.0000
  C   C361      1.0  0.45351  0.04020  0.73872  1.0000
  C   C362      1.0  0.34220  0.48599  0.62100  1.0000
  C   C363      1.0  0.49179  0.08066  0.74972  1.0000
  H   H439      1.0  0.42969  0.34889  0.67291  1.0000
  H   H440      1.0  0.48435  0.28483  0.86080  1.0000
  S   S100      1.0  0.34841  0.48656  0.81434  1.0000
  C   C364      1.0  0.48762  0.99610  0.65998  1.0000
  H   H441      1.0  0.45533  0.06538  0.51093  1.0000
  H   H442      1.0  0.39324  0.33409  0.62097  1.0000
  C   C365      1.0  0.48209  0.27211  0.81163  1.0000
  H   H443      1.0  0.42125  0.37376  0.59612  1.0000
  H   H444      1.0  0.46384  0.05000  0.72855  1.0000
  C   C366      1.0  0.34508  0.48747  0.75536  1.0000
  H   H445      1.0  0.48082  0.20286  0.84346  1.0000
  C   C367      1.0  0.47475  0.44679  0.69250  1.0000
  C   C368      1.0  0.24782  0.49182  0.84194  1.0000
  C   C369      1.0  0.34840  0.46230  0.60955  1.0000
  H   H446      1.0  0.46995  0.45438  0.70635  1.0000
  C   C370      1.0  0.42501  0.99992  0.55418  1.0000
  H   H447      1.0  0.32924  0.47973  0.61913  1.0000
  S   S101      1.0  0.44494  0.99982  0.68686  1.0000
  H   H448      1.0  0.48874  0.34896  0.75587  1.0000
  S   S102      1.0  0.48694  0.06385  0.62884  1.0000
  C   C371      1.0  0.42936  0.01418  0.53737  1.0000
  H   H449      1.0  0.40316  0.42267  0.50417  1.0000
  C   C372      1.0  0.42740  0.99942  0.49383  1.0000
  H   H450      1.0  0.48751  0.26984  0.79110  1.0000
  C   C373      1.0  0.49047  0.24134  0.86262  1.0000
  C   C374      1.0  0.35933  0.47715  0.55027  1.0000
  C   C375      1.0  0.33828  0.48859  0.56107  1.0000
  C   C376      1.0  0.43284  0.41824  0.49334  1.0000
  H   H451      1.0  0.42407  0.00015  0.57720  1.0000
  H   H452      1.0  0.37122  0.48752  0.63063  1.0000
  H   H453      1.0  0.36836  0.47194  0.55635  1.0000
  H   H454      1.0  0.27297  0.49381  0.83947  1.0000
  H   H455      1.0  0.36480  0.47533  0.50574  1.0000
  C   C377      1.0  0.35736  0.47903  0.52120  1.0000
  H   H456      1.0  0.33622  0.49338  0.75941  1.0000
  C   C378      1.0  0.36922  0.48788  0.60746  1.0000
  Fe  Fe54      1.0  0.48921  0.35549  0.67679  1.0000
  H   H457      1.0  0.33052  0.49252  0.57527  1.0000
  H   H458      1.0  0.34441  0.48707  0.48940  1.0000
  Fe  Fe55      1.0  0.49209  0.04109  0.64004  1.0000
  S   S103      1.0  0.45435  0.55924  0.43108  1.0000
  S   S104      1.0  0.44173  0.49658  0.36524  1.0000
  Fe  Fe56      1.0  0.44872  0.66642  0.17485  1.0000
  S   S105      1.0  0.46986  0.65907  0.15981  1.0000
  S   S106      1.0  0.44850  0.69165  0.16120  1.0000
  Fe  Fe57      1.0  0.42954  0.63170  0.19477  1.0000
  S   S107      1.0  0.44939  0.62237  0.18090  1.0000
  S   S108      1.0  0.40807  0.61251  0.21586  1.0000
  Fe  Fe58      1.0  0.46528  0.64367  0.20124  1.0000
  H   H459      1.0  0.32056  0.51807  0.04229  1.0000
  Fe  Fe59      1.0  0.45188  0.63836  0.14118  1.0000
  S   S109      1.0  0.44977  0.62672  0.09860  1.0000
  S   S110      1.0  0.44526  0.65244  0.21734  1.0000
  S   S111      1.0  0.43094  0.64630  0.15407  1.0000
  Fe  Fe60      1.0  0.46465  0.78223  0.20097  1.0000
  H   H460      1.0  0.35098  0.55389  0.02559  1.0000
  S   S112      1.0  0.46781  0.75892  0.21894  1.0000
  Fe  Fe61      1.0  0.43846  0.79729  0.19523  1.0000
  S   S113      1.0  0.45502  0.82065  0.17620  1.0000
  S   S114      1.0  0.41296  0.79282  0.21120  1.0000
  Fe  Fe62      1.0  0.46588  0.80533  0.15007  1.0000
  C   C379      1.0  0.46279  0.68340  0.03291  1.0000
  Fe  Fe63      1.0  0.47132  0.81869  0.21111  1.0000
  H   H461      1.0  0.41890  0.60684  0.11036  1.0000
  S   S115      1.0  0.44776  0.78201  0.16668  1.0000
  S   S116      1.0  0.45392  0.79589  0.23098  1.0000
  C   C380      1.0  0.25253  0.76968  0.17225  1.0000
  S   S117      1.0  0.32881  0.53087  0.17769  1.0000
  Fe  Fe64      1.0  0.34255  0.52523  0.09909  1.0000
  S   S118      1.0  0.32537  0.53865  0.10880  1.0000
  H   H462      1.0  0.41849  0.51828  0.28751  1.0000
  Fe  Fe65      1.0  0.34196  0.54942  0.14286  1.0000
  S   S119      1.0  0.35112  0.57647  0.14108  1.0000
  Fe  Fe66      1.0  0.31359  0.51896  0.14237  1.0000
  H   H463      1.0  0.26314  0.76579  0.16723  1.0000
  S   S120      1.0  0.35971  0.53698  0.13154  1.0000
  Fe  Fe67      1.0  0.33541  0.78093  0.13787  1.0000
  S   S121      1.0  0.33171  0.80419  0.12449  1.0000
  S   S122      1.0  0.35915  0.77838  0.12309  1.0000
  Fe  Fe68      1.0  0.30107  0.76635  0.16332  1.0000
  S   S123      1.0  0.29540  0.78903  0.15253  1.0000
  S   S124      1.0  0.28345  0.74342  0.18508  1.0000
  Fe  Fe69      1.0  0.30816  0.78888  0.10980  1.0000
  S   S125      1.0  0.29549  0.78809  0.06829  1.0000
  Fe  Fe70      1.0  0.31967  0.80225  0.16861  1.0000
  S   S126      1.0  0.32601  0.82533  0.19364  1.0000
  S   S127      1.0  0.31277  0.76575  0.12041  1.0000
  S   S128      1.0  0.32449  0.77951  0.18239  1.0000
  C   C381      1.0  0.26283  0.51554  0.05803  1.0000
  Fe  Fe71      1.0  0.37139  0.87202  0.33471  1.0000
  S   S129      1.0  0.37917  0.86478  0.37709  1.0000
  S   S130      1.0  0.35619  0.84981  0.31234  1.0000
  Fe  Fe72      1.0  0.39367  0.90715  0.33830  1.0000
  S   S131      1.0  0.40320  0.90189  0.37945  1.0000
  S   S132      1.0  0.40563  0.93160  0.31488  1.0000
  Fe  Fe73      1.0  0.40382  0.87917  0.36051  1.0000
  S   S133      1.0  0.42425  0.86915  0.36190  1.0000
  Fe  Fe74      1.0  0.37785  0.88799  0.39337  1.0000
  S   S134      1.0  0.36858  0.89240  0.43761  1.0000
  S   S135      1.0  0.39650  0.88537  0.31784  1.0000
  S   S136      1.0  0.36775  0.89434  0.35255  1.0000
  C   C382      1.0  0.41230  0.95023  0.33114  1.0000
  H   H464      1.0  0.42517  0.96288  0.29277  1.0000
  C   C383      1.0  0.46284  0.90286  0.41055  1.0000
  C   C384      1.0  0.46685  0.89291  0.39121  1.0000
  C   C385      1.0  0.45486  0.88187  0.37737  1.0000
  C   C386      1.0  0.43888  0.88088  0.38277  1.0000
  C   C387      1.0  0.43481  0.89001  0.40358  1.0000
  C   C388      1.0  0.44680  0.90110  0.41735  1.0000
  H   H465      1.0  0.47921  0.89408  0.38606  1.0000
  H   H466      1.0  0.45804  0.87464  0.36164  1.0000
  H   H467      1.0  0.42243  0.88849  0.40917  1.0000
  H   H468      1.0  0.44364  0.90845  0.43290  1.0000
  C   C389      1.0  0.33446  0.83185  0.22681  1.0000
  C   C390      1.0  0.33746  0.82137  0.24745  1.0000
  C   C391      1.0  0.34411  0.82713  0.27324  1.0000
  C   C392      1.0  0.34833  0.84350  0.27869  1.0000
  C   C393      1.0  0.34565  0.85403  0.25782  1.0000
  C   C394      1.0  0.33857  0.84821  0.23234  1.0000
  H   H469      1.0  0.33444  0.80877  0.24375  1.0000
  H   H470      1.0  0.34597  0.81879  0.28920  1.0000
  H   H471      1.0  0.34864  0.86662  0.26160  1.0000
  H   H472      1.0  0.33636  0.85650  0.21670  1.0000
  C   C395      1.0  0.30403  0.79341  0.03287  1.0000
  C   C396      1.0  0.29622  0.78471  0.01042  1.0000
  C   C397      1.0  0.48819  0.85004  0.26804  1.0000
  C   C398      1.0  0.34393  0.52107  0.02298  1.0000
  C   C399      1.0  0.41433  0.82223  0.26854  1.0000
  C   C400      1.0  0.31738  0.80692  0.02628  1.0000
  H   H473      1.0  0.28577  0.77438  0.01517  1.0000
  H   H474      1.0  0.39912  0.61273  0.07247  1.0000
  H   H475      1.0  0.46741  0.56580  0.48680  1.0000
  H   H476      1.0  0.32333  0.81391  0.04325  1.0000
  H   H477      1.0  0.26414  0.74605  0.13667  1.0000
  C   C401      1.0  0.39544  0.53218  0.29815  1.0000
  H   H478      1.0  0.43678  0.89563  0.29703  1.0000
  C   C402      1.0  0.32745  0.51831  0.02260  1.0000
  H   H479      1.0  0.34509  0.51062  0.24393  1.0000
  C   C403      1.0  0.46664  0.68302  0.06139  1.0000
  H   H480      1.0  0.45193  0.72347  0.13953  1.0000
  C   C404      1.0  0.45400  0.80494  0.01476  1.0000
  C   C405      1.0  0.39948  0.56300  0.08770  1.0000
  C   C406      1.0  0.27042  0.52371  0.16607  1.0000
  C   C407      1.0  0.26966  0.50911  0.15468  1.0000
  C   C408      1.0  0.24956  0.71693  0.07552  1.0000
  H   H481      1.0  0.43931  0.59359  0.12099  1.0000
  H   H482      1.0  0.45952  0.57975  0.32994  1.0000
  C   C409      1.0  0.44222  0.68796  0.07614  1.0000
  H   H483      1.0  0.28897  0.81819  0.21460  1.0000
  C   C410      1.0  0.34872  0.83235  0.48716  1.0000
  C   C411      1.0  0.44591  0.82763  0.28694  1.0000
  C   C412      1.0  0.38280  0.87680  0.47625  1.0000
  C   C413      1.0  0.39817  0.78787  0.18649  1.0000
  C   C414      1.0  0.38211  0.78378  0.19632  1.0000
  C   C415      1.0  0.37000  0.78047  0.17701  1.0000
  C   C416      1.0  0.37394  0.78119  0.14782  1.0000
  C   C417      1.0  0.38998  0.78470  0.13806  1.0000
  C   C418      1.0  0.40212  0.78812  0.15738  1.0000
  H   H484      1.0  0.37901  0.78339  0.21889  1.0000
  H   H485      1.0  0.35764  0.77747  0.18468  1.0000
  H   H486      1.0  0.39305  0.78517  0.11546  1.0000
  H   H487      1.0  0.41452  0.79122  0.14969  1.0000
  C   C419      1.0  0.46683  0.80835  0.06959  1.0000
  C   C420      1.0  0.45026  0.80319  0.06709  1.0000
  H   H488      1.0  0.39582  0.59613  0.98847  1.0000
  C   C421      1.0  0.35272  0.52138  0.99717  1.0000
  C   C422      1.0  0.35513  0.49974  0.27731  1.0000
  H   H489      1.0  0.44234  0.80043  0.08610  1.0000
  H   H490      1.0  0.43111  0.79740  0.03833  1.0000
  H   H491      1.0  0.34837  0.50311  0.29425  1.0000
  C   C423      1.0  0.39204  0.60274  0.19530  1.0000
  C   C424      1.0  0.38783  0.61074  0.17216  1.0000
  C   C425      1.0  0.37501  0.60263  0.15609  1.0000
  C   C426      1.0  0.36660  0.58639  0.16259  1.0000
  C   C427      1.0  0.37079  0.57838  0.18574  1.0000
  C   C428      1.0  0.38332  0.58662  0.20230  1.0000
  H   H492      1.0  0.39432  0.62323  0.16689  1.0000
  H   H493      1.0  0.37169  0.60892  0.13841  1.0000
  H   H494      1.0  0.36425  0.56591  0.19107  1.0000
  H   H495      1.0  0.38640  0.58044  0.22039  1.0000
  C   C429      1.0  0.45675  0.63561  0.06405  1.0000
  H   H496      1.0  0.41549  0.56019  0.29077  1.0000
  H   H497      1.0  0.43924  0.58255  0.29713  1.0000
  H   H498      1.0  0.41310  0.60257  0.14721  1.0000
  C   C430      1.0  0.44727  0.63016  0.04104  1.0000
  H   H499      1.0  0.43550  0.62157  0.04508  1.0000
  C   C431      1.0  0.45378  0.71014  0.17799  1.0000
  C   C432      1.0  0.45697  0.71121  0.20680  1.0000
  C   C433      1.0  0.46106  0.72619  0.21908  1.0000
  C   C434      1.0  0.46197  0.74025  0.20277  1.0000
  C   C435      1.0  0.45853  0.73913  0.17406  1.0000
  C   C436      1.0  0.45446  0.72416  0.16179  1.0000
  H   H500      1.0  0.45631  0.70052  0.21959  1.0000
  C   C437      1.0  0.46408  0.76997  0.07498  1.0000
  H   H501      1.0  0.45922  0.74983  0.16121  1.0000
  C   C438      1.0  0.28440  0.80543  0.22026  1.0000
  H   H502      1.0  0.39494  0.81094  0.24250  1.0000
  C   C439      1.0  0.48030  0.62289  0.27763  1.0000
  H   H503      1.0  0.41985  0.50865  0.39874  1.0000
  C   C440      1.0  0.45049  0.54033  0.41732  1.0000
  C   C441      1.0  0.43480  0.53029  0.41533  1.0000
  C   C442      1.0  0.43194  0.51610  0.40097  1.0000
  C   C443      1.0  0.42401  0.98026  0.35584  1.0000
  C   C444      1.0  0.46040  0.52171  0.39186  1.0000
  C   C445      1.0  0.46323  0.53567  0.40644  1.0000
  H   H504      1.0  0.42489  0.53375  0.42401  1.0000
  S   S137      1.0  0.35420  0.52513  0.05476  1.0000
  H   H505      1.0  0.47040  0.51850  0.38303  1.0000
  H   H506      1.0  0.47536  0.54292  0.40868  1.0000
  C   C446      1.0  0.25797  0.73520  0.14946  1.0000
  H   H507      1.0  0.48414  0.87263  0.25933  1.0000
  C   C447      1.0  0.32180  0.83314  0.44950  1.0000
  H   H508      1.0  0.38880  0.54762  0.05476  1.0000
  N   N28       1.0  0.45491  0.94001  0.35168  1.0000
  H   H509      1.0  0.25700  0.53818  0.18367  1.0000
  C   C448      1.0  0.26301  0.73037  0.07734  1.0000
  H   H510      1.0  0.38712  0.51454  0.34594  1.0000
  C   C449      1.0  0.47056  0.81030  0.01728  1.0000
  S   S138      1.0  0.47568  0.81017  0.10328  1.0000
  H   H511      1.0  0.35883  0.57333  0.05525  1.0000
  C   C450      1.0  0.28784  0.78199  0.24369  1.0000
  C   C451      1.0  0.37432  0.88765  0.47203  1.0000
  C   C452      1.0  0.39873  0.60551  0.02939  1.0000
  H   H512      1.0  0.38674  0.87157  0.45814  1.0000
  C   C453      1.0  0.42821  0.97870  0.32737  1.0000
  C   C454      1.0  0.26425  0.77919  0.21595  1.0000
  S   S139      1.0  0.48944  0.57121  0.37378  1.0000
  C   C455      1.0  0.34149  0.84454  0.48332  1.0000
  H   H513      1.0  0.47220  0.68664  0.24814  1.0000
  H   H514      1.0  0.46785  0.61884  0.27280  1.0000
  H   H515      1.0  0.42787  0.98411  0.42763  1.0000
  C   C456      1.0  0.25116  0.49563  0.01397  1.0000
  H   H516      1.0  0.43427  0.68957  0.09318  1.0000
  C   C457      1.0  0.42281  0.58548  0.07264  1.0000
  C   C458      1.0  0.25452  0.49800  0.15113  1.0000
  H   H517      1.0  0.42960  0.83922  0.34540  1.0000
  H   H518      1.0  0.43535  0.97820  0.45944  1.0000
  C   C459      1.0  0.39265  0.60446  0.05746  1.0000
  H   H519      1.0  0.26268  0.71249  0.20636  1.0000
  H   H520      1.0  0.43967  0.92536  0.38599  1.0000
  H   H521      1.0  0.40862  0.56317  0.01670  1.0000
  H   H522      1.0  0.33910  0.87254  0.45913  1.0000
  H   H523      1.0  0.44037  0.81442  0.28994  1.0000
  H   H524      1.0  0.35927  0.85919  0.43800  1.0000
  H   H525      1.0  0.48957  0.77570  0.07320  1.0000
  C   C460      1.0  0.48113  0.68100  0.24035  1.0000
  H   H526      1.0  0.28601  0.51464  0.04330  1.0000
  H   H527      1.0  0.44727  0.83388  0.34055  1.0000
  C   C461      1.0  0.38798  0.82523  0.27320  1.0000
  H   H528      1.0  0.42807  0.81909  0.33729  1.0000
  H   H529      1.0  0.40081  0.53500  0.27596  1.0000
  C   C462      1.0  0.45306  0.63544  0.01280  1.0000
  H   H530      1.0  0.39841  0.59669  0.12102  1.0000
  C   C463      1.0  0.45702  0.92593  0.33797  1.0000
  C   C464      1.0  0.44472  0.91620  0.32204  1.0000
  C   C465      1.0  0.47135  0.92183  0.33892  1.0000
  C   C466      1.0  0.44656  0.90308  0.30834  1.0000
  C   C467      1.0  0.47316  0.90883  0.32470  1.0000
  C   C468      1.0  0.46078  0.89945  0.30955  1.0000
  C   C469      1.0  0.40832  0.95173  0.35974  1.0000
  H   H531      1.0  0.30769  0.49555  0.18790  1.0000
  H   H532      1.0  0.33969  0.77096  0.01575  1.0000
  Fe  Fe75      1.0  0.34564  0.51749  0.16376  1.0000
  H   H533      1.0  0.34989  0.82499  0.46998  1.0000
  H   H534      1.0  0.39049  0.55566  0.10312  1.0000
  H   H535      1.0  0.48403  0.90569  0.32624  1.0000
  H   H536      1.0  0.46216  0.88922  0.29914  1.0000
  C   C470      1.0  0.39041  0.59496  0.00987  1.0000
  N   N29       1.0  0.44370  0.68619  0.99533  1.0000
  H   H537      1.0  0.48122  0.92825  0.35101  1.0000
  C   C471      1.0  0.44840  0.68610  0.02518  1.0000
  H   H538      1.0  0.39102  0.54206  0.30491  1.0000
  S   S140      1.0  0.28708  0.50383  0.14557  1.0000
  H   H539      1.0  0.43015  0.58754  0.02802  1.0000
  H   H540      1.0  0.43139  0.58683  0.15609  1.0000
  C   C472      1.0  0.31985  0.51568  0.99672  1.0000
  C   C473      1.0  0.47807  0.65143  0.03024  1.0000
  C   C474      1.0  0.40020  0.79757  0.99309  1.0000
  C   C475      1.0  0.46814  0.94803  0.36974  1.0000
  C   C476      1.0  0.40942  0.56699  0.03829  1.0000
  C   C477      1.0  0.43002  0.58374  0.13343  1.0000
  C   C478      1.0  0.48017  0.77011  0.03196  1.0000
  H   H541      1.0  0.31672  0.83490  0.42882  1.0000
  C   C479      1.0  0.45041  0.76601  0.05957  1.0000
  C   C480      1.0  0.39870  0.81872  0.25983  1.0000
  H   H542      1.0  0.28194  0.53236  0.16912  1.0000
  C   C481      1.0  0.37210  0.78963  0.00854  1.0000
  H   H543      1.0  0.43834  0.94532  0.38190  1.0000
  H   H544      1.0  0.43834  0.86091  0.30854  1.0000
  H   H545      1.0  0.26421  0.80192  0.19547  1.0000
  H   H546      1.0  0.45209  0.96268  0.33857  1.0000
  N   N30       1.0  0.40687  0.74225  0.21300  1.0000
  C   C482      1.0  0.41012  0.74925  0.18330  1.0000
  C   C483      1.0  0.39377  0.74732  0.22621  1.0000
  C   C484      1.0  0.42132  0.74919  0.22908  1.0000
  C   C485      1.0  0.40304  0.72464  0.21282  1.0000
  C   C486      1.0  0.38764  0.71379  0.22138  1.0000
  C   C487      1.0  0.41477  0.71785  0.20299  1.0000
  C   C488      1.0  0.38443  0.69722  0.22054  1.0000
  C   C489      1.0  0.41142  0.70128  0.20222  1.0000
  C   C490      1.0  0.39630  0.69099  0.21105  1.0000
  H   H547      1.0  0.39965  0.74427  0.17029  1.0000
  H   H548      1.0  0.41279  0.76247  0.18251  1.0000
  H   H549      1.0  0.42061  0.74696  0.17258  1.0000
  H   H550      1.0  0.39724  0.76054  0.22721  1.0000
  H   H551      1.0  0.39057  0.74223  0.24853  1.0000
  H   H552      1.0  0.38292  0.74390  0.21367  1.0000
  H   H553      1.0  0.43232  0.74787  0.21856  1.0000
  H   H554      1.0  0.42394  0.76233  0.23099  1.0000
  H   H555      1.0  0.41990  0.74345  0.25096  1.0000
  H   H556      1.0  0.37784  0.71776  0.22871  1.0000
  H   H557      1.0  0.42662  0.72531  0.19565  1.0000
  H   H558      1.0  0.37263  0.68915  0.22721  1.0000
  H   H559      1.0  0.42059  0.69638  0.19461  1.0000
  H   H560      1.0  0.39378  0.67815  0.21039  1.0000
  N   N31       1.0  0.37701  0.83054  0.16990  1.0000
  C   C491      1.0  0.38620  0.82430  0.14876  1.0000
  C   C492      1.0  0.36516  0.81660  0.18552  1.0000
  C   C493      1.0  0.36831  0.83973  0.15382  1.0000
  C   C494      1.0  0.38708  0.84072  0.19061  1.0000
  C   C495      1.0  0.38014  0.84834  0.21101  1.0000
  C   C496      1.0  0.40371  0.84291  0.19196  1.0000
  C   C497      1.0  0.38922  0.85777  0.23119  1.0000
  C   C498      1.0  0.41273  0.85241  0.21222  1.0000
  C   C499      1.0  0.40551  0.85985  0.23173  1.0000
  H   H561      1.0  0.37828  0.81678  0.13339  1.0000
  H   H562      1.0  0.39531  0.83419  0.13605  1.0000
  H   H563      1.0  0.39224  0.81641  0.15925  1.0000
  H   H564      1.0  0.37113  0.80999  0.19938  1.0000
  H   H565      1.0  0.35784  0.80811  0.17076  1.0000
  H   H566      1.0  0.35663  0.82020  0.19948  1.0000
  H   H567      1.0  0.37672  0.85098  0.14341  1.0000
  H   H568      1.0  0.36133  0.83266  0.13698  1.0000
  H   H569      1.0  0.35937  0.84301  0.16756  1.0000
  H   H570      1.0  0.36755  0.84692  0.21168  1.0000
  H   H571      1.0  0.41005  0.83735  0.17777  1.0000
  H   H572      1.0  0.38352  0.86331  0.24675  1.0000
  H   H573      1.0  0.42537  0.85387  0.21292  1.0000
  H   H574      1.0  0.41246  0.86706  0.24760  1.0000
  N   N32       1.0  0.40692  0.52914  0.31808  1.0000
  C   C500      1.0  0.39842  0.52472  0.34662  1.0000
  C   C501      1.0  0.41138  0.51525  0.30824  1.0000
  C   C502      1.0  0.42148  0.54305  0.32002  1.0000
  C   C503      1.0  0.43360  0.54189  0.33800  1.0000
  C   C504      1.0  0.42398  0.55808  0.30501  1.0000
  C   C505      1.0  0.44708  0.55498  0.34155  1.0000
  C   C506      1.0  0.43765  0.57110  0.30844  1.0000
  C   C507      1.0  0.44911  0.56958  0.32684  1.0000
  H   H575      1.0  0.39529  0.53499  0.35525  1.0000
  H   H576      1.0  0.39147  0.79867  0.03599  1.0000
  H   H577      1.0  0.40568  0.52086  0.36240  1.0000
  H   H578      1.0  0.37590  0.82257  0.26635  1.0000
  C   C508      1.0  0.32242  0.81200  0.99757  1.0000
  H   H579      1.0  0.45804  0.83055  0.29533  1.0000
  H   H580      1.0  0.43262  0.53084  0.34979  1.0000
  H   H581      1.0  0.45592  0.55380  0.35606  1.0000
  H   H582      1.0  0.32567  0.49828  0.20645  1.0000
  H   H583      1.0  0.48970  0.81604  0.04607  1.0000
  H   H584      1.0  0.40063  0.94143  0.37237  1.0000
  C   C509      1.0  0.41089  0.59768  0.12581  1.0000
  C   C510      1.0  0.48011  0.55561  0.28267  1.0000
  Fe  Fe76      1.0  0.48001  0.57251  0.41827  1.0000
  H   H585      1.0  0.43241  0.59618  0.07652  1.0000
  H   H586      1.0  0.45190  0.71184  0.98998  1.0000
  H   H587      1.0  0.47970  0.65038  0.07601  1.0000
  C   C511      1.0  0.45152  0.76426  0.03023  1.0000
  H   H588      1.0  0.43303  0.57251  0.13087  1.0000
  H   H589      1.0  0.44525  0.85743  0.27360  1.0000
  H   H590      1.0  0.43015  0.66118  0.99893  1.0000
  H   H591      1.0  0.27176  0.73027  0.09279  1.0000
  H   H592      1.0  0.25007  0.53767  0.08471  1.0000
  C   C512      1.0  0.27331  0.51084  0.03988  1.0000
  H   H593      1.0  0.45684  0.85688  0.30388  1.0000
  H   H594      1.0  0.47532  0.51847  0.33352  1.0000
  C   C513      1.0  0.41965  0.83240  0.29122  1.0000
  C   C514      1.0  0.49140  0.63460  0.25922  1.0000
  H   H595      1.0  0.41163  0.84701  0.32106  1.0000
  H   H596      1.0  0.46368  0.72692  0.24130  1.0000
  H   H597      1.0  0.29496  0.77656  0.25633  1.0000
  C   C515      1.0  0.47213  0.64643  0.05855  1.0000
  C   C516      1.0  0.27367  0.77241  0.23307  1.0000
  H   H598      1.0  0.43898  0.76503  0.07023  1.0000
  C   C517      1.0  0.33896  0.77892  0.99722  1.0000
  H   H599      1.0  0.41847  0.51090  0.32376  1.0000
  C   C518      1.0  0.27020  0.79599  0.20955  1.0000
  H   H600      1.0  0.36544  0.52334  0.99729  1.0000
  C   C519      1.0  0.37828  0.59273  0.06621  1.0000
  C   C520      1.0  0.42214  0.96385  0.31499  1.0000
  H   H601      1.0  0.44790  0.83105  0.26369  1.0000
  H   H602      1.0  0.40998  0.61454  0.02263  1.0000
  C   C521      1.0  0.46385  0.52990  0.30424  1.0000
  N   N33       1.0  0.43600  0.83622  0.30145  1.0000
  S   S141      1.0  0.48659  0.64370  0.22755  1.0000
  C   C522      1.0  0.41191  0.57669  0.09512  1.0000
  H   H603      1.0  0.41853  0.67419  0.00604  1.0000
  H   H604      1.0  0.40359  0.55861  0.14626  1.0000
  H   H605      1.0  0.40402  0.57496  0.16790  1.0000
  C   C523      1.0  0.26750  0.50094  0.01788  1.0000
  C   C524      1.0  0.44477  0.51220  0.38822  1.0000
  H   H606      1.0  0.44053  0.76191  0.01950  1.0000
  H   H607      1.0  0.32578  0.86387  0.43265  1.0000
  H   H608      1.0  0.36349  0.78837  0.02622  1.0000
  H   H609      1.0  0.47755  0.68069  0.06686  1.0000
  S   S142      1.0  0.47787  0.91802  0.42506  1.0000
  H   H610      1.0  0.30418  0.80583  0.24543  1.0000
  H   H611      1.0  0.38463  0.52150  0.29738  1.0000
  C   C525      1.0  0.39288  0.83541  0.29516  1.0000
  C   C526      1.0  0.34813  0.84997  0.43246  1.0000
  C   C527      1.0  0.47893  0.77205  0.06121  1.0000
  C   C528      1.0  0.29312  0.79846  0.23746  1.0000
  C   C529      1.0  0.25717  0.71620  0.18838  1.0000
  N   N34       1.0  0.41364  0.58198  0.12459  1.0000
  C   C530      1.0  0.41392  0.96671  0.37183  1.0000
  C   C531      1.0  0.42158  0.58064  0.04471  1.0000
  H   H612      1.0  0.35127  0.83899  0.42829  1.0000
  C   C532      1.0  0.39834  0.55825  0.05971  1.0000
  H   H613      1.0  0.37357  0.59181  0.08816  1.0000
  H   H614      1.0  0.38959  0.56966  0.14186  1.0000
  H   H615      1.0  0.42910  0.93091  0.35781  1.0000
  H   H616      1.0  0.38456  0.84058  0.30541  1.0000
  H   H617      1.0  0.47683  0.60774  0.31675  1.0000
  C   C533      1.0  0.26510  0.74408  0.05979  1.0000
  C   C534      1.0  0.35054  0.56209  0.00722  1.0000
  C   C535      1.0  0.43824  0.68840  0.04772  1.0000
  H   H618      1.0  0.34298  0.56946  0.01391  1.0000
  C   C536      1.0  0.36981  0.58215  0.04682  1.0000
  C   C537      1.0  0.43516  0.83188  0.33244  1.0000
  H   H619      1.0  0.42196  0.81677  0.25712  1.0000
  S   S143      1.0  0.32986  0.50461  0.13014  1.0000
  C   C538      1.0  0.25623  0.52699  0.17430  1.0000
  C   C539      1.0  0.44444  0.85362  0.29662  1.0000
  H   H620      1.0  0.42701  0.69031  0.04362  1.0000
  H   H621      1.0  0.27062  0.75970  0.23800  1.0000
  C   C540      1.0  0.26533  0.73060  0.17257  1.0000
  C   C541      1.0  0.40221  0.57074  0.14596  1.0000
  H   H622      1.0  0.46948  0.93960  0.38704  1.0000
  H   H623      1.0  0.46503  0.95601  0.31505  1.0000
  H   H624      1.0  0.32546  0.82220  0.44824  1.0000
  H   H625      1.0  0.44380  0.94693  0.31556  1.0000
  C   C542      1.0  0.45393  0.95193  0.32927  1.0000
  C   C543      1.0  0.46861  0.64591  0.00724  1.0000
  H   H626      1.0  0.43570  0.98906  0.31462  1.0000
  C   C544      1.0  0.47688  0.81192  0.04447  1.0000
  C   C545      1.0  0.46554  0.54321  0.28583  1.0000
  C   C546      1.0  0.44392  0.80148  0.03988  1.0000
  C   C547      1.0  0.46650  0.76622  0.01550  1.0000
  C   C548      1.0  0.45637  0.68523  0.08293  1.0000
  C   C549      1.0  0.40846  0.83901  0.30400  1.0000
  H   H627      1.0  0.41025  0.96778  0.39364  1.0000
  H   H628      1.0  0.45256  0.52030  0.30691  1.0000
  H   H629      1.0  0.43354  0.91865  0.32002  1.0000
  S   S144      1.0  0.48361  0.80495  0.18345  1.0000
  S   S145      1.0  0.47997  0.84207  0.23549  1.0000
  N   N35       1.0  0.24948  0.76939  0.20348  1.0000
  H   H630      1.0  0.46595  0.95829  0.38025  1.0000
  N   N36       1.0  0.36681  0.57227  0.99656  1.0000
  C   C550      1.0  0.36161  0.49948  0.22646  1.0000
  N   N37       1.0  0.33534  0.84736  0.45545  1.0000
  C   C551      1.0  0.38823  0.79558  0.01453  1.0000
  H   H631      1.0  0.34472  0.85416  0.41177  1.0000
  H   H632      1.0  0.45550  0.54395  0.27403  1.0000
  H   H633      1.0  0.47853  0.81340  0.99835  1.0000
  C   C552      1.0  0.32953  0.86147  0.45422  1.0000
  H   H634      1.0  0.40061  0.50481  0.30527  1.0000
  C   C553      1.0  0.37550  0.58314  0.01781  1.0000
  H   H635      1.0  0.25281  0.74625  0.20921  1.0000
  H   H636      1.0  0.47119  0.68123  0.01748  1.0000
  H   H637      1.0  0.26816  0.52295  0.07495  1.0000
  S   S146      1.0  0.35913  0.50366  0.18978  1.0000
  H   H638      1.0  0.27566  0.49713  0.00415  1.0000
  C   C554      1.0  0.47672  0.52892  0.31941  1.0000
  C   C555      1.0  0.35320  0.50400  0.24871  1.0000
  H   H639      1.0  0.34422  0.55415  0.99073  1.0000
  H   H640      1.0  0.45930  0.68467  0.10501  1.0000
  C   C556      1.0  0.48880  0.86576  0.27418  1.0000
  C   C557      1.0  0.48540  0.61655  0.30253  1.0000
  C   C558      1.0  0.43991  0.93517  0.37013  1.0000
  C   C559      1.0  0.24606  0.51038  0.05457  1.0000
  H   H641      1.0  0.25515  0.78186  0.16182  1.0000
  H   H642      1.0  0.49016  0.65942  0.02613  1.0000
  H   H643      1.0  0.49067  0.69215  0.18103  1.0000
  H   H644      1.0  0.47725  0.67581  0.21979  1.0000
  H   H645      1.0  0.32638  0.77448  0.99082  1.0000
  H   H646      1.0  0.43092  0.70338  0.00000  1.0000
  H   H647      1.0  0.34083  0.79120  0.00442  1.0000
  H   H648      1.0  0.48042  0.67065  0.25542  1.0000
  C   C560      1.0  0.49129  0.54132  0.31666  1.0000
  H   H649      1.0  0.27546  0.75456  0.06153  1.0000
  H   H650      1.0  0.47973  0.95302  0.35705  1.0000
  H   H651      1.0  0.37713  0.55385  0.00714  1.0000
  H   H652      1.0  0.25556  0.75508  0.02654  1.0000
  H   H653      1.0  0.24935  0.52120  0.10947  1.0000
  H   H654      1.0  0.48995  0.71426  0.14886  1.0000
  H   H655      1.0  0.48089  0.56555  0.26780  1.0000
  H   H656      1.0  0.41268  0.80225  0.99779  1.0000
  C   C561      1.0  0.24225  0.72616  0.14365  1.0000
  H   H657      1.0  0.46892  0.74047  0.99076  1.0000
  H   H658      1.0  0.33237  0.82281  0.99271  1.0000
  C   C562      1.0  0.25383  0.74434  0.04013  1.0000
  H   H659      1.0  0.24833  0.70672  0.09007  1.0000
  H   H660      1.0  0.44572  0.63094  0.99531  1.0000
  H   H661      1.0  0.41411  0.97508  0.45686  1.0000
  C   C563      1.0  0.24394  0.75239  0.21465  1.0000
  H   H662      1.0  0.30707  0.51328  0.99671  1.0000
  H   H663      1.0  0.46327  0.77211  0.09744  1.0000
  H   H664      1.0  0.31204  0.83062  0.46656  1.0000
  C   C564      1.0  0.42635  0.98348  0.45131  1.0000
  C   C565      1.0  0.42866  0.67294  0.99256  1.0000
  H   H665      1.0  0.31904  0.85984  0.46938  1.0000
  H   H666      1.0  0.49199  0.77210  0.02223  1.0000
  S   S147      1.0  0.44957  0.55760  0.68741  1.0000
  H   H667      1.0  0.46606  0.82745  0.78618  1.0000
  Fe  Fe77      1.0  0.46090  0.64719  0.93440  1.0000
  S   S148      1.0  0.43581  0.64732  0.94200  1.0000
  H   H668      1.0  0.41042  0.84627  0.71609  1.0000
  Fe  Fe78      1.0  0.45767  0.64421  0.86982  1.0000
  S   S149      1.0  0.43214  0.64451  0.87399  1.0000
  Fe  Fe79      1.0  0.44112  0.66453  0.90348  1.0000
  S   S150      1.0  0.43280  0.68665  0.90472  1.0000
  Fe  Fe80      1.0  0.42947  0.62745  0.91203  1.0000
  S   S151      1.0  0.40933  0.60458  0.92549  1.0000
  S   S152      1.0  0.46664  0.66540  0.89702  1.0000
  S   S153      1.0  0.45447  0.62605  0.90665  1.0000
  Fe  Fe81      1.0  0.46377  0.78284  0.89097  1.0000
  S   S154      1.0  0.47759  0.80503  0.91269  1.0000
  S   S155      1.0  0.47310  0.76126  0.89213  1.0000
  Fe  Fe82      1.0  0.43776  0.79727  0.87618  1.0000
  S   S156      1.0  0.44903  0.81944  0.89879  1.0000
  S   S157      1.0  0.41734  0.79818  0.84965  1.0000
  Fe  Fe83      1.0  0.47191  0.81934  0.87553  1.0000
  H   H669      1.0  0.42489  0.67243  0.97021  1.0000
  Fe  Fe84      1.0  0.45360  0.80332  0.93368  1.0000
  C   C566      1.0  0.28885  0.53247  0.94196  1.0000
  S   S158      1.0  0.46037  0.79732  0.85223  1.0000
  S   S159      1.0  0.44006  0.78097  0.91254  1.0000
  H   H670      1.0  0.35903  0.83707  0.55584  1.0000
  S   S160      1.0  0.33496  0.52581  0.81038  1.0000
  Fe  Fe85      1.0  0.32807  0.51577  0.89261  1.0000
  S   S161      1.0  0.32571  0.53809  0.87119  1.0000
  C   C567      1.0  0.46840  0.68973  0.78614  1.0000
  Fe  Fe86      1.0  0.31245  0.52202  0.83848  1.0000
  S   S162      1.0  0.29020  0.52794  0.82520  1.0000
  Fe  Fe87      1.0  0.34820  0.53972  0.84557  1.0000
  S   S163      1.0  0.36839  0.56260  0.83265  1.0000
  S   S164      1.0  0.35175  0.51856  0.86914  1.0000
  Fe  Fe88      1.0  0.32125  0.79478  0.83550  1.0000
  S   S165      1.0  0.31402  0.76770  0.83804  1.0000
  S   S166      1.0  0.33122  0.80612  0.79065  1.0000
  Fe  Fe89      1.0  0.31535  0.79504  0.90130  1.0000
  S   S167      1.0  0.30755  0.76836  0.90740  1.0000
  S   S168      1.0  0.32077  0.81065  0.93931  1.0000
  Fe  Fe90      1.0  0.32839  0.77035  0.87678  1.0000
  S   S169      1.0  0.34607  0.75795  0.88929  1.0000
  Fe  Fe91      1.0  0.29366  0.76812  0.86828  1.0000
  S   S170      1.0  0.26696  0.75403  0.86727  1.0000
  S   S171      1.0  0.33700  0.79706  0.87246  1.0000
  S   S172      1.0  0.30009  0.79519  0.86390  1.0000
  H   H671      1.0  0.49051  0.74838  0.80576  1.0000
  Fe  Fe92      1.0  0.36928  0.87951  0.66971  1.0000
  S   S173      1.0  0.38210  0.86503  0.64637  1.0000
  S   S174      1.0  0.34922  0.86897  0.70499  1.0000
  Fe  Fe93      1.0  0.39258  0.91158  0.64201  1.0000
  S   S175      1.0  0.40723  0.89886  0.61843  1.0000
  S   S176      1.0  0.39948  0.93852  0.63037  1.0000
  Fe  Fe94      1.0  0.38382  0.88159  0.60729  1.0000
  S   S177      1.0  0.38353  0.87148  0.56291  1.0000
  Fe  Fe95      1.0  0.40415  0.88360  0.65884  1.0000
  S   S178      1.0  0.42328  0.87521  0.67756  1.0000
  S   S179      1.0  0.36894  0.89475  0.62947  1.0000
  S   S180      1.0  0.39156  0.89764  0.68372  1.0000
  C   C568      1.0  0.41245  0.95524  0.64643  1.0000
  H   H672      1.0  0.41046  0.97183  0.61295  1.0000
  C   C569      1.0  0.38078  0.87888  0.52816  1.0000
  C   C570      1.0  0.38581  0.87231  0.50411  1.0000
  H   H673      1.0  0.29621  0.78710  0.79519  1.0000
  H   H674      1.0  0.33485  0.75701  0.95885  1.0000
  H   H675      1.0  0.44775  0.52273  0.74890  1.0000
  C   C571      1.0  0.37269  0.89007  0.52387  1.0000
  H   H676      1.0  0.39192  0.86352  0.50708  1.0000
  C   C572      1.0  0.41938  0.95375  0.67215  1.0000
  C   C573      1.0  0.42928  0.88692  0.53910  1.0000
  H   H677      1.0  0.36861  0.89514  0.54206  1.0000
  C   C574      1.0  0.46337  0.91668  0.70737  1.0000
  C   C575      1.0  0.44954  0.91936  0.69802  1.0000
  C   C576      1.0  0.43694  0.90656  0.68942  1.0000
  C   C577      1.0  0.43800  0.89104  0.69107  1.0000
  C   C578      1.0  0.45130  0.88822  0.70242  1.0000
  C   C579      1.0  0.46393  0.90103  0.71074  1.0000
  H   H678      1.0  0.44877  0.93136  0.69632  1.0000
  H   H679      1.0  0.42664  0.90880  0.68084  1.0000
  H   H680      1.0  0.45214  0.87625  0.70377  1.0000
  H   H681      1.0  0.47425  0.89884  0.71934  1.0000
  C   C580      1.0  0.33584  0.82372  0.76715  1.0000
  C   C581      1.0  0.34504  0.82448  0.74155  1.0000
  C   C582      1.0  0.34955  0.83828  0.72265  1.0000
  C   C583      1.0  0.34460  0.85148  0.72872  1.0000
  C   C584      1.0  0.33525  0.85064  0.75418  1.0000
  C   C585      1.0  0.33104  0.83697  0.77340  1.0000
  H   H682      1.0  0.34883  0.81433  0.73632  1.0000
  H   H683      1.0  0.35661  0.83862  0.70312  1.0000
  H   H684      1.0  0.33127  0.86071  0.75909  1.0000
  H   H685      1.0  0.32397  0.83668  0.79288  1.0000
  C   C586      1.0  0.36933  0.89426  0.49605  1.0000
  H   H686      1.0  0.43582  0.94509  0.60078  1.0000
  H   H687      1.0  0.37306  0.50067  0.59956  1.0000
  C   C587      1.0  0.28099  0.53872  0.89603  1.0000
  H   H688      1.0  0.47940  0.88838  0.61367  1.0000
  C   C588      1.0  0.26958  0.51658  0.83002  1.0000
  C   C589      1.0  0.25812  0.52454  0.82709  1.0000
  H   H689      1.0  0.34611  0.85795  0.55093  1.0000
  H   H690      1.0  0.29382  0.51482  0.90137  1.0000
  H   H691      1.0  0.35203  0.51909  0.95156  1.0000
  H   H692      1.0  0.26203  0.53724  0.82125  1.0000
  H   H693      1.0  0.28753  0.54365  0.95015  1.0000
  C   C590      1.0  0.26432  0.50014  0.83738  1.0000
  H   H694      1.0  0.48014  0.69755  0.77659  1.0000
  C   C591      1.0  0.38275  0.51886  0.80294  1.0000
  C   C592      1.0  0.39772  0.78678  0.86125  1.0000
  C   C593      1.0  0.38503  0.78942  0.84720  1.0000
  C   C594      1.0  0.36917  0.78063  0.85576  1.0000
  C   C595      1.0  0.36592  0.76889  0.87811  1.0000
  C   C596      1.0  0.37863  0.76598  0.89182  1.0000
  C   C597      1.0  0.39452  0.77508  0.88369  1.0000
  H   H695      1.0  0.38751  0.79820  0.82950  1.0000
  H   H696      1.0  0.35946  0.78261  0.84456  1.0000
  H   H697      1.0  0.37618  0.75679  0.90892  1.0000
  H   H698      1.0  0.40428  0.77288  0.89444  1.0000
  C   C598      1.0  0.39745  0.59326  0.89980  1.0000
  C   C599      1.0  0.38876  0.57712  0.90665  1.0000
  C   C600      1.0  0.37931  0.56773  0.88657  1.0000
  C   C601      1.0  0.37866  0.57441  0.85936  1.0000
  C   C602      1.0  0.38722  0.59059  0.85259  1.0000
  C   C603      1.0  0.39650  0.60003  0.87282  1.0000
  H   H699      1.0  0.38957  0.57175  0.92732  1.0000
  H   H700      1.0  0.37286  0.55523  0.89187  1.0000
  H   H701      1.0  0.38661  0.59585  0.83165  1.0000
  H   H702      1.0  0.40281  0.61256  0.86759  1.0000
  C   C604      1.0  0.44434  0.70731  0.90212  1.0000
  C   C605      1.0  0.46106  0.71248  0.89947  1.0000
  C   C606      1.0  0.46966  0.72901  0.89671  1.0000
  C   C607      1.0  0.46169  0.74058  0.89670  1.0000
  C   C608      1.0  0.44499  0.73540  0.90011  1.0000
  C   C609      1.0  0.43640  0.71888  0.90275  1.0000
  H   H703      1.0  0.46738  0.70378  0.89921  1.0000
  H   H704      1.0  0.36077  0.82059  0.51534  1.0000
  H   H705      1.0  0.43864  0.74410  0.90009  1.0000
  H   H706      1.0  0.42347  0.71505  0.90483  1.0000
  H   H707      1.0  0.36656  0.52167  0.75716  1.0000
  H   H708      1.0  0.26614  0.78284  0.83503  1.0000
  H   H709      1.0  0.37779  0.50854  0.74991  1.0000
  H   H710      1.0  0.43263  0.89019  0.49343  1.0000
  S   S181      1.0  0.49203  0.56957  0.71554  1.0000
  H   H711      1.0  0.44300  0.53121  0.53070  1.0000
  C   C610      1.0  0.44761  0.53728  0.68667  1.0000
  C   C611      1.0  0.46121  0.53233  0.68635  1.0000
  C   C612      1.0  0.45967  0.51610  0.68485  1.0000
  C   C613      1.0  0.44456  0.50484  0.68350  1.0000
  C   C614      1.0  0.43094  0.50972  0.68488  1.0000
  C   C615      1.0  0.43246  0.52597  0.68622  1.0000
  H   H712      1.0  0.47295  0.54097  0.68700  1.0000
  H   H713      1.0  0.47022  0.51234  0.68429  1.0000
  Fe  Fe96      1.0  0.47559  0.57140  0.68206  1.0000
  H   H714      1.0  0.42191  0.52974  0.68703  1.0000
  H   H715      1.0  0.43800  0.70212  0.96451  1.0000
  H   H716      1.0  0.49121  0.57008  0.51176  1.0000
  S   S182      1.0  0.48064  0.93284  0.71124  1.0000
  H   H717      1.0  0.48857  0.62735  0.84083  1.0000
  H   H718      1.0  0.46650  0.75426  0.82453  1.0000
  H   H719      1.0  0.35401  0.78751  0.92883  1.0000
  H   H720      1.0  0.30152  0.53551  0.93350  1.0000
  C   C616      1.0  0.24833  0.51518  0.91080  1.0000
  H   H721      1.0  0.48204  0.62132  0.73713  1.0000
  H   H722      1.0  0.34474  0.49909  0.61672  1.0000
  H   H723      1.0  0.46998  0.94592  0.66251  1.0000
  S   S183      1.0  0.31830  0.51221  0.93916  1.0000
  H   H724      1.0  0.46212  0.90075  0.49347  1.0000
  H   H725      1.0  0.47235  0.58205  0.55679  1.0000
  C   C617      1.0  0.26356  0.72333  0.84933  1.0000
  H   H726      1.0  0.49050  0.78410  0.97904  1.0000
  H   H727      1.0  0.37658  0.58815  0.95898  1.0000
  H   H728      1.0  0.49078  0.69782  0.82356  1.0000
  H   H729      1.0  0.24316  0.66099  0.82542  1.0000
  H   H730      1.0  0.26407  0.64059  0.84326  1.0000
  H   H731      1.0  0.44445  0.74841  0.97944  1.0000
  C   C618      1.0  0.42608  0.98422  0.64446  1.0000
  H   H732      1.0  0.46834  0.67713  0.78416  1.0000
  H   H733      1.0  0.27423  0.78366  0.74480  1.0000
  H   H734      1.0  0.43620  0.82865  0.82208  1.0000
  C   C619      1.0  0.41585  0.97055  0.63273  1.0000
  H   H735      1.0  0.44821  0.55561  0.50366  1.0000
  C   C620      1.0  0.46340  0.55217  0.58433  1.0000
  C   C621      1.0  0.47640  0.63243  0.80478  1.0000
  H   H736      1.0  0.43882  0.84936  0.81315  1.0000
  H   H737      1.0  0.40550  0.79504  0.94894  1.0000
  C   C622      1.0  0.47874  0.69067  0.83283  1.0000
  H   H738      1.0  0.26372  0.52950  0.97338  1.0000
  S   S184      1.0  0.31392  0.49947  0.86060  1.0000
  C   C623      1.0  0.43843  0.89137  0.51344  1.0000
  C   C624      1.0  0.45503  0.89732  0.51355  1.0000
  C   C625      1.0  0.34516  0.51900  0.97121  1.0000
  H   H739      1.0  0.45343  0.57639  0.54080  1.0000
  C   C626      1.0  0.25431  0.70773  0.84303  1.0000
  N   N38       1.0  0.35060  0.77897  0.97338  1.0000
  H   H740      1.0  0.35902  0.59063  0.97613  1.0000
  C   C627      1.0  0.25618  0.73373  0.86113  1.0000
  H   H741      1.0  0.45921  0.54391  0.62859  1.0000
  H   H742      1.0  0.46121  0.85108  0.74356  1.0000
  H   H743      1.0  0.41990  0.97334  0.50320  1.0000
  H   H744      1.0  0.44812  0.93097  0.63474  1.0000
  C   C628      1.0  0.34745  0.78855  0.94895  1.0000
  H   H745      1.0  0.47033  0.85474  0.77667  1.0000
  C   C629      1.0  0.45051  0.68088  0.82759  1.0000
  C   C630      1.0  0.46109  0.55659  0.50396  1.0000
  H   H746      1.0  0.49014  0.72076  0.80115  1.0000
  N   N39       1.0  0.43423  0.59113  0.82678  1.0000
  C   C631      1.0  0.43006  0.60610  0.82891  1.0000
  C   C632      1.0  0.42059  0.57746  0.83903  1.0000
  C   C633      1.0  0.44796  0.59240  0.84472  1.0000
  C   C634      1.0  0.43756  0.58881  0.79644  1.0000
  C   C635      1.0  0.45263  0.58818  0.78551  1.0000
  C   C636      1.0  0.42561  0.58757  0.77661  1.0000
  C   C637      1.0  0.45545  0.58648  0.75653  1.0000
  C   C638      1.0  0.42862  0.58600  0.74765  1.0000
  C   C639      1.0  0.44353  0.58549  0.73765  1.0000
  H   H747      1.0  0.41847  0.60530  0.81974  1.0000
  H   H748      1.0  0.42908  0.60925  0.85142  1.0000
  H   H749      1.0  0.43934  0.61636  0.81733  1.0000
  H   H750      1.0  0.40936  0.57634  0.82826  1.0000
  H   H751      1.0  0.41783  0.57880  0.86196  1.0000
  H   H752      1.0  0.42316  0.56595  0.83737  1.0000
  H   H753      1.0  0.45839  0.60300  0.83762  1.0000
  H   H754      1.0  0.44499  0.59399  0.86743  1.0000
  H   H755      1.0  0.45169  0.58146  0.84444  1.0000
  H   H756      1.0  0.46262  0.58938  0.79865  1.0000
  H   H757      1.0  0.41392  0.58813  0.78330  1.0000
  H   H758      1.0  0.46712  0.58631  0.74848  1.0000
  H   H759      1.0  0.41944  0.58532  0.73273  1.0000
  H   H760      1.0  0.44592  0.58449  0.71512  1.0000
  H   H761      1.0  0.45475  0.86279  0.76944  1.0000
  H   H762      1.0  0.39657  0.55042  0.79633  1.0000
  H   H763      1.0  0.48520  0.50714  0.63951  1.0000
  C   C640      1.0  0.44700  0.53460  0.55154  1.0000
  H   H764      1.0  0.24804  0.64672  0.80426  1.0000
  H   H765      1.0  0.47174  0.58585  0.51962  1.0000
  H   H766      1.0  0.28802  0.76925  0.77698  1.0000
  H   H767      1.0  0.28734  0.52339  0.95995  1.0000
  C   C641      1.0  0.44400  0.52709  0.60212  1.0000
  C   C642      1.0  0.42932  0.96748  0.68423  1.0000
  N   N40       1.0  0.48253  0.97844  0.66552  1.0000
  C   C643      1.0  0.44422  0.83966  0.81035  1.0000
  C   C644      1.0  0.40778  0.51171  0.76593  1.0000
  C   C645      1.0  0.45868  0.85210  0.76667  1.0000
  C   C646      1.0  0.36751  0.78552  0.98055  1.0000
  H   H768      1.0  0.44018  0.68139  0.81533  1.0000
  H   H769      1.0  0.28472  0.80098  0.76316  1.0000
  C   C647      1.0  0.47468  0.63060  0.77542  1.0000
  C   C648      1.0  0.48340  0.62246  0.75975  1.0000
  C   C649      1.0  0.45585  0.54129  0.60702  1.0000
  C   C650      1.0  0.25516  0.64306  0.85832  1.0000
  H   H770      1.0  0.38116  0.50589  0.80192  1.0000
  N   N41       1.0  0.38953  0.52807  0.77570  1.0000
  C   C651      1.0  0.38927  0.54471  0.77869  1.0000
  C   C652      1.0  0.37894  0.52128  0.75267  1.0000
  H   H771      1.0  0.37067  0.51964  0.80893  1.0000
  C   C653      1.0  0.40567  0.52690  0.76897  1.0000
  N   N42       1.0  0.44680  0.83723  0.77977  1.0000
  C   C654      1.0  0.41957  0.54054  0.76472  1.0000
  C   C655      1.0  0.45398  0.82415  0.77755  1.0000
  C   C656      1.0  0.43456  0.53896  0.75784  1.0000
  H   H772      1.0  0.45741  0.89290  0.63869  1.0000
  H   H773      1.0  0.39355  0.55223  0.75857  1.0000
  H   H774      1.0  0.37691  0.54501  0.78397  1.0000
  C   C657      1.0  0.42169  0.98539  0.54135  1.0000
  H   H775      1.0  0.38363  0.52787  0.73180  1.0000
  H   H776      1.0  0.37750  0.78453  0.93767  1.0000
  H   H777      1.0  0.47635  0.74976  0.95587  1.0000
  C   C658      1.0  0.46509  0.95260  0.64779  1.0000
  H   H778      1.0  0.41917  0.55258  0.76599  1.0000
  H   H779      1.0  0.44493  0.54951  0.75353  1.0000
  C   C659      1.0  0.34735  0.76223  0.96528  1.0000
  C   C660      1.0  0.45915  0.54923  0.55586  1.0000
  H   H780      1.0  0.45567  0.84295  0.82133  1.0000
  H   H781      1.0  0.27411  0.50715  0.89046  1.0000
  C   C661      1.0  0.34644  0.85055  0.53320  1.0000
  H   H782      1.0  0.25846  0.79503  0.81204  1.0000
  C   C662      1.0  0.43130  0.83289  0.76616  1.0000
  C   C663      1.0  0.42762  0.84298  0.74494  1.0000
  C   C664      1.0  0.41924  0.81816  0.77415  1.0000
  C   C665      1.0  0.41295  0.83837  0.73227  1.0000
  C   C666      1.0  0.40475  0.81352  0.76092  1.0000
  C   C667      1.0  0.40156  0.82366  0.74013  1.0000
  H   H783      1.0  0.45523  0.82120  0.75499  1.0000
  H   H784      1.0  0.44688  0.81301  0.79009  1.0000
  H   H785      1.0  0.43583  0.85452  0.73759  1.0000
  H   H786      1.0  0.42096  0.81002  0.79062  1.0000
  H   H787      1.0  0.27860  0.54968  0.90306  1.0000
  H   H788      1.0  0.39591  0.80202  0.76697  1.0000
  H   H789      1.0  0.39026  0.82014  0.73004  1.0000
  N   N43       1.0  0.37808  0.83713  0.81901  1.0000
  C   C668      1.0  0.37205  0.82169  0.80547  1.0000
  C   C669      1.0  0.38732  0.83456  0.84339  1.0000
  C   C670      1.0  0.36418  0.84147  0.83074  1.0000
  C   C671      1.0  0.38752  0.84966  0.79740  1.0000
  C   C672      1.0  0.38006  0.85403  0.77369  1.0000
  C   C673      1.0  0.40417  0.85771  0.79886  1.0000
  C   C674      1.0  0.38862  0.86560  0.75270  1.0000
  C   C675      1.0  0.41263  0.86940  0.77781  1.0000
  C   C676      1.0  0.40488  0.87327  0.75473  1.0000
  H   H790      1.0  0.36494  0.82249  0.78696  1.0000
  H   H791      1.0  0.38202  0.81762  0.79753  1.0000
  H   H792      1.0  0.36410  0.81208  0.82052  1.0000
  H   H793      1.0  0.39748  0.83036  0.83639  1.0000
  H   H794      1.0  0.37979  0.82510  0.85918  1.0000
  H   H795      1.0  0.39198  0.84566  0.85501  1.0000
  H   H796      1.0  0.35534  0.84135  0.81456  1.0000
  H   H797      1.0  0.35737  0.83283  0.84833  1.0000
  H   H798      1.0  0.36806  0.85362  0.83913  1.0000
  H   H799      1.0  0.36747  0.84852  0.77115  1.0000
  H   H800      1.0  0.41089  0.85526  0.81607  1.0000
  H   H801      1.0  0.38255  0.86868  0.73478  1.0000
  H   H802      1.0  0.42529  0.87552  0.77924  1.0000
  H   H803      1.0  0.41147  0.88224  0.73832  1.0000
  N   N44       1.0  0.27071  0.78061  0.79042  1.0000
  C   C677      1.0  0.28547  0.77631  0.79454  1.0000
  C   C678      1.0  0.27339  0.79074  0.76350  1.0000
  C   C679      1.0  0.26858  0.79022  0.81448  1.0000
  C   C680      1.0  0.25619  0.76653  0.78929  1.0000
  H   H804      1.0  0.33542  0.86323  0.50651  1.0000
  H   H805      1.0  0.26705  0.74757  0.79773  1.0000
  H   H806      1.0  0.43825  0.51867  0.61986  1.0000
  H   H807      1.0  0.48288  0.89154  0.57622  1.0000
  C   C681      1.0  0.30157  0.78950  0.98176  1.0000
  C   C682      1.0  0.44102  0.70156  0.98723  1.0000
  N   N45       1.0  0.27755  0.52618  0.91960  1.0000
  C   C683      1.0  0.43619  0.52387  0.75513  1.0000
  H   H808      1.0  0.41921  0.50097  0.68542  1.0000
  H   H809      1.0  0.46663  0.63562  0.76458  1.0000
  C   C684      1.0  0.49001  0.49770  0.64602  1.0000
  N   N46       1.0  0.46180  0.89661  0.59295  1.0000
  C   C685      1.0  0.42280  0.98504  0.51163  1.0000
  C   C686      1.0  0.26049  0.52184  0.92961  1.0000
  H   H810      1.0  0.47859  0.67796  0.83360  1.0000
  H   H811      1.0  0.35064  0.80146  0.95340  1.0000
  H   H812      1.0  0.27635  0.72741  0.84457  1.0000
  C   C687      1.0  0.38005  0.78758  0.95931  1.0000
  H   H813      1.0  0.46754  0.69376  0.97498  1.0000
  H   H814      1.0  0.41686  0.94206  0.68295  1.0000
  H   H815      1.0  0.39053  0.52331  0.82073  1.0000
  H   H816      1.0  0.47678  0.91593  0.61573  1.0000
  H   H817      1.0  0.46646  0.99013  0.62343  1.0000
  C   C688      1.0  0.34041  0.85352  0.50730  1.0000
  C   C689      1.0  0.39612  0.79354  0.96554  1.0000
  C   C690      1.0  0.48693  0.62589  0.81836  1.0000
  H   H818      1.0  0.26014  0.69993  0.83343  1.0000
  C   C691      1.0  0.47320  0.88730  0.59337  1.0000
  N   N47       1.0  0.46750  0.56091  0.53222  1.0000
  H   H819      1.0  0.45108  0.66848  0.82627  1.0000
  C   C692      1.0  0.45276  0.76006  0.97047  1.0000
  C   C693      1.0  0.47851  0.77982  0.97031  1.0000
  H   H820      1.0  0.45897  0.69164  0.77281  1.0000
  C   C694      1.0  0.44583  0.95183  0.61248  1.0000
  S   S185      1.0  0.46568  0.64362  0.82296  1.0000
  S   S186      1.0  0.47671  0.65206  0.97191  1.0000
  C   C695      1.0  0.46616  0.57694  0.53764  1.0000
  C   C696      1.0  0.42283  0.51027  0.75907  1.0000
  C   C697      1.0  0.45588  0.68414  0.97435  1.0000
  H   H821      1.0  0.27849  0.50212  0.92585  1.0000
  C   C698      1.0  0.43277  0.98277  0.67043  1.0000
  C   C699      1.0  0.32864  0.51598  0.97090  1.0000
  C   C700      1.0  0.25539  0.52457  0.95749  1.0000
  H   H822      1.0  0.45784  0.67237  0.97810  1.0000
  H   H823      1.0  0.47771  0.69410  0.85513  1.0000
  H   H824      1.0  0.36274  0.90263  0.49316  1.0000
  C   C701      1.0  0.47966  0.73861  0.81169  1.0000
  H   H825      1.0  0.44229  0.89826  0.62081  1.0000
  C   C702      1.0  0.43663  0.88839  0.56502  1.0000
  C   C703      1.0  0.46545  0.70971  0.81789  1.0000
  H   H826      1.0  0.43038  0.51261  0.57074  1.0000
  H   H827      1.0  0.48615  0.55014  0.52783  1.0000
  H   H828      1.0  0.47266  0.56292  0.58932  1.0000
  S   S187      1.0  0.48397  0.59809  0.67862  1.0000
  H   H829      1.0  0.44380  0.87834  0.61906  1.0000
  H   H830      1.0  0.44066  0.70459  0.83534  1.0000
  H   H831      1.0  0.27943  0.80069  0.81663  1.0000
  C   C704      1.0  0.45175  0.71358  0.82800  1.0000
  H   H832      1.0  0.44566  0.97461  0.59483  1.0000
  C   C705      1.0  0.46612  0.74197  0.82204  1.0000
  H   H833      1.0  0.29364  0.54215  0.88737  1.0000
  C   C706      1.0  0.31450  0.80338  0.97515  1.0000
  C   C707      1.0  0.35379  0.83877  0.53601  1.0000
  H   H834      1.0  0.46278  0.92127  0.59371  1.0000
  C   C708      1.0  0.45215  0.72950  0.82980  1.0000
  H   H835      1.0  0.29525  0.78282  0.96478  1.0000
  H   H836      1.0  0.45449  0.75892  0.94717  1.0000
  H   H837      1.0  0.39775  0.50078  0.76836  1.0000
  C   C709      1.0  0.47081  0.91377  0.59521  1.0000
  C   C710      1.0  0.47054  0.96958  0.64604  1.0000
  C   C711      1.0  0.36497  0.58162  0.97064  1.0000
  C   C712      1.0  0.45273  0.94390  0.63165  1.0000
  C   C713      1.0  0.45080  0.89128  0.61883  1.0000
  H   H838      1.0  0.44169  0.73220  0.83814  1.0000
  H   H839      1.0  0.48056  0.77868  0.94709  1.0000
  H   H840      1.0  0.46455  0.97830  0.69796  1.0000
  H   H841      1.0  0.48052  0.91834  0.57818  1.0000
  N   N48       1.0  0.46564  0.69302  0.81623  1.0000
  H   H842      1.0  0.44680  0.76944  0.97254  1.0000
  H   H843      1.0  0.48257  0.73286  0.89410  1.0000
  H   H844      1.0  0.26369  0.79606  0.76021  1.0000
  H   H845      1.0  0.42874  0.88463  0.58397  1.0000
  H   H846      1.0  0.25922  0.65615  0.86160  1.0000
  C   C714      1.0  0.46251  0.89889  0.53936  1.0000
  H   H847      1.0  0.25126  0.51287  0.88928  1.0000
  H   H848      1.0  0.33459  0.78453  0.94423  1.0000
  H   H849      1.0  0.28455  0.76930  0.81511  1.0000
  H   H850      1.0  0.27361  0.53468  0.87766  1.0000
  H   H851      1.0  0.37010  0.55337  0.97188  1.0000
  H   H852      1.0  0.35773  0.57379  0.95490  1.0000
  H   H853      1.0  0.41634  0.88232  0.53893  1.0000
  H   H854      1.0  0.46264  0.54517  0.49734  1.0000
  H   H855      1.0  0.47540  0.90357  0.53832  1.0000
  C   C715      1.0  0.43960  0.52374  0.57444  1.0000
  C   C716      1.0  0.35487  0.82963  0.51308  1.0000
  C   C717      1.0  0.47934  0.72274  0.80936  1.0000
  C   C718      1.0  0.45134  0.96848  0.60929  1.0000
  H   H856      1.0  0.43427  0.96619  0.70445  1.0000
  C   C719      1.0  0.45355  0.89451  0.56594  1.0000
  H   H857      1.0  0.46697  0.87438  0.59081  1.0000
  S   S188      1.0  0.48597  0.84413  0.85378  1.0000
  H   H858      1.0  0.44790  0.68243  0.85044  1.0000
  C   C720      1.0  0.25634  0.75049  0.79335  1.0000
  H   H859      1.0  0.45214  0.68443  0.95211  1.0000
  C   C721      1.0  0.28105  0.51195  0.90894  1.0000
  C   C722      1.0  0.47574  0.75195  0.97902  1.0000
  H   H860      1.0  0.48414  0.98126  0.71075  1.0000
  H   H861      1.0  0.41806  0.97429  0.55455  1.0000
  H   H862      1.0  0.34927  0.75450  0.98315  1.0000
  Fe  Fe97      1.0  0.33748  0.50435  0.83470  1.0000
  S   S189      1.0  0.44517  0.80216  0.98104  1.0000
  H   H863      1.0  0.47225  0.96184  0.70176  1.0000
  H   H864      1.0  0.35522  0.76135  0.94678  1.0000
  C   C723      1.0  0.46338  0.97730  0.62598  1.0000
  C   C724      1.0  0.47560  0.97481  0.69526  1.0000
  H   H865      1.0  0.25558  0.63691  0.87924  1.0000
  H   H866      1.0  0.42408  0.49858  0.75603  1.0000
  S   S190      1.0  0.49168  0.56826  0.64636  1.0000
  H   H867      1.0  0.38829  0.56830  0.97953  1.0000
  H   H868      1.0  0.47291  0.78941  0.97275  1.0000
  H   H869      1.0  0.49082  0.56707  0.54955  1.0000
  N   N49       1.0  0.46820  0.76450  0.98445  1.0000
  C   C725      1.0  0.48464  0.56209  0.53030  1.0000
  H   H870      1.0  0.24263  0.72541  0.79693  1.0000
  C   C726      1.0  0.24230  0.73753  0.79302  1.0000
  H   H871      1.0  0.32746  0.49555  0.52457  1.0000
  H   H872      1.0  0.48826  0.75536  0.98557  1.0000
  C   C727      1.0  0.37602  0.56152  0.98840  1.0000
  Fe  Fe98      1.0  0.57438  0.47190  0.40178  1.0000
  S   S191      1.0  0.55602  0.44867  0.41604  1.0000
  S   S192      1.0  0.59856  0.47350  0.41615  1.0000
  H   H873      1.0  0.73545  0.24683  0.14654  1.0000
  H   H874      1.0  0.51324  0.04562  0.41480  1.0000
  Fe  Fe99      1.0  0.52711  0.31786  0.18986  1.0000
  S   S193      1.0  0.54476  0.30636  0.20626  1.0000
  S   S194      1.0  0.52026  0.33688  0.21488  1.0000
  Fe  Fe100     1.0  0.52754  0.30338  0.13072  1.0000
  S   S195      1.0  0.54533  0.29132  0.14344  1.0000
  S   S196      1.0  0.51654  0.29572  0.08855  1.0000
  Fe  Fe101     1.0  0.53072  0.28437  0.18467  1.0000
  S   S197      1.0  0.52308  0.25904  0.20533  1.0000
  Fe  Fe102     1.0  0.55782  0.31428  0.16352  1.0000
  S   S198      1.0  0.58474  0.32446  0.15679  1.0000
  S   S199      1.0  0.51196  0.29521  0.17140  1.0000
  S   S200      1.0  0.54119  0.32700  0.14765  1.0000
  Fe  Fe103     1.0  0.52264  0.15110  0.11214  1.0000
  S   S201      1.0  0.54679  0.16708  0.12215  1.0000
  S   S202      1.0  0.51198  0.15273  0.06879  1.0000
  Fe  Fe104     1.0  0.51466  0.13788  0.17608  1.0000
  S   S203      1.0  0.53818  0.15403  0.18967  1.0000
  H   H875      1.0  0.73980  0.30061  0.12147  1.0000
  Fe  Fe105     1.0  0.53425  0.17344  0.16045  1.0000
  S   S204      1.0  0.54425  0.20070  0.16181  1.0000
  Fe  Fe106     1.0  0.54856  0.14665  0.15039  1.0000
  S   S205      1.0  0.56895  0.13657  0.15482  1.0000
  S   S206      1.0  0.50976  0.15792  0.14962  1.0000
  S   S207      1.0  0.52540  0.12995  0.13732  1.0000
  Fe  Fe107     1.0  0.67820  0.16083  0.13819  1.0000
  S   S208      1.0  0.67816  0.18611  0.13492  1.0000
  S   S209      1.0  0.67809  0.14493  0.10123  1.0000
  Fe  Fe108     1.0  0.67522  0.15899  0.20421  1.0000
  S   S210      1.0  0.67537  0.18470  0.20495  1.0000
  S   S211      1.0  0.67352  0.14270  0.24501  1.0000
  Fe  Fe109     1.0  0.65862  0.17832  0.16957  1.0000
  S   S212      1.0  0.63727  0.18695  0.16512  1.0000
  Fe  Fe110     1.0  0.69526  0.19063  0.17028  1.0000
  S   S213      1.0  0.71448  0.21529  0.16167  1.0000
  S   S214      1.0  0.65735  0.15254  0.17058  1.0000
  S   S215      1.0  0.69644  0.16532  0.17167  1.0000
  Fe  Fe111     1.0  0.65008  0.44461  0.19792  1.0000
  S   S216      1.0  0.65918  0.42575  0.21838  1.0000
  S   S217      1.0  0.64247  0.46484  0.21742  1.0000
  Fe  Fe112     1.0  0.64698  0.42885  0.13975  1.0000
  S   S218      1.0  0.65506  0.40879  0.15692  1.0000
  S   S219      1.0  0.63652  0.42617  0.09613  1.0000
  Fe  Fe113     1.0  0.63953  0.40823  0.19610  1.0000
  S   S220      1.0  0.61974  0.38757  0.21847  1.0000
  Fe  Fe114     1.0  0.67430  0.42802  0.17704  1.0000
  S   S221      1.0  0.69898  0.42615  0.16340  1.0000
  S   S222      1.0  0.63000  0.42689  0.17758  1.0000
  S   S223      1.0  0.66659  0.44823  0.15794  1.0000
  Fe  Fe115     1.0  0.62062  0.07722  0.37377  1.0000
  S   S224      1.0  0.60751  0.09287  0.39238  1.0000
  S   S225      1.0  0.64475  0.09011  0.34936  1.0000
  Fe  Fe116     1.0  0.59472  0.04598  0.39879  1.0000
  S   S226      1.0  0.58022  0.06044  0.41719  1.0000
  Fe  Fe117     1.0  0.58616  0.07500  0.37594  1.0000
  S   S227      1.0  0.56813  0.08323  0.35300  1.0000
  Fe  Fe118     1.0  0.60304  0.07661  0.43233  1.0000
  H   H876      1.0  0.72783  0.42790  0.03940  1.0000
  S   S228      1.0  0.59918  0.05970  0.35578  1.0000
  S   S229      1.0  0.61771  0.06190  0.41532  1.0000
  C   C728      1.0  0.64013  0.13214  0.36946  1.0000
  C   C729      1.0  0.55284  0.06689  0.34204  1.0000
  C   C730      1.0  0.55426  0.05150  0.34345  1.0000
  C   C731      1.0  0.54132  0.03829  0.33730  1.0000
  C   C732      1.0  0.52690  0.04047  0.33009  1.0000
  C   C733      1.0  0.52583  0.05595  0.32699  1.0000
  C   C734      1.0  0.53875  0.06913  0.33316  1.0000
  H   H877      1.0  0.56514  0.04968  0.35012  1.0000
  H   H878      1.0  0.54222  0.02634  0.33953  1.0000
  H   H879      1.0  0.51486  0.05771  0.32057  1.0000
  H   H880      1.0  0.53755  0.08097  0.33228  1.0000
  H   H881      1.0  0.70134  0.41201  0.10857  1.0000
  H   H882      1.0  0.49698  0.45329  0.34743  1.0000
  C   C735      1.0  0.64566  0.43500  0.06255  1.0000
  C   C736      1.0  0.63913  0.42795  0.03776  1.0000
  H   H883      1.0  0.53663  0.06722  0.42265  1.0000
  C   C737      1.0  0.66480  0.45622  0.03265  1.0000
  C   C738      1.0  0.65862  0.44912  0.05990  1.0000
  H   H884      1.0  0.62907  0.41706  0.03951  1.0000
  H   H885      1.0  0.51152  0.28241  0.03379  1.0000
  H   H886      1.0  0.66359  0.45482  0.07877  1.0000
  C   C739      1.0  0.55072  0.07378  0.45799  1.0000
  C   C740      1.0  0.72280  0.43982  0.20068  1.0000
  C   C741      1.0  0.71874  0.43180  0.17572  1.0000
  S   S230      1.0  0.58219  0.02016  0.41640  1.0000
  H   H887      1.0  0.56934  0.44127  0.46825  1.0000
  H   H888      1.0  0.71373  0.44278  0.21339  1.0000
  C   C742      1.0  0.64401  0.11745  0.47072  1.0000
  C   C743      1.0  0.66407  0.12860  0.27430  1.0000
  C   C744      1.0  0.64743  0.12088  0.27843  1.0000
  C   C745      1.0  0.64103  0.10932  0.30161  1.0000
  C   C746      1.0  0.65123  0.10532  0.32076  1.0000
  C   C747      1.0  0.66769  0.11335  0.31674  1.0000
  C   C748      1.0  0.67398  0.12482  0.29400  1.0000
  H   H889      1.0  0.63951  0.12372  0.26372  1.0000
  H   H890      1.0  0.62829  0.10330  0.30433  1.0000
  H   H891      1.0  0.67576  0.11049  0.33113  1.0000
  H   H892      1.0  0.68677  0.13063  0.29137  1.0000
  C   C749      1.0  0.67904  0.14697  0.06324  1.0000
  C   C750      1.0  0.68128  0.13424  0.04874  1.0000
  C   C751      1.0  0.62787  0.48650  0.13214  1.0000
  H   H893      1.0  0.49950  0.12786  0.25824  1.0000
  C   C752      1.0  0.67759  0.16026  0.04718  1.0000
  H   H894      1.0  0.68244  0.12394  0.06068  1.0000
  H   H895      1.0  0.59244  0.39006  0.15011  1.0000
  C   C753      1.0  0.67880  0.09521  0.25848  1.0000
  H   H896      1.0  0.67610  0.17031  0.05794  1.0000
  H   H897      1.0  0.51561  0.25193  0.14374  1.0000
  H   H898      1.0  0.73159  0.28957  0.24712  1.0000
  H   H899      1.0  0.62229  0.45560  0.12639  1.0000
  H   H900      1.0  0.50732  0.19750  0.14489  1.0000
  H   H901      1.0  0.57898  0.44843  0.29204  1.0000
  C   C754      1.0  0.58755  0.15068  0.16001  1.0000
  C   C755      1.0  0.60037  0.14538  0.16725  1.0000
  C   C756      1.0  0.61558  0.15644  0.16988  1.0000
  C   C757      1.0  0.61806  0.17284  0.16505  1.0000
  C   C758      1.0  0.60513  0.17812  0.15852  1.0000
  C   C759      1.0  0.58989  0.16708  0.15605  1.0000
  H   H902      1.0  0.59855  0.13270  0.17057  1.0000
  H   H903      1.0  0.62536  0.15226  0.17542  1.0000
  H   H904      1.0  0.60693  0.19079  0.15496  1.0000
  H   H905      1.0  0.58002  0.17126  0.15067  1.0000
  C   C760      1.0  0.51048  0.15380  0.01028  1.0000
  H   H906      1.0  0.71680  0.17551  0.07968  1.0000
  C   C761      1.0  0.53197  0.14523  0.02772  1.0000
  C   C762      1.0  0.51886  0.15058  0.03338  1.0000
  S   S231      1.0  0.60099  0.08570  0.47691  1.0000
  H   H907      1.0  0.71637  0.15964  0.03758  1.0000
  H   H908      1.0  0.68055  0.43311  0.03430  1.0000
  H   H909      1.0  0.53851  0.14260  0.04518  1.0000
  C   C763      1.0  0.51725  0.20835  0.07495  1.0000
  H   H910      1.0  0.66281  0.08591  0.16953  1.0000
  C   C764      1.0  0.59426  0.34210  0.17378  1.0000
  C   C765      1.0  0.61038  0.35053  0.16630  1.0000
  C   C766      1.0  0.61818  0.36479  0.17917  1.0000
  C   C767      1.0  0.61002  0.37046  0.20020  1.0000
  C   C768      1.0  0.59394  0.36192  0.20785  1.0000
  C   C769      1.0  0.58600  0.34793  0.19440  1.0000
  H   H911      1.0  0.61684  0.34604  0.15042  1.0000
  H   H912      1.0  0.63064  0.37116  0.17342  1.0000
  H   H913      1.0  0.58755  0.36614  0.22422  1.0000
  H   H914      1.0  0.57358  0.34150  0.20036  1.0000
  C   C770      1.0  0.52407  0.30400  0.05372  1.0000
  H   H915      1.0  0.64773  0.09598  0.41410  1.0000
  C   C771      1.0  0.62504  0.48078  0.28856  1.0000
  C   C772      1.0  0.53365  0.31699  0.99714  1.0000
  C   C773      1.0  0.53843  0.32636  0.02059  1.0000
  C   C774      1.0  0.53390  0.31986  0.04875  1.0000
  H   H916      1.0  0.53071  0.27116  0.09175  1.0000
  C   C775      1.0  0.64577  0.11219  0.19669  1.0000
  H   H917      1.0  0.54549  0.33882  0.01688  1.0000
  H   H918      1.0  0.53749  0.32730  0.06652  1.0000
  C   C776      1.0  0.52866  0.24282  0.19236  1.0000
  C   C777      1.0  0.52065  0.22717  0.20367  1.0000
  C   C778      1.0  0.52495  0.21403  0.19416  1.0000
  C   C779      1.0  0.53753  0.21649  0.17357  1.0000
  C   C780      1.0  0.54552  0.23216  0.16227  1.0000
  C   C781      1.0  0.54102  0.24523  0.17136  1.0000
  H   H919      1.0  0.58110  0.02323  0.47890  1.0000
  H   H920      1.0  0.51877  0.20206  0.20318  1.0000
  H   H921      1.0  0.55525  0.23415  0.14630  1.0000
  H   H922      1.0  0.54721  0.25716  0.16234  1.0000
  C   C782      1.0  0.51025  0.33676  0.24868  1.0000
  H   H923      1.0  0.53493  0.01775  0.39606  1.0000
  C   C783      1.0  0.62921  0.47241  0.31131  1.0000
  C   C784      1.0  0.58093  0.34268  0.07816  1.0000
  C   C785      1.0  0.50713  0.33616  0.39636  1.0000
  H   H924      1.0  0.69323  0.40364  0.07623  1.0000
  C   C786      1.0  0.62908  0.47823  0.26010  1.0000
  C   C787      1.0  0.63710  0.46711  0.25382  1.0000
  C   C788      1.0  0.64101  0.45855  0.27657  1.0000
  C   C789      1.0  0.63727  0.46134  0.30501  1.0000
  H   H925      1.0  0.64731  0.45008  0.27229  1.0000
  H   H926      1.0  0.64072  0.45487  0.32230  1.0000
  C   C790      1.0  0.54032  0.44152  0.39382  1.0000
  C   C791      1.0  0.53975  0.44949  0.36770  1.0000
  C   C792      1.0  0.52725  0.44292  0.34992  1.0000
  C   C793      1.0  0.51531  0.42854  0.35852  1.0000
  C   C794      1.0  0.51582  0.42085  0.38486  1.0000
  C   C795      1.0  0.52833  0.42727  0.40238  1.0000
  H   H927      1.0  0.54897  0.46059  0.36111  1.0000
  H   H928      1.0  0.52688  0.44888  0.32951  1.0000
  H   H929      1.0  0.50660  0.40990  0.39191  1.0000
  H   H930      1.0  0.52871  0.42110  0.42259  1.0000
  C   C796      1.0  0.71731  0.18105  0.05847  1.0000
  H   H931      1.0  0.55691  0.46235  0.47206  1.0000
  C   C797      1.0  0.59980  0.42186  0.29132  1.0000
  C   C798      1.0  0.52175  0.04015  0.40469  1.0000
  N   N50       1.0  0.62995  0.16431  0.07851  1.0000
  C   C799      1.0  0.61502  0.15172  0.08922  1.0000
  C   C800      1.0  0.64313  0.16344  0.09641  1.0000
  C   C801      1.0  0.62759  0.18009  0.08247  1.0000
  C   C802      1.0  0.63369  0.16169  0.04849  1.0000
  C   C803      1.0  0.63370  0.17269  0.02544  1.0000
  C   C804      1.0  0.63687  0.14743  0.04144  1.0000
  N   N51       1.0  0.50093  0.33318  0.44933  1.0000
  C   C805      1.0  0.53927  0.04587  0.44524  1.0000
  H   H932      1.0  0.62277  0.14400  0.36112  1.0000
  H   H933      1.0  0.61640  0.13960  0.09026  1.0000
  H   H934      1.0  0.61937  0.39397  0.12669  1.0000
  H   H935      1.0  0.60501  0.15138  0.07542  1.0000
  H   H936      1.0  0.65462  0.17253  0.08865  1.0000
  H   H937      1.0  0.64505  0.15157  0.09680  1.0000
  H   H938      1.0  0.64076  0.16571  0.11901  1.0000
  H   H939      1.0  0.63845  0.19014  0.07497  1.0000
  H   H940      1.0  0.61708  0.18122  0.07141  1.0000
  H   H941      1.0  0.62527  0.18185  0.10537  1.0000
  H   H942      1.0  0.63130  0.18379  0.02853  1.0000
  H   H943      1.0  0.63711  0.13850  0.05774  1.0000
  H   H944      1.0  0.54617  0.02902  0.47304  1.0000
  H   H945      1.0  0.66453  0.48184  0.13377  1.0000
  C   C806      1.0  0.66600  0.08383  0.27351  1.0000
  N   N52       1.0  0.57961  0.28234  0.21734  1.0000
  C   C807      1.0  0.57853  0.28466  0.18621  1.0000
  C   C808      1.0  0.59159  0.27405  0.22238  1.0000
  C   C809      1.0  0.56383  0.27152  0.22910  1.0000
  C   C810      1.0  0.58456  0.29813  0.23002  1.0000
  C   C811      1.0  0.57486  0.30262  0.25088  1.0000
  C   C812      1.0  0.59945  0.30972  0.22115  1.0000
  C   C813      1.0  0.57981  0.31779  0.26184  1.0000
  C   C814      1.0  0.60432  0.32480  0.23241  1.0000
  C   C815      1.0  0.59450  0.32884  0.25265  1.0000
  H   H946      1.0  0.59016  0.29167  0.17513  1.0000
  H   H947      1.0  0.57434  0.27306  0.17588  1.0000
  H   H948      1.0  0.57007  0.29137  0.18170  1.0000
  H   H949      1.0  0.58789  0.26184  0.21410  1.0000
  H   H950      1.0  0.59328  0.27274  0.24555  1.0000
  H   H951      1.0  0.60346  0.28057  0.21163  1.0000
  H   H952      1.0  0.55406  0.27666  0.22492  1.0000
  H   H953      1.0  0.56040  0.25976  0.21915  1.0000
  H   H954      1.0  0.56379  0.26888  0.25242  1.0000
  H   H955      1.0  0.56324  0.29477  0.25864  1.0000
  H   H956      1.0  0.60728  0.30740  0.20482  1.0000
  H   H957      1.0  0.57207  0.32112  0.27718  1.0000
  H   H958      1.0  0.61552  0.33363  0.22468  1.0000
  H   H959      1.0  0.59816  0.34072  0.26068  1.0000
  N   N53       1.0  0.64023  0.47915  0.12374  1.0000
  C   C816      1.0  0.71728  0.19511  0.00301  1.0000
  C   C817      1.0  0.51042  0.49328  0.35257  1.0000
  H   H960      1.0  0.63688  0.08193  0.22836  1.0000
  C   C818      1.0  0.66019  0.49262  0.04899  1.0000
  C   C819      1.0  0.64875  0.08593  0.23604  1.0000
  H   H961      1.0  0.62120  0.38810  0.09099  1.0000
  H   H962      1.0  0.61633  0.48071  0.12250  1.0000
  H   H963      1.0  0.71651  0.45403  0.07657  1.0000
  H   H964      1.0  0.50979  0.01210  0.42963  1.0000
  S   S232      1.0  0.58276  0.48265  0.35760  1.0000
  H   H965      1.0  0.64409  0.13260  0.34719  1.0000
  H   H966      1.0  0.54648  0.13858  0.99544  1.0000
  N   N54       1.0  0.64901  0.11569  0.44078  1.0000
  N   N55       1.0  0.53015  0.03365  0.42640  1.0000
  H   H967      1.0  0.58660  0.00888  0.35962  1.0000
  N   N56       1.0  0.54041  0.10198  0.25119  1.0000
  C   C820      1.0  0.53910  0.08480  0.25022  1.0000
  C   C821      1.0  0.52975  0.10378  0.27514  1.0000
  C   C822      1.0  0.53437  0.10673  0.22433  1.0000
  C   C823      1.0  0.55712  0.11158  0.25567  1.0000
  C   C824      1.0  0.56607  0.12480  0.23700  1.0000
  C   C825      1.0  0.56492  0.10790  0.27955  1.0000
  C   C826      1.0  0.58185  0.13353  0.24190  1.0000
  C   C827      1.0  0.58071  0.11668  0.28419  1.0000
  C   C828      1.0  0.58917  0.12946  0.26537  1.0000
  H   H968      1.0  0.52681  0.07733  0.24558  1.0000
  H   H969      1.0  0.54760  0.08302  0.23350  1.0000
  H   H970      1.0  0.54159  0.07967  0.27082  1.0000
  H   H971      1.0  0.53302  0.09986  0.29608  1.0000
  H   H972      1.0  0.51711  0.09645  0.27281  1.0000
  H   H973      1.0  0.53007  0.11647  0.27636  1.0000
  H   H974      1.0  0.54194  0.10582  0.20532  1.0000
  H   H975      1.0  0.52199  0.09898  0.22109  1.0000
  H   H976      1.0  0.53380  0.11918  0.22440  1.0000
  H   H977      1.0  0.56121  0.12868  0.21836  1.0000
  H   H978      1.0  0.55888  0.09819  0.29497  1.0000
  H   H979      1.0  0.58842  0.14356  0.22732  1.0000
  C   C829      1.0  0.53645  0.14294  0.99943  1.0000
  H   H980      1.0  0.52163  0.47541  0.34437  1.0000
  N   N57       1.0  0.70243  0.42934  0.07407  1.0000
  C   C830      1.0  0.71586  0.44192  0.08547  1.0000
  C   C831      1.0  0.68733  0.43135  0.08593  1.0000
  C   C832      1.0  0.70290  0.41345  0.08484  1.0000
  C   C833      1.0  0.71787  0.19699  0.05497  1.0000
  H   H981      1.0  0.65569  0.11948  0.38266  1.0000
  H   H982      1.0  0.61058  0.43185  0.29267  1.0000
  S   S233      1.0  0.49779  0.11521  0.20079  1.0000
  S   S234      1.0  0.62457  0.47506  0.34786  1.0000
  C   C834      1.0  0.71712  0.17214  0.03471  1.0000
  H   H983      1.0  0.51107  0.22519  0.21994  1.0000
  H   H984      1.0  0.65200  0.09705  0.15087  1.0000
  C   C835      1.0  0.54150  0.06251  0.44040  1.0000
  C   C836      1.0  0.71808  0.42958  0.02789  1.0000
  H   H985      1.0  0.68658  0.43057  0.10966  1.0000
  C   C837      1.0  0.51158  0.30622  0.39543  1.0000
  C   C838      1.0  0.63994  0.14441  0.01320  1.0000
  H   H986      1.0  0.57110  0.33657  0.03766  1.0000
  C   C839      1.0  0.63125  0.47266  0.07437  1.0000
  C   C840      1.0  0.64538  0.43498  0.01056  1.0000
  C   C841      1.0  0.56915  0.43129  0.34124  1.0000
  H   H987      1.0  0.59663  0.44552  0.36178  1.0000
  H   H988      1.0  0.58903  0.45957  0.32075  1.0000
  C   C842      1.0  0.67663  0.10221  0.23238  1.0000
  H   H989      1.0  0.55938  0.43051  0.32664  1.0000
  C   C843      1.0  0.67833  0.16057  0.01687  1.0000
  H   H990      1.0  0.58863  0.36936  0.14637  1.0000
  H   H991      1.0  0.52041  0.20349  0.05562  1.0000
  H   H992      1.0  0.54245  0.43546  0.47158  1.0000
  H   H993      1.0  0.67468  0.46728  0.03072  1.0000
  C   C844      1.0  0.68236  0.13471  0.01893  1.0000
  H   H994      1.0  0.56938  0.44127  0.35517  1.0000
  H   H995      1.0  0.61310  0.14221  0.41164  1.0000
  H   H996      1.0  0.60210  0.40935  0.11203  1.0000
  C   C845      1.0  0.51040  0.47770  0.34876  1.0000
  H   H997      1.0  0.72764  0.44023  0.08064  1.0000
  C   C846      1.0  0.66673  0.12226  0.43779  1.0000
  H   H998      1.0  0.53810  0.25625  0.10796  1.0000
  C   C847      1.0  0.51127  0.35150  0.26027  1.0000
  C   C848      1.0  0.59707  0.43618  0.34681  1.0000
  C   C849      1.0  0.63387  0.47402  0.04473  1.0000
  N   N58       1.0  0.51327  0.24772  0.09902  1.0000
  H   H999      1.0  0.50659  0.22473  0.14549  1.0000
  H   H1000     1.0  0.56231  0.38538  0.28268  1.0000
  H   H1001     1.0  0.50748  0.24964  0.05494  1.0000
  H   H1002     1.0  0.51013  0.02562  0.45713  1.0000
  H   H1003     1.0  0.52019  0.23120  0.05470  1.0000
  H   H1004     1.0  0.64345  0.11775  0.17635  1.0000
  C   C850      1.0  0.58830  0.44922  0.30758  1.0000
  C   C851      1.0  0.70399  0.43050  0.04249  1.0000
  H   H1005     1.0  0.56586  0.42021  0.35552  1.0000
  N   N59       1.0  0.58483  0.43410  0.32539  1.0000
  C   C852      1.0  0.71800  0.20400  0.02767  1.0000
  H   H1006     1.0  0.59993  0.45229  0.29512  1.0000
  H   H1007     1.0  0.59540  0.42483  0.35967  1.0000
  H   H1008     1.0  0.50181  0.26286  0.07725  1.0000
  H   H1009     1.0  0.64214  0.08287  0.17938  1.0000
  H   H1010     1.0  0.51468  0.03069  0.39118  1.0000
  C   C853      1.0  0.57636  0.34617  0.05138  1.0000
  H   H1011     1.0  0.66758  0.07894  0.29430  1.0000
  C   C854      1.0  0.58775  0.35501  0.09589  1.0000
  H   H1012     1.0  0.60945  0.44020  0.33698  1.0000
  H   H1013     1.0  0.58476  0.40036  0.09275  1.0000
  H   H1014     1.0  0.67044  0.12269  0.15888  1.0000
  C   C855      1.0  0.57181  0.40752  0.30333  1.0000
  C   C856      1.0  0.50970  0.20491  0.12517  1.0000
  C   C857      1.0  0.51927  0.29461  0.03027  1.0000
  H   H1015     1.0  0.64943  0.09174  0.45126  1.0000
  H   H1016     1.0  0.57433  0.47493  0.48684  1.0000
  H   H1017     1.0  0.61175  0.41078  0.26152  1.0000
  C   C858      1.0  0.58992  0.37126  0.08761  1.0000
  S   S235      1.0  0.57401  0.49478  0.41981  1.0000
  H   H1018     1.0  0.58663  0.38641  0.05152  1.0000
  C   C859      1.0  0.58538  0.42106  0.30693  1.0000
  H   H1019     1.0  0.56031  0.40589  0.31411  1.0000
  S   S236      1.0  0.50968  0.02386  0.32924  1.0000
  H   H1020     1.0  0.55275  0.08643  0.45322  1.0000
  H   H1021     1.0  0.64257  0.45564  0.12475  1.0000
  H   H1022     1.0  0.61116  0.15383  0.11107  1.0000
  H   H1023     1.0  0.74135  0.25868  0.25682  1.0000
  C   C860      1.0  0.50775  0.31178  0.42134  1.0000
  C   C861      1.0  0.51103  0.33052  0.37066  1.0000
  H   H1024     1.0  0.50663  0.30389  0.44003  1.0000
  H   H1025     1.0  0.58790  0.38759  0.25628  1.0000
  C   C862      1.0  0.62270  0.13752  0.40575  1.0000
  H   H1026     1.0  0.68440  0.12480  0.00837  1.0000
  H   H1027     1.0  0.51673  0.41498  0.48345  1.0000
  C   C863      1.0  0.51783  0.02064  0.44347  1.0000
  C   C864      1.0  0.73867  0.44396  0.20933  1.0000
  H   H1028     1.0  0.61895  0.48941  0.29288  1.0000
  H   H1029     1.0  0.60141  0.13628  0.26902  1.0000
  H   H1030     1.0  0.64008  0.42955  0.99167  1.0000
  H   H1031     1.0  0.59130  0.35165  0.11623  1.0000
  H   H1032     1.0  0.71457  0.44197  0.10914  1.0000
  H   H1033     1.0  0.71641  0.17114  0.99006  1.0000
  C   C865      1.0  0.60061  0.40989  0.27335  1.0000
  H   H1034     1.0  0.68643  0.44327  0.07922  1.0000
  C   C866      1.0  0.50288  0.35218  0.28616  1.0000
  C   C867      1.0  0.57855  0.36201  0.04228  1.0000
  C   C868      1.0  0.64414  0.09837  0.43603  1.0000
  C   C869      1.0  0.73078  0.42808  0.15954  1.0000
  S   S237      1.0  0.49823  0.37809  0.37272  1.0000
  C   C870      1.0  0.50284  0.25058  0.07687  1.0000
  C   C871      1.0  0.60047  0.99658  0.46390  1.0000
  C   C872      1.0  0.57762  0.99943  0.37210  1.0000
  C   C873      1.0  0.58714  0.39679  0.27033  1.0000
  C   C874      1.0  0.57278  0.39560  0.28526  1.0000
  C   C875      1.0  0.52420  0.30099  0.00214  1.0000
  C   C876      1.0  0.54681  0.04134  0.46872  1.0000
  C   C877      1.0  0.51700  0.22415  0.07468  1.0000
  H   H1035     1.0  0.51591  0.31115  0.35004  1.0000
  C   C878      1.0  0.64184  0.12377  0.41941  1.0000
  H   H1036     1.0  0.57492  0.37872  0.13283  1.0000
  H   H1037     1.0  0.63094  0.11153  0.47534  1.0000
  C   C879      1.0  0.51366  0.19877  0.10017  1.0000
  C   C880      1.0  0.59705  0.40015  0.09652  1.0000
  C   C881      1.0  0.62938  0.13023  0.42662  1.0000
  C   C882      1.0  0.52987  0.25829  0.09203  1.0000
  H   H1038     1.0  0.72783  0.42183  0.14027  1.0000
  H   H1039     1.0  0.57916  0.33035  0.08537  1.0000
  S   S238      1.0  0.49373  0.37684  0.45517  1.0000
  H   H1040     1.0  0.65046  0.48465  0.00908  1.0000
  C   C883      1.0  0.61376  0.38483  0.11140  1.0000
  H   H1041     1.0  0.67242  0.11729  0.45495  1.0000
  C   C884      1.0  0.51316  0.31555  0.37015  1.0000
  C   C885      1.0  0.51320  0.34859  0.45443  1.0000
  H   H1042     1.0  0.51209  0.33769  0.35091  1.0000
  H   H1043     1.0  0.71802  0.20387  0.07360  1.0000
  H   H1044     1.0  0.69034  0.09910  0.26769  1.0000
  H   H1045     1.0  0.62480  0.46709  0.03143  1.0000
  H   H1046     1.0  0.58633  0.11350  0.30261  1.0000
  H   H1047     1.0  0.63419  0.10344  0.20476  1.0000
  H   H1048     1.0  0.61471  0.37327  0.12003  1.0000
  C   C886      1.0  0.73436  0.22526  0.17097  1.0000
  C   C887      1.0  0.64322  0.48101  0.09235  1.0000
  C   C888      1.0  0.50766  0.25254  0.12640  1.0000
  H   H1049     1.0  0.62606  0.48503  0.24282  1.0000
  C   C889      1.0  0.64684  0.12478  0.39010  1.0000
  H   H1050     1.0  0.60477  0.40428  0.07653  1.0000
  C   C890      1.0  0.49952  0.32222  0.47490  1.0000
  H   H1051     1.0  0.71448  0.41154  0.07900  1.0000
  H   H1052     1.0  0.64906  0.12171  0.21224  1.0000
  S   S239      1.0  0.49981  0.41989  0.33650  1.0000
  C   C891      1.0  0.50080  0.32265  0.26361  1.0000
  N   N60       1.0  0.59697  0.38401  0.10716  1.0000
  C   C892      1.0  0.58783  0.38039  0.13522  1.0000
  H   H1053     1.0  0.64987  0.11159  0.48631  1.0000
  H   H1054     1.0  0.50530  0.34773  0.39544  1.0000
  H   H1055     1.0  0.52309  0.01338  0.45737  1.0000
  H   H1056     1.0  0.62537  0.48542  0.15571  1.0000
  C   C893      1.0  0.58525  0.37444  0.05999  1.0000
  C   C894      1.0  0.71709  0.17897  0.00733  1.0000
  H   H1057     1.0  0.51402  0.35804  0.43747  1.0000
  H   H1058     1.0  0.67727  0.17080  0.00461  1.0000
  N   N61       1.0  0.65865  0.10484  0.19270  1.0000
  C   C895      1.0  0.50534  0.32697  0.42253  1.0000
  H   H1059     1.0  0.68691  0.11140  0.22254  1.0000
  C   C896      1.0  0.62810  0.13851  0.37727  1.0000
  C   C897      1.0  0.57282  0.00215  0.39961  1.0000
  C   C898      1.0  0.51301  0.23081  0.09980  1.0000
  H   H1060     1.0  0.63093  0.09303  0.43891  1.0000
  H   H1061     1.0  0.61981  0.46482  0.08306  1.0000
  H   H1062     1.0  0.52526  0.34718  0.45551  1.0000
  H   H1063     1.0  0.67660  0.42185  0.07950  1.0000
  H   H1064     1.0  0.68299  0.11267  0.17456  1.0000
  H   H1065     1.0  0.55083  0.03612  0.39849  1.0000
  H   H1066     1.0  0.64102  0.07066  0.27451  1.0000
  Fe  Fe119     1.0  0.60735  0.48562  0.37237  1.0000
  C   C899      1.0  0.67297  0.11745  0.17943  1.0000
  H   H1067     1.0  0.71848  0.21640  0.02606  1.0000
  C   C900      1.0  0.71994  0.43090  0.99810  1.0000
  H   H1068     1.0  0.67080  0.13553  0.43865  1.0000
  H   H1069     1.0  0.65223  0.48452  0.16303  1.0000
  C   C901      1.0  0.54123  0.02668  0.41116  1.0000
  H   H1070     1.0  0.51321  0.29454  0.39487  1.0000
  C   C902      1.0  0.69381  0.43391  0.99560  1.0000
  C   C903      1.0  0.73255  0.28085  0.15296  1.0000
  C   C904      1.0  0.63676  0.16952  0.99726  1.0000
  C   C905      1.0  0.65366  0.09210  0.17228  1.0000
  H   H1071     1.0  0.67721  0.12760  0.19347  1.0000
  C   C906      1.0  0.66146  0.09777  0.22034  1.0000
  H   H1072     1.0  0.54728  0.02057  0.42587  1.0000
  H   H1073     1.0  0.53027  0.04926  0.38967  1.0000
  H   H1074     1.0  0.64704  0.13026  0.47557  1.0000
  C   C907      1.0  0.65809  0.44930  0.00786  1.0000
  C   C908      1.0  0.64831  0.48397  0.03206  1.0000
  H   H1075     1.0  0.51038  0.35354  0.47468  1.0000
  C   C909      1.0  0.63987  0.15543  0.99116  1.0000
  H   H1076     1.0  0.63350  0.46016  0.15698  1.0000
  H   H1077     1.0  0.51857  0.36250  0.24899  1.0000
  H   H1078     1.0  0.50379  0.36363  0.29462  1.0000
  H   H1079     1.0  0.53456  0.25634  0.07068  1.0000
  H   H1080     1.0  0.67173  0.11932  0.41744  1.0000
  C   C910      1.0  0.69178  0.43250  0.02535  1.0000
  C   C911      1.0  0.65101  0.07922  0.26233  1.0000
  C   C912      1.0  0.68084  0.14774  0.00264  1.0000
  C   C913      1.0  0.63440  0.46193  0.13331  1.0000
  H   H1081     1.0  0.72420  0.27306  0.13950  1.0000
  C   C914      1.0  0.65468  0.48675  0.13949  1.0000
  H   H1082     1.0  0.57494  0.36462  0.02134  1.0000
  H   H1083     1.0  0.50762  0.26519  0.12485  1.0000
  H   H1084     1.0  0.62436  0.12955  0.44813  1.0000
  C   C915      1.0  0.50938  0.22069  0.12518  1.0000
  C   C916      1.0  0.73885  0.26258  0.23520  1.0000
  H   H1085     1.0  0.51417  0.18661  0.10043  1.0000
  H   H1086     1.0  0.73731  0.20578  0.19680  1.0000
  C   C917      1.0  0.49603  0.46503  0.35072  1.0000
  H   H1087     1.0  0.51104  0.31999  0.47852  1.0000
  H   H1088     1.0  0.50145  0.11743  0.04724  1.0000
  S   S240      1.0  0.49350  0.05346  0.36915  1.0000
  H   H1089     1.0  0.74162  0.45010  0.22872  1.0000
  C   C918      1.0  0.65777  0.49123  0.07870  1.0000
  H   H1090     1.0  0.72577  0.26071  0.23548  1.0000
  C   C919      1.0  0.49487  0.11494  0.26050  1.0000
  C   C920      1.0  0.49318  0.10607  0.23621  1.0000
  H   H1091     1.0  0.50025  0.15784  0.01434  1.0000
  H   H1092     1.0  0.64270  0.13361  0.00836  1.0000
  H   H1093     1.0  0.49241  0.12283  0.09366  1.0000
  H   H1094     1.0  0.49985  0.31122  0.25501  1.0000
  H   H1095     1.0  0.72742  0.26309  0.18674  1.0000
  H   H1096     1.0  0.58687  0.45309  0.48355  1.0000
  C   C921      1.0  0.49300  0.33810  0.30055  1.0000
  C   C922      1.0  0.73455  0.27525  0.18036  1.0000
  H   H1097     1.0  0.49526  0.24497  0.13314  1.0000
  C   C923      1.0  0.74131  0.29634  0.14278  1.0000
  C   C924      1.0  0.55585  0.05271  0.48637  1.0000
  C   C925      1.0  0.55790  0.06890  0.48089  1.0000
  C   C926      1.0  0.49272  0.10785  0.06007  1.0000
  H   H1098     1.0  0.60773  0.00907  0.46283  1.0000
  H   H1099     1.0  0.74178  0.25426  0.22031  1.0000
  C   C927      1.0  0.74184  0.24117  0.16033  1.0000
  Fe  Fe120     1.0  0.56759  0.48217  0.68003  1.0000
  S   S241      1.0  0.58756  0.47155  0.67726  1.0000
  S   S242      1.0  0.54157  0.46807  0.68513  1.0000
  N   N62       1.0  0.55488  0.35907  0.79960  1.0000
  C   C928      1.0  0.50018  0.33282  0.73875  1.0000
  S   S243      1.0  0.52920  0.40322  0.62538  1.0000
  Fe  Fe121     1.0  0.56036  0.31999  0.86627  1.0000
  S   S244      1.0  0.54257  0.33164  0.88104  1.0000
  S   S245      1.0  0.58389  0.33635  0.84599  1.0000
  Fe  Fe122     1.0  0.53743  0.28631  0.88299  1.0000
  S   S246      1.0  0.51811  0.29629  0.89877  1.0000
  S   S247      1.0  0.53334  0.25959  0.89351  1.0000
  Fe  Fe123     1.0  0.52484  0.31259  0.85855  1.0000
  S   S248      1.0  0.66536  0.45926  0.97409  1.0000
  Fe  Fe124     1.0  0.53781  0.31443  0.91956  1.0000
  S   S249      1.0  0.53922  0.32608  0.96220  1.0000
  S   S250      1.0  0.54298  0.30157  0.84160  1.0000
  S   S251      1.0  0.55681  0.30385  0.90582  1.0000
  Fe  Fe125     1.0  0.52878  0.14820  0.89513  1.0000
  S   S252      1.0  0.54369  0.17191  0.87408  1.0000
  S   S253      1.0  0.53424  0.14271  0.94120  1.0000
  Fe  Fe126     1.0  0.51701  0.13449  0.83606  1.0000
  S   S254      1.0  0.53116  0.15768  0.81243  1.0000
  C   C929      1.0  0.55590  0.37601  0.71180  1.0000
  Fe  Fe127     1.0  0.55083  0.15765  0.84089  1.0000
  S   S255      1.0  0.57614  0.16206  0.82367  1.0000
  Fe  Fe128     1.0  0.52265  0.17015  0.84793  1.0000
  S   S256      1.0  0.51583  0.19248  0.83526  1.0000
  S   S257      1.0  0.53744  0.13411  0.86292  1.0000
  H   H1100     1.0  0.70165  0.21394  0.95263  1.0000
  Fe  Fe129     1.0  0.66894  0.16061  0.86344  1.0000
  S   S258      1.0  0.66342  0.18382  0.86744  1.0000
  S   S259      1.0  0.66578  0.15300  0.81701  1.0000
  Fe  Fe130     1.0  0.67582  0.16011  0.92772  1.0000
  S   S260      1.0  0.67023  0.18265  0.93484  1.0000
  S   S261      1.0  0.68330  0.14729  0.96490  1.0000
  Fe  Fe131     1.0  0.64958  0.17230  0.90780  1.0000
  S   S262      1.0  0.62450  0.17125  0.92167  1.0000
  Fe  Fe132     1.0  0.68492  0.19197  0.89379  1.0000
  S   S263      1.0  0.70088  0.21815  0.89129  1.0000
  S   S264      1.0  0.65404  0.14885  0.90324  1.0000
  S   S265      1.0  0.69162  0.16970  0.88743  1.0000
  Fe  Fe133     1.0  0.65631  0.44757  0.86765  1.0000
  S   S266      1.0  0.65636  0.42207  0.86475  1.0000
  S   S267      1.0  0.65767  0.46222  0.82533  1.0000
  Fe  Fe134     1.0  0.66026  0.44631  0.93289  1.0000
  S   S268      1.0  0.66043  0.42103  0.93351  1.0000
  C   C930      1.0  0.61142  0.34065  0.92876  1.0000
  Fe  Fe135     1.0  0.67672  0.42852  0.89401  1.0000
  S   S269      1.0  0.69746  0.41837  0.88920  1.0000
  Fe  Fe136     1.0  0.64017  0.41698  0.90450  1.0000
  S   S270      1.0  0.61837  0.39566  0.91748  1.0000
  S   S271      1.0  0.67784  0.45422  0.89467  1.0000
  S   S272      1.0  0.63883  0.44207  0.90615  1.0000
  Fe  Fe137     1.0  0.61935  0.08267  0.70712  1.0000
  S   S273      1.0  0.61793  0.09862  0.66898  1.0000
  S   S274      1.0  0.63227  0.09034  0.74862  1.0000
  Fe  Fe138     1.0  0.59435  0.05253  0.68418  1.0000
  S   S275      1.0  0.59167  0.06704  0.64549  1.0000
  Fe  Fe139     1.0  0.61802  0.07783  0.64214  1.0000
  S   S276      1.0  0.62926  0.07711  0.59749  1.0000
  Fe  Fe140     1.0  0.59149  0.08600  0.67520  1.0000
  S   S277      1.0  0.57116  0.09605  0.67268  1.0000
  S   S278      1.0  0.62131  0.06243  0.67979  1.0000
  S   S279      1.0  0.59266  0.07125  0.71419  1.0000
  Fe  Fe141     1.0  0.59875  0.49173  0.64414  1.0000
  S   S280      1.0  0.51588  0.03739  0.63405  1.0000
  H   H1101     1.0  0.65859  0.47713  0.76933  1.0000
  C   C931      1.0  0.55460  0.07974  0.66568  1.0000
  C   C932      1.0  0.55501  0.06412  0.67071  1.0000
  C   C933      1.0  0.54304  0.05111  0.66121  1.0000
  C   C934      1.0  0.53019  0.05361  0.64776  1.0000
  C   C935      1.0  0.52921  0.06914  0.64430  1.0000
  C   C936      1.0  0.54147  0.08222  0.65304  1.0000
  H   H1102     1.0  0.56459  0.06194  0.68187  1.0000
  H   H1103     1.0  0.54373  0.03912  0.66461  1.0000
  H   H1104     1.0  0.51947  0.07125  0.63364  1.0000
  H   H1105     1.0  0.54105  0.09426  0.64913  1.0000
  C   C937      1.0  0.62078  0.07889  0.56430  1.0000
  C   C938      1.0  0.60761  0.08443  0.56211  1.0000
  C   C939      1.0  0.60170  0.08628  0.53522  1.0000
  C   C940      1.0  0.54078  0.36082  0.81583  1.0000
  C   C941      1.0  0.62764  0.07488  0.53929  1.0000
  H   H1106     1.0  0.60225  0.08766  0.58108  1.0000
  H   H1107     1.0  0.59178  0.09091  0.53370  1.0000
  H   H1108     1.0  0.63780  0.07056  0.54073  1.0000
  H   H1109     1.0  0.63810  0.48356  0.74073  1.0000
  C   C942      1.0  0.72349  0.44622  0.88945  1.0000
  C   C943      1.0  0.71816  0.42954  0.88862  1.0000
  H   H1110     1.0  0.65219  0.37005  0.96110  1.0000
  H   H1111     1.0  0.55392  0.33689  0.82188  1.0000
  H   H1112     1.0  0.71491  0.45260  0.89162  1.0000
  C   C944      1.0  0.49478  0.11248  0.76111  1.0000
  S   S281      1.0  0.60365  0.47833  0.75360  1.0000
  C   C945      1.0  0.72193  0.22796  0.88977  1.0000
  C   C946      1.0  0.65563  0.13537  0.79905  1.0000
  C   C947      1.0  0.65296  0.11986  0.81103  1.0000
  C   C948      1.0  0.64584  0.10636  0.79527  1.0000
  C   C949      1.0  0.64096  0.10802  0.76748  1.0000
  C   C950      1.0  0.64338  0.12353  0.75569  1.0000
  C   C951      1.0  0.65077  0.13705  0.77124  1.0000
  H   H1113     1.0  0.65683  0.11823  0.83210  1.0000
  H   H1114     1.0  0.64424  0.09449  0.80461  1.0000
  H   H1115     1.0  0.63997  0.12510  0.73425  1.0000
  H   H1116     1.0  0.65288  0.14892  0.76147  1.0000
  H   H1117     1.0  0.55513  0.47075  0.50562  1.0000
  C   C952      1.0  0.54244  0.35861  0.75250  1.0000
  C   C953      1.0  0.72218  0.46034  0.81222  1.0000
  H   H1118     1.0  0.69325  0.43615  0.80789  1.0000
  N   N63       1.0  0.70562  0.46105  0.81395  1.0000
  H   H1119     1.0  0.59056  0.44745  0.73374  1.0000
  C   C954      1.0  0.58952  0.16463  0.85095  1.0000
  C   C955      1.0  0.60601  0.17017  0.84409  1.0000
  C   C956      1.0  0.61684  0.17222  0.86567  1.0000
  C   C957      1.0  0.61121  0.16886  0.89421  1.0000
  C   C958      1.0  0.59472  0.16341  0.90107  1.0000
  C   C959      1.0  0.58387  0.16119  0.87947  1.0000
  H   H1120     1.0  0.61043  0.17296  0.82206  1.0000
  H   H1121     1.0  0.62953  0.17655  0.86017  1.0000
  H   H1122     1.0  0.59031  0.16066  0.92309  1.0000
  H   H1123     1.0  0.57115  0.15675  0.88490  1.0000
  C   C960      1.0  0.59303  0.35339  0.86496  1.0000
  C   C961      1.0  0.60683  0.36521  0.85314  1.0000
  C   C962      1.0  0.61451  0.37860  0.86848  1.0000
  C   C963      1.0  0.60852  0.38006  0.89592  1.0000
  C   C964      1.0  0.59452  0.36841  0.90733  1.0000
  C   C965      1.0  0.58675  0.35519  0.89189  1.0000
  H   H1124     1.0  0.61170  0.36393  0.83223  1.0000
  H   H1125     1.0  0.62512  0.38763  0.85923  1.0000
  H   H1126     1.0  0.58978  0.36946  0.92848  1.0000
  H   H1127     1.0  0.57617  0.34616  0.90131  1.0000
  C   C966      1.0  0.52964  0.24136  0.87605  1.0000
  C   C967      1.0  0.52803  0.24045  0.84667  1.0000
  C   C968      1.0  0.52420  0.22546  0.83436  1.0000
  C   C969      1.0  0.52237  0.21127  0.85106  1.0000
  C   C970      1.0  0.52437  0.21226  0.88031  1.0000
  C   C971      1.0  0.52780  0.22717  0.89271  1.0000
  H   H1128     1.0  0.52938  0.25120  0.83353  1.0000
  H   H1129     1.0  0.63662  0.17798  0.97989  1.0000
  H   H1130     1.0  0.52275  0.20145  0.89350  1.0000
  H   H1131     1.0  0.52885  0.22771  0.91547  1.0000
  H   H1132     1.0  0.56511  0.11211  0.53417  1.0000
  S   S282      1.0  0.49909  0.36035  0.63092  1.0000
  C   C972      1.0  0.49967  0.10312  0.78128  1.0000
  S   S283      1.0  0.49685  0.38142  0.68633  1.0000
  H   H1133     1.0  0.70352  0.18100  0.95524  1.0000
  C   C973      1.0  0.61491  0.46595  0.80007  1.0000
  C   C974      1.0  0.62647  0.46211  0.81625  1.0000
  C   C975      1.0  0.64235  0.46615  0.80541  1.0000
  H   H1134     1.0  0.54109  0.37354  0.81533  1.0000
  H   H1135     1.0  0.50753  0.46472  0.67155  1.0000
  H   H1136     1.0  0.62317  0.45629  0.83732  1.0000
  C   C976      1.0  0.70785  0.43311  0.98199  1.0000
  C   C977      1.0  0.53781  0.45047  0.66714  1.0000
  C   C978      1.0  0.54942  0.44838  0.64790  1.0000
  C   C979      1.0  0.54665  0.43389  0.63475  1.0000
  C   C980      1.0  0.53220  0.42158  0.64061  1.0000
  C   C981      1.0  0.52042  0.42384  0.65924  1.0000
  C   C982      1.0  0.52330  0.43823  0.67274  1.0000
  H   H1137     1.0  0.56053  0.45792  0.64312  1.0000
  H   H1138     1.0  0.55574  0.43216  0.62025  1.0000
  H   H1139     1.0  0.50919  0.41442  0.66364  1.0000
  H   H1140     1.0  0.51440  0.43974  0.68793  1.0000
  C   C983      1.0  0.60861  0.08235  0.51023  1.0000
  C   C984      1.0  0.50653  0.27419  0.83371  1.0000
  H   H1141     1.0  0.57102  0.38033  0.81597  1.0000
  C   C985      1.0  0.71540  0.18800  0.79393  1.0000
  H   H1142     1.0  0.57051  0.00369  0.60699  1.0000
  H   H1143     1.0  0.70931  0.47830  0.77815  1.0000
  H   H1144     1.0  0.72281  0.18979  0.77359  1.0000
  H   H1145     1.0  0.55021  0.43866  0.56222  1.0000
  H   H1146     1.0  0.55942  0.44062  0.79068  1.0000
  H   H1147     1.0  0.70265  0.45773  0.76934  1.0000
  C   C986      1.0  0.59155  0.03309  0.60437  1.0000
  C   C987      1.0  0.51069  0.05382  0.56545  1.0000
  C   C988      1.0  0.56598  0.09535  0.56801  1.0000
  H   H1148     1.0  0.71235  0.23249  0.81767  1.0000
  H   H1149     1.0  0.66594  0.35487  0.93032  1.0000
  C   C989      1.0  0.54919  0.43917  0.51548  1.0000
  H   H1150     1.0  0.71373  0.19720  0.93030  1.0000
  C   C990      1.0  0.56864  0.37779  0.75671  1.0000
  H   H1151     1.0  0.55604  0.38005  0.68966  1.0000
  H   H1152     1.0  0.52452  0.41852  0.57248  1.0000
  H   H1153     1.0  0.72500  0.18673  0.94876  1.0000
  H   H1154     1.0  0.68895  0.46649  0.78622  1.0000
  H   H1155     1.0  0.56286  0.17289  0.96983  1.0000
  C   C991      1.0  0.55798  0.08086  0.58290  1.0000
  C   C992      1.0  0.54475  0.41089  0.76785  1.0000
  C   C993      1.0  0.73305  0.21989  0.88459  1.0000
  H   H1156     1.0  0.53269  0.35830  0.71124  1.0000
  H   H1157     1.0  0.55633  0.03863  0.58866  1.0000
  C   C994      1.0  0.51899  0.41558  0.52870  1.0000
  H   H1158     1.0  0.49652  0.24826  0.87959  1.0000
  H   H1159     1.0  0.51252  0.27135  0.85262  1.0000
  H   H1160     1.0  0.54211  0.33440  0.79180  1.0000
  C   C995      1.0  0.52858  0.42239  0.55047  1.0000
  C   C996      1.0  0.56815  0.04123  0.59809  1.0000
  H   H1161     1.0  0.71914  0.25091  0.89741  1.0000
  H   H1162     1.0  0.64230  0.15309  0.96929  1.0000
  C   C997      1.0  0.70282  0.20692  0.77728  1.0000
  H   H1163     1.0  0.53152  0.39961  0.69199  1.0000
  H   H1164     1.0  0.51634  0.30914  0.77941  1.0000
  H   H1165     1.0  0.62701  0.07338  0.49349  1.0000
  H   H1166     1.0  0.69166  0.47298  0.83780  1.0000
  C   C998      1.0  0.54276  0.36379  0.72396  1.0000
  C   C999      1.0  0.54459  0.18814  0.94872  1.0000
  H   H1167     1.0  0.57671  0.44705  0.54531  1.0000
  C   C1000     1.0  0.56079  0.45027  0.73608  1.0000
  S   S284      1.0  0.61084  0.48734  0.60279  1.0000
  H   H1168     1.0  0.56350  0.07681  0.60063  1.0000
  C   C1001     1.0  0.50223  0.47355  0.66411  1.0000
  N   N64       1.0  0.55147  0.11731  0.75659  1.0000
  C   C1002     1.0  0.54516  0.12998  0.76700  1.0000
  C   C1003     1.0  0.54450  0.11265  0.72887  1.0000
  C   C1004     1.0  0.54569  0.10333  0.77741  1.0000
  C   C1005     1.0  0.56916  0.12239  0.75312  1.0000
  C   C1006     1.0  0.57701  0.11182  0.74240  1.0000
  C   C1007     1.0  0.57908  0.13772  0.76021  1.0000
  C   C1008     1.0  0.59367  0.11642  0.73839  1.0000
  C   C1009     1.0  0.59572  0.14223  0.75599  1.0000
  C   C1010     1.0  0.60300  0.13164  0.74496  1.0000
  H   H1169     1.0  0.54885  0.14085  0.75216  1.0000
  H   H1170     1.0  0.53184  0.12590  0.76901  1.0000
  H   H1171     1.0  0.54916  0.13347  0.78859  1.0000
  H   H1172     1.0  0.54920  0.12258  0.71220  1.0000
  H   H1173     1.0  0.53120  0.10937  0.73044  1.0000
  H   H1174     1.0  0.54727  0.10208  0.72075  1.0000
  H   H1175     1.0  0.54870  0.09275  0.77001  1.0000
  H   H1176     1.0  0.55093  0.10625  0.79835  1.0000
  H   H1177     1.0  0.53245  0.09949  0.78125  1.0000
  H   H1178     1.0  0.57033  0.09997  0.73644  1.0000
  H   H1179     1.0  0.57430  0.14653  0.76894  1.0000
  H   H1180     1.0  0.59936  0.10820  0.72968  1.0000
  H   H1181     1.0  0.60299  0.15404  0.76133  1.0000
  H   H1182     1.0  0.61589  0.13520  0.74150  1.0000
  N   N65       1.0  0.65346  0.37074  0.91517  1.0000
  C   C1011     1.0  0.65561  0.38313  0.89173  1.0000
  C   C1012     1.0  0.66741  0.36473  0.91381  1.0000
  C   C1013     1.0  0.63852  0.35743  0.91201  1.0000
  C   C1014     1.0  0.62531  0.35330  0.93249  1.0000
  C   C1015     1.0  0.63675  0.34829  0.88754  1.0000
  C   C1016     1.0  0.56770  0.17950  0.94900  1.0000
  C   C1017     1.0  0.74175  0.21597  0.80184  1.0000
  C   C1018     1.0  0.72760  0.24451  0.89344  1.0000
  H   H1183     1.0  0.64542  0.38800  0.89223  1.0000
  H   H1184     1.0  0.66673  0.39336  0.89338  1.0000
  H   H1185     1.0  0.65642  0.37848  0.87037  1.0000
  H   H1186     1.0  0.66924  0.36014  0.89276  1.0000
  H   H1187     1.0  0.67877  0.37440  0.91717  1.0000
  H   H1188     1.0  0.68119  0.44643  0.82455  1.0000
  H   H1189     1.0  0.55915  0.44990  0.71287  1.0000
  H   H1190     1.0  0.64608  0.35096  0.87070  1.0000
  H   H1191     1.0  0.70938  0.43425  0.95889  1.0000
  C   C1019     1.0  0.51212  0.48948  0.66119  1.0000
  H   H1192     1.0  0.58995  0.20172  0.85448  1.0000
  N   N66       1.0  0.60731  0.12131  0.84733  1.0000
  C   C1020     1.0  0.60838  0.10516  0.84247  1.0000
  C   C1021     1.0  0.60711  0.12962  0.81933  1.0000
  C   C1022     1.0  0.62209  0.13048  0.86073  1.0000
  C   C1023     1.0  0.59247  0.11974  0.86481  1.0000
  C   C1024     1.0  0.59252  0.12528  0.89277  1.0000
  C   C1025     1.0  0.57730  0.11219  0.85412  1.0000
  C   C1026     1.0  0.57823  0.12358  0.90861  1.0000
  C   C1027     1.0  0.56310  0.11062  0.87013  1.0000
  C   C1028     1.0  0.56357  0.11641  0.89725  1.0000
  H   H1193     1.0  0.59832  0.09789  0.83048  1.0000
  H   H1194     1.0  0.61952  0.10583  0.82973  1.0000
  H   H1195     1.0  0.60833  0.09838  0.86300  1.0000
  H   H1196     1.0  0.61865  0.13210  0.80649  1.0000
  H   H1197     1.0  0.60492  0.14125  0.82208  1.0000
  H   H1198     1.0  0.59771  0.12246  0.80603  1.0000
  H   H1199     1.0  0.63303  0.13192  0.84680  1.0000
  H   H1200     1.0  0.62205  0.14280  0.86492  1.0000
  H   H1201     1.0  0.62368  0.12438  0.88104  1.0000
  H   H1202     1.0  0.60341  0.13132  0.90273  1.0000
  H   H1203     1.0  0.57631  0.10752  0.83321  1.0000
  H   H1204     1.0  0.57853  0.12824  0.92960  1.0000
  H   H1205     1.0  0.55163  0.10510  0.86138  1.0000
  H   H1206     1.0  0.55255  0.11552  0.90940  1.0000
  N   N67       1.0  0.56231  0.19375  0.94430  1.0000
  H   H1207     1.0  0.62189  0.49035  0.49922  1.0000
  H   H1208     1.0  0.56828  0.36241  0.83746  1.0000
  C   C1029     1.0  0.57033  0.01118  0.51908  1.0000
  C   C1030     1.0  0.56731  0.20195  0.91566  1.0000
  H   H1209     1.0  0.54622  0.00156  0.68385  1.0000
  C   C1031     1.0  0.57828  0.19809  0.89654  1.0000
  C   C1032     1.0  0.50483  0.32524  0.79657  1.0000
  C   C1033     1.0  0.58209  0.20541  0.86909  1.0000
  H   H1210     1.0  0.59082  0.03360  0.62801  1.0000
  C   C1034     1.0  0.56877  0.38304  0.72815  1.0000
  S   S285      1.0  0.50695  0.11029  0.81486  1.0000
  H   H1211     1.0  0.73341  0.48584  0.80100  1.0000
  Fe  Fe142     1.0  0.50525  0.38616  0.64027  1.0000
  H   H1212     1.0  0.69211  0.19670  0.77302  1.0000
  C   C1035     1.0  0.73528  0.47446  0.80548  1.0000
  C   C1036     1.0  0.58401  0.00124  0.69362  1.0000
  H   H1213     1.0  0.52032  0.29369  0.98432  1.0000
  H   H1214     1.0  0.57911  0.38354  0.76799  1.0000
  C   C1037     1.0  0.61606  0.48810  0.54466  1.0000
  H   H1215     1.0  0.49241  0.34208  0.80636  1.0000
  C   C1038     1.0  0.53520  0.40278  0.71323  1.0000
  C   C1039     1.0  0.55598  0.99684  0.68718  1.0000
  H   H1216     1.0  0.68447  0.43579  0.98299  1.0000
  H   H1217     1.0  0.56611  0.04232  0.62138  1.0000
  C   C1040     1.0  0.70307  0.20910  0.97428  1.0000
  C   C1041     1.0  0.58801  0.03835  0.51385  1.0000
  C   C1042     1.0  0.50791  0.07925  0.55210  1.0000
  H   H1218     1.0  0.50644  0.37999  0.51016  1.0000
  C   C1043     1.0  0.56271  0.46541  0.49248  1.0000
  C   C1044     1.0  0.57435  0.45704  0.53291  1.0000
  H   H1219     1.0  0.59539  0.04846  0.50025  1.0000
  Fe  Fe143     1.0  0.59884  0.48866  0.71031  1.0000
  H   H1220     1.0  0.59601  0.00927  0.69518  1.0000
  H   H1221     1.0  0.51807  0.38174  0.73391  1.0000
  H   H1222     1.0  0.49503  0.07289  0.54904  1.0000
  C   C1045     1.0  0.62273  0.33577  0.88391  1.0000
  N   N68       1.0  0.71670  0.20262  0.97447  1.0000
  H   H1223     1.0  0.52160  0.07520  0.50207  1.0000
  C   C1046     1.0  0.50798  0.32156  0.74584  1.0000
  N   N69       1.0  0.71158  0.20273  0.80098  1.0000
  H   H1224     1.0  0.51142  0.09005  0.53720  1.0000
  C   C1047     1.0  0.62154  0.07648  0.51244  1.0000
  H   H1225     1.0  0.50186  0.07975  0.79057  1.0000
  N   N70       1.0  0.57546  0.02850  0.59270  1.0000
  C   C1048     1.0  0.69347  0.44548  0.82316  1.0000
  H   H1226     1.0  0.54928  0.45038  0.74658  1.0000
  H   H1227     1.0  0.57840  0.22270  0.83879  1.0000
  H   H1228     1.0  0.69164  0.19963  0.98120  1.0000
  C   C1049     1.0  0.54267  0.07184  0.57583  1.0000
  H   H1229     1.0  0.57953  0.45114  0.77882  1.0000
  C   C1050     1.0  0.57992  0.02415  0.50177  1.0000
  C   C1051     1.0  0.70078  0.19870  0.82713  1.0000
  H   H1230     1.0  0.69844  0.21713  0.78197  1.0000
  H   H1231     1.0  0.51017  0.05631  0.58835  1.0000
  H   H1232     1.0  0.54775  0.41332  0.78952  1.0000
  H   H1233     1.0  0.57900  0.39249  0.71849  1.0000
  H   H1234     1.0  0.58027  0.36556  0.80514  1.0000
  H   H1235     1.0  0.69057  0.18756  0.82535  1.0000
  H   H1236     1.0  0.57413  0.43015  0.78701  1.0000
  C   C1052     1.0  0.55266  0.42148  0.74425  1.0000
  H   H1237     1.0  0.51212  0.31559  0.72899  1.0000
  C   C1053     1.0  0.51505  0.15165  0.98195  1.0000
  N   N71       1.0  0.56496  0.45129  0.50785  1.0000
  H   H1238     1.0  0.53199  0.34915  0.76094  1.0000
  C   C1054     1.0  0.63475  0.47756  0.76166  1.0000
  H   H1239     1.0  0.56458  0.21560  0.96520  1.0000
  H   H1240     1.0  0.52249  0.22482  0.81178  1.0000
  C   C1055     1.0  0.57561  0.21721  0.86023  1.0000
  H   H1241     1.0  0.69568  0.44116  0.84466  1.0000
  C   C1056     1.0  0.56542  0.01369  0.60902  1.0000
  C   C1057     1.0  0.61892  0.47372  0.77268  1.0000
  C   C1058     1.0  0.54747  0.41697  0.71682  1.0000
  H   H1242     1.0  0.70436  0.17777  0.79122  1.0000
  C   C1059     1.0  0.71467  0.19135  0.95129  1.0000
  H   H1243     1.0  0.56461  0.01553  0.63222  1.0000
  S   S286      1.0  0.50649  0.32029  0.83326  1.0000
  H   H1244     1.0  0.51730  0.04507  0.56266  1.0000
  H   H1245     1.0  0.50837  0.15405  0.96453  1.0000
  H   H1246     1.0  0.53811  0.09699  0.52192  1.0000
  N   N72       1.0  0.51801  0.06881  0.54741  1.0000
  H   H1247     1.0  0.56355  0.33993  0.78702  1.0000
  N   N73       1.0  0.56564  0.43664  0.74740  1.0000
  H   H1248     1.0  0.73365  0.22550  0.98289  1.0000
  C   C1060     1.0  0.52802  0.14607  0.97634  1.0000
  C   C1061     1.0  0.56557  0.22196  0.87900  1.0000
  H   H1249     1.0  0.73088  0.43031  0.98737  1.0000
  C   C1062     1.0  0.73174  0.21595  0.96753  1.0000
  H   H1250     1.0  0.53720  0.06080  0.58842  1.0000
  H   H1251     1.0  0.56545  0.07772  0.49393  1.0000
  H   H1252     1.0  0.56825  0.46328  0.54733  1.0000
  H   H1253     1.0  0.70736  0.19697  0.84598  1.0000
  C   C1063     1.0  0.55351  0.34186  0.79996  1.0000
  H   H1254     1.0  0.70816  0.47001  0.85584  1.0000
  C   C1064     1.0  0.56154  0.21456  0.90639  1.0000
  H   H1255     1.0  0.60130  0.33798  0.94419  1.0000
  H   H1256     1.0  0.54055  0.18158  0.96984  1.0000
  S   S287      1.0  0.57439  0.02841  0.68531  1.0000
  H   H1257     1.0  0.56993  0.46201  0.73922  1.0000
  H   H1258     1.0  0.49287  0.99977  0.63786  1.0000
  H   H1259     1.0  0.55378  0.21875  0.92012  1.0000
  C   C1065     1.0  0.49486  0.34038  0.76083  1.0000
  H   H1260     1.0  0.64399  0.38434  0.94409  1.0000
  C   C1066     1.0  0.51044  0.31790  0.77448  1.0000
  H   H1261     1.0  0.55274  0.42448  0.69786  1.0000
  H   H1262     1.0  0.54019  0.35652  0.83857  1.0000
  H   H1263     1.0  0.59908  0.32254  0.90121  1.0000
  H   H1264     1.0  0.59788  0.02434  0.59935  1.0000
  C   C1067     1.0  0.55539  0.36533  0.76974  1.0000
  H   H1265     1.0  0.58403  0.42600  0.73806  1.0000
  H   H1266     1.0  0.58625  0.46579  0.52643  1.0000
  H   H1267     1.0  0.72172  0.18401  0.81129  1.0000
  H   H1268     1.0  0.72897  0.20720  0.88151  1.0000
  C   C1068     1.0  0.70150  0.46613  0.78567  1.0000
  H   H1269     1.0  0.52631  0.38892  0.78217  1.0000
  C   C1069     1.0  0.64637  0.47388  0.77798  1.0000
  C   C1070     1.0  0.53470  0.07738  0.55397  1.0000
  H   H1270     1.0  0.71146  0.48529  0.82777  1.0000
  C   C1071     1.0  0.53238  0.39676  0.76398  1.0000
  H   H1271     1.0  0.58234  0.20981  0.96331  1.0000
  C   C1072     1.0  0.61012  0.33192  0.90454  1.0000
  C   C1073     1.0  0.72585  0.21654  0.80552  1.0000
  C   C1074     1.0  0.65363  0.37866  0.94243  1.0000
  H   H1272     1.0  0.53901  0.17975  0.93234  1.0000
  H   H1273     1.0  0.59296  0.05097  0.55163  1.0000
  C   C1075     1.0  0.56906  0.20512  0.96622  1.0000
  S   S288      1.0  0.50690  0.14678  0.87042  1.0000
  H   H1274     1.0  0.69541  0.20822  0.83196  1.0000
  H   H1275     1.0  0.50956  0.28744  0.83129  1.0000
  H   H1276     1.0  0.66510  0.38845  0.94429  1.0000
  H   H1277     1.0  0.62140  0.32927  0.86466  1.0000
  C   C1076     1.0  0.56881  0.01234  0.54860  1.0000
  H   H1278     1.0  0.49434  0.37150  0.55920  1.0000
  H   H1279     1.0  0.59936  0.04515  0.59606  1.0000
  C   C1077     1.0  0.56976  0.43962  0.77736  1.0000
  C   C1078     1.0  0.70422  0.47284  0.83469  1.0000
  C   C1079     1.0  0.54345  0.43402  0.54416  1.0000
  H   H1280     1.0  0.62518  0.35993  0.95120  1.0000
  H   H1281     1.0  0.62543  0.48306  0.54947  1.0000
  C   C1080     1.0  0.49371  0.37399  0.51337  1.0000
  H   H1282     1.0  0.56067  0.23128  0.87211  1.0000
  H   H1283     1.0  0.52498  0.05679  0.51276  1.0000
  H   H1284     1.0  0.72561  0.40855  0.88568  1.0000
  H   H1285     1.0  0.51200  0.27023  0.81483  1.0000
  C   C1081     1.0  0.58650  0.03968  0.54328  1.0000
  H   H1286     1.0  0.56174  0.04905  0.50385  1.0000
  H   H1287     1.0  0.71685  0.43455  0.82308  1.0000
  C   C1082     1.0  0.56927  0.36731  0.81496  1.0000
  C   C1083     1.0  0.57690  0.02671  0.56163  1.0000
  C   C1084     1.0  0.55879  0.10083  0.54575  1.0000
  H   H1288     1.0  0.71064  0.21035  0.75730  1.0000
  H   H1289     1.0  0.60279  0.46306  0.80909  1.0000
  H   H1290     1.0  0.56343  0.17076  0.93238  1.0000
  H   H1291     1.0  0.52457  0.49247  0.66625  1.0000
  C   C1085     1.0  0.72404  0.23119  0.81395  1.0000
  H   H1292     1.0  0.58095  0.18280  0.94904  1.0000
  H   H1293     1.0  0.57881  0.43604  0.70773  1.0000
  C   C1086     1.0  0.54335  0.09205  0.53885  1.0000
  H   H1294     1.0  0.50503  0.05795  0.51179  1.0000
  C   C1087     1.0  0.51744  0.06453  0.51725  1.0000
  C   C1088     1.0  0.72956  0.42145  0.88628  1.0000
  H   H1295     1.0  0.52929  0.35370  0.80751  1.0000
  C   C1089     1.0  0.58034  0.43646  0.73102  1.0000
  C   C1090     1.0  0.72588  0.44590  0.81736  1.0000
  H   H1296     1.0  0.57588  0.05321  0.58932  1.0000
  H   H1297     1.0  0.50863  0.08336  0.57421  1.0000
  H   H1298     1.0  0.58389  0.18926  0.90206  1.0000
  H   H1299     1.0  0.53934  0.19804  0.94799  1.0000
  C   C1091     1.0  0.57151  0.00750  0.68917  1.0000
  H   H1300     1.0  0.49571  0.12470  0.76530  1.0000
  H   H1301     1.0  0.50753  0.40650  0.53380  1.0000
  C   C1092     1.0  0.52419  0.42040  0.50041  1.0000
  H   H1302     1.0  0.57776  0.10238  0.57392  1.0000
  H   H1303     1.0  0.73179  0.22184  0.94608  1.0000
  C   C1093     1.0  0.52762  0.39273  0.73677  1.0000
  H   H1304     1.0  0.70454  0.21917  0.98839  1.0000
  C   C1094     1.0  0.53900  0.43207  0.49384  1.0000
  H   H1305     1.0  0.55288  0.00991  0.60251  1.0000
  H   H1306     1.0  0.49626  0.32738  0.49460  1.0000
  C   C1095     1.0  0.74002  0.45471  0.88697  1.0000
  S   S289      1.0  0.49718  0.33664  0.70217  1.0000
  C   C1096     1.0  0.49698  0.33644  0.78950  1.0000
  H   H1307     1.0  0.57615  0.43339  0.49922  1.0000
  H   H1308     1.0  0.49418  0.44200  0.65112  1.0000
  C   C1097     1.0  0.49823  0.08720  0.77520  1.0000
  H   H1309     1.0  0.49257  0.21966  0.88249  1.0000
  H   H1310     1.0  0.73562  0.25526  0.82595  1.0000
  H   H1311     1.0  0.49816  0.04773  0.56041  1.0000
  H   H1312     1.0  0.49690  0.00242  0.67446  1.0000
  H   H1313     1.0  0.56588  0.19934  0.98812  1.0000
  C   C1098     1.0  0.73728  0.24436  0.81860  1.0000
  H   H1314     1.0  0.56125  0.00181  0.56074  1.0000
  H   H1315     1.0  0.56409  0.00014  0.50951  1.0000
  C   C1099     1.0  0.60658  0.49117  0.56710  1.0000
  C   C1100     1.0  0.61397  0.49209  0.51608  1.0000
  C   C1101     1.0  0.74171  0.44582  0.81657  1.0000
  C   C1102     1.0  0.57472  0.44443  0.48897  1.0000
  S   S290      1.0  0.50473  0.89103  0.42160  1.0000
  C   C1103     1.0  0.53108  0.86750  0.26053  1.0000
  C   C1104     1.0  0.50225  0.69730  0.26653  1.0000
  H   H1316     1.0  0.50954  0.67488  0.24055  1.0000
  C   C1105     1.0  0.53844  0.87880  0.27977  1.0000
  H   H1317     1.0  0.56752  0.58631  0.42957  1.0000
  Fe  Fe144     1.0  0.50908  0.56461  0.39484  1.0000
  S   S291      1.0  0.51437  0.54177  0.38495  1.0000
  C   C1106     1.0  0.49753  0.70639  0.21798  1.0000
  S   S292      1.0  0.52475  0.59004  0.39595  1.0000
  H   H1318     1.0  0.56342  0.89613  0.31200  1.0000
  C   C1107     1.0  0.56571  0.55564  0.44921  1.0000
  C   C1108     1.0  0.52436  0.87203  0.23671  1.0000
  C   C1109     1.0  0.56123  0.98963  0.41556  1.0000
  S   S293      1.0  0.51266  0.87306  0.34846  1.0000
  H   H1319     1.0  0.54722  0.58447  0.43885  1.0000
  H   H1320     1.0  0.53165  0.57780  0.31279  1.0000
  C   C1110     1.0  0.52054  0.56733  0.31531  1.0000
  S   S294      1.0  0.57918  0.52729  0.35673  1.0000
  S   S295      1.0  0.61030  0.51004  0.38945  1.0000
  Fe  Fe145     1.0  0.52818  0.90604  0.43677  1.0000
  S   S296      1.0  0.52373  0.92957  0.43000  1.0000
  S   S297      1.0  0.53884  0.90097  0.47797  1.0000
  Fe  Fe146     1.0  0.51640  0.89461  0.37704  1.0000
  S   S298      1.0  0.51126  0.91766  0.36669  1.0000
  H   H1321     1.0  0.53450  0.54755  0.43942  1.0000
  Fe  Fe147     1.0  0.53455  0.93041  0.38582  1.0000
  S   S299      1.0  0.55314  0.95226  0.36338  1.0000
  H   H1322     1.0  0.56906  0.91599  0.26970  1.0000
  S   S300      1.0  0.54064  0.90761  0.39326  1.0000
  H   H1323     1.0  0.52455  0.90447  0.31810  1.0000
  C   C1111     1.0  0.55997  0.92065  0.28007  1.0000
  C   C1112     1.0  0.55987  0.97160  0.37725  1.0000
  C   C1113     1.0  0.57126  0.98420  0.36111  1.0000
  C   C1114     1.0  0.52504  0.88792  0.23187  1.0000
  H   H1324     1.0  0.50008  0.58740  0.27799  1.0000
  C   C1115     1.0  0.50617  0.58409  0.29629  1.0000
  H   H1325     1.0  0.59317  0.55141  0.39857  1.0000
  C   C1116     1.0  0.49570  0.87284  0.29899  1.0000
  C   C1117     1.0  0.49607  0.49629  0.35859  1.0000
  C   C1118     1.0  0.49340  0.71656  0.17047  1.0000
  C   C1119     1.0  0.50744  0.63971  0.26602  1.0000
  H   H1326     1.0  0.52775  0.57742  0.26138  1.0000
  S   S301      1.0  0.49320  0.59863  0.42183  1.0000
  C   C1120     1.0  0.50087  0.72228  0.22690  1.0000
  H   H1327     1.0  0.54276  0.87426  0.29835  1.0000
  C   C1121     1.0  0.53943  0.89516  0.27538  1.0000
  C   C1122     1.0  0.55405  0.90126  0.31955  1.0000
  H   H1328     1.0  0.49627  0.88498  0.30293  1.0000
  N   N74       1.0  0.54698  0.90748  0.29537  1.0000
  Fe  Fe148     1.0  0.58498  0.50613  0.37729  1.0000
  S   S302      1.0  0.49833  0.56399  0.43891  1.0000
  H   H1329     1.0  0.57804  0.52547  0.47909  1.0000
  C   C1123     1.0  0.58071  0.96412  0.46610  1.0000
  H   H1330     1.0  0.50067  0.53974  0.32929  1.0000
  H   H1331     1.0  0.55047  0.50973  0.39182  1.0000
  C   C1124     1.0  0.58765  0.97254  0.43985  1.0000
  H   H1332     1.0  0.56618  0.92988  0.29478  1.0000
  H   H1333     1.0  0.55976  0.91085  0.33399  1.0000
  C   C1125     1.0  0.50233  0.86437  0.31805  1.0000
  S   S303      1.0  0.52653  0.59376  0.47933  1.0000
  Fe  Fe149     1.0  0.59898  0.49734  0.43161  1.0000
  H   H1334     1.0  0.54574  0.96507  0.41688  1.0000
  H   H1335     1.0  0.55549  0.92709  0.26327  1.0000
  C   C1126     1.0  0.53338  0.53918  0.38075  1.0000
  C   C1127     1.0  0.54608  0.55040  0.36498  1.0000
  C   C1128     1.0  0.56017  0.54670  0.35813  1.0000
  C   C1129     1.0  0.56179  0.53196  0.36754  1.0000
  C   C1130     1.0  0.54937  0.52111  0.38447  1.0000
  C   C1131     1.0  0.53518  0.52466  0.39082  1.0000
  H   H1336     1.0  0.54481  0.56159  0.35697  1.0000
  H   H1337     1.0  0.56977  0.55516  0.34507  1.0000
  H   H1338     1.0  0.53004  0.85500  0.26468  1.0000
  H   H1339     1.0  0.52537  0.51589  0.40293  1.0000
  C   C1132     1.0  0.53483  0.91418  0.30752  1.0000
  C   C1133     1.0  0.56688  0.54353  0.46912  1.0000
  Fe  Fe150     1.0  0.50117  0.91474  0.41195  1.0000
  N   N75       1.0  0.55475  0.56496  0.45561  1.0000
  C   C1134     1.0  0.55897  0.57309  0.48249  1.0000
  C   C1135     1.0  0.58601  0.54947  0.41855  1.0000
  H   H1340     1.0  0.59482  0.53078  0.43421  1.0000
  H   H1341     1.0  0.55752  0.99154  0.43694  1.0000
  H   H1342     1.0  0.50827  0.56926  0.24831  1.0000
  C   C1136     1.0  0.57557  0.55829  0.42358  1.0000
  H   H1343     1.0  0.49377  0.70255  0.27741  1.0000
  H   H1344     1.0  0.57169  0.58081  0.48118  1.0000
  H   H1345     1.0  0.67148  0.50019  0.03893  1.0000
  H   H1346     1.0  0.52490  0.63788  0.29529  1.0000
  H   H1347     1.0  0.51950  0.89129  0.21356  1.0000
  H   H1348     1.0  0.56225  0.94626  0.42475  1.0000
  H   H1349     1.0  0.53986  0.92304  0.32363  1.0000
  H   H1350     1.0  0.52997  0.92050  0.29112  1.0000
  H   H1351     1.0  0.50228  0.68673  0.28041  1.0000
  C   C1137     1.0  0.55534  0.57748  0.43305  1.0000
  C   C1138     1.0  0.50148  0.84858  0.31211  1.0000
  C   C1139     1.0  0.55383  0.94704  0.47939  1.0000
  H   H1352     1.0  0.51455  0.70600  0.26596  1.0000
  C   C1140     1.0  0.49377  0.70394  0.18917  1.0000
  H   H1353     1.0  0.57529  0.56690  0.40676  1.0000
  N   N76       1.0  0.56986  0.94740  0.46789  1.0000
  S   S304      1.0  0.60224  0.50819  0.47508  1.0000
  C   C1141     1.0  0.58689  0.53775  0.43854  1.0000
  H   H1354     1.0  0.53616  0.54499  0.47700  1.0000
  C   C1142     1.0  0.50865  0.68470  0.22566  1.0000
  H   H1355     1.0  0.51817  0.86308  0.22245  1.0000
  H   H1356     1.0  0.51619  0.64859  0.25211  1.0000
  C   C1143     1.0  0.50158  0.62199  0.30919  1.0000
  H   H1357     1.0  0.49882  0.58429  0.31596  1.0000
  H   H1358     1.0  0.50468  0.67887  0.20559  1.0000
  C   C1144     1.0  0.49439  0.84143  0.28752  1.0000
  C   C1145     1.0  0.55465  0.97453  0.40436  1.0000
  C   C1146     1.0  0.59737  0.98852  0.43896  1.0000
  Fe  Fe151     1.0  0.50405  0.59678  0.37805  1.0000
  N   N77       1.0  0.50880  0.56831  0.29414  1.0000
  H   H1359     1.0  0.53246  0.91147  0.24636  1.0000
  C   C1147     1.0  0.53246  0.89936  0.25083  1.0000
  Fe  Fe152     1.0  0.51256  0.58980  0.43933  1.0000
  H   H1360     1.0  0.52442  0.55654  0.31318  1.0000
  H   H1361     1.0  0.54477  0.89191  0.33306  1.0000
  N   N78       1.0  0.49746  0.69271  0.23746  1.0000
  H   H1362     1.0  0.49589  0.74163  0.16563  1.0000
  C   C1148     1.0  0.49671  0.73196  0.17987  1.0000
  H   H1363     1.0  0.51758  0.59411  0.29696  1.0000
  H   H1364     1.0  0.51823  0.55607  0.26286  1.0000
  H   H1365     1.0  0.57536  0.98214  0.34008  1.0000
  H   H1366     1.0  0.62215  0.54469  0.48070  1.0000
  H   H1367     1.0  0.50245  0.74675  0.21538  1.0000
  H   H1368     1.0  0.55140  0.57214  0.41254  1.0000
  H   H1369     1.0  0.51552  0.56706  0.33747  1.0000
  C   C1149     1.0  0.53803  0.55409  0.45905  1.0000
  C   C1150     1.0  0.57735  0.53477  0.46379  1.0000
  H   H1370     1.0  0.58544  0.96725  0.41954  1.0000
  H   H1371     1.0  0.52160  0.50302  0.35088  1.0000
  C   C1151     1.0  0.51242  0.63356  0.29061  1.0000
  C   C1152     1.0  0.49340  0.55516  0.29829  1.0000
  S   S305      1.0  0.50951  0.61511  0.33978  1.0000
  C   C1153     1.0  0.51608  0.56775  0.26541  1.0000
  H   H1372     1.0  0.52086  0.69334  0.22122  1.0000
  H   H1373     1.0  0.50655  0.84185  0.32653  1.0000
  H   H1374     1.0  0.52946  0.56082  0.46336  1.0000
  H   H1375     1.0  0.54907  0.95511  0.46624  1.0000
  H   H1376     1.0  0.50355  0.72534  0.24845  1.0000
  C   C1154     1.0  0.50043  0.73481  0.20799  1.0000
  H   H1377     1.0  0.54506  0.93482  0.47964  1.0000
  H   H1378     1.0  0.55994  0.92730  0.44218  1.0000
  C   C1155     1.0  0.56788  0.93996  0.43997  1.0000
  H   H1379     1.0  0.65901  0.49998  0.13556  1.0000
  H   H1380     1.0  0.57951  0.93977  0.43013  1.0000
  H   H1381     1.0  0.66756  0.49816  0.09044  1.0000
  H   H1382     1.0  0.49622  0.50844  0.36203  1.0000
  H   H1383     1.0  0.63173  0.49945  0.12523  1.0000
  H   H1384     1.0  0.49409  0.82937  0.28331  1.0000
  H   H1385     1.0  0.60213  0.99488  0.41862  1.0000
  H   H1386     1.0  0.58847  0.93791  0.48014  1.0000
  C   C1156     1.0  0.57608  0.93729  0.48723  1.0000
  H   H1387     1.0  0.56855  0.92447  0.48796  1.0000
  H   H1388     1.0  0.55152  0.58090  0.48727  1.0000
  Fe  Fe153     1.0  0.50149  0.59500  0.64448  1.0000
  H   H1389     1.0  0.55962  0.54066  0.48888  1.0000
  C   C1157     1.0  0.53120  0.90517  0.51128  1.0000
  Fe  Fe154     1.0  0.50180  0.59629  0.71015  1.0000
  H   H1390     1.0  0.62603  0.53751  0.61021  1.0000
  H   H1391     1.0  0.50193  0.97476  0.64050  1.0000
  Fe  Fe155     1.0  0.50935  0.56887  0.67965  1.0000
  S   S306      1.0  0.51921  0.54800  0.68490  1.0000
  H   H1392     1.0  0.55389  0.95063  0.50172  1.0000
  S   S307      1.0  0.52053  0.59572  0.67576  1.0000
  H   H1393     1.0  0.51169  0.57088  0.76678  1.0000
  Fe  Fe156     1.0  0.58962  0.51603  0.67905  1.0000
  H   H1394     1.0  0.55042  0.59221  0.72939  1.0000
  S   S308      1.0  0.58915  0.54166  0.67757  1.0000
  Fe  Fe157     1.0  0.50170  0.92535  0.69692  1.0000
  C   C1158     1.0  0.50600  0.50155  0.65225  1.0000
  H   H1395     1.0  0.54808  0.89771  0.53551  1.0000
  H   H1396     1.0  0.58700  0.49990  0.57754  1.0000
  H   H1397     1.0  0.49583  0.83080  0.80222  1.0000
  C   C1159     1.0  0.55550  0.87812  0.82565  1.0000
  H   H1398     1.0  0.50333  0.60947  0.49707  1.0000
  Fe  Fe158     1.0  0.51759  0.91628  0.64422  1.0000
  S   S309      1.0  0.51976  0.93984  0.66325  1.0000
  S   S310      1.0  0.51135  0.91627  0.59750  1.0000
  Fe  Fe159     1.0  0.51716  0.89948  0.70454  1.0000
  S   S311      1.0  0.51972  0.92215  0.72661  1.0000
  C   C1160     1.0  0.60242  0.49932  0.50959  1.0000
  C   C1161     1.0  0.51858  0.59667  0.51318  1.0000
  Fe  Fe160     1.0  0.53776  0.93462  0.69084  1.0000
  S   S312      1.0  0.56184  0.95283  0.69874  1.0000
  H   H1399     1.0  0.58020  0.88904  0.83371  1.0000
  S   S313      1.0  0.53674  0.91160  0.67024  1.0000
  H   H1400     1.0  0.51532  0.55600  0.74539  1.0000
  C   C1162     1.0  0.56534  0.97385  0.69453  1.0000
  C   C1163     1.0  0.58090  0.98449  0.69643  1.0000
  C   C1164     1.0  0.59453  0.49772  0.56054  1.0000
  C   C1165     1.0  0.61107  0.54401  0.56247  1.0000
  N   N79       1.0  0.56199  0.91699  0.76242  1.0000
  C   C1166     1.0  0.55291  0.98014  0.68973  1.0000
  H   H1401     1.0  0.59062  0.97977  0.70015  1.0000
  C   C1167     1.0  0.58422  0.97267  0.49117  1.0000
  H   H1402     1.0  0.55931  0.92012  0.71735  1.0000
  H   H1403     1.0  0.54087  0.97215  0.68842  1.0000
  C   C1168     1.0  0.51970  0.91218  0.56477  1.0000
  C   C1169     1.0  0.51287  0.91500  0.53945  1.0000
  H   H1404     1.0  0.58282  0.93432  0.77760  1.0000
  H   H1405     1.0  0.60479  0.56003  0.49780  1.0000
  C   C1170     1.0  0.53252  0.90603  0.56319  1.0000
  H   H1406     1.0  0.54833  0.52473  0.75168  1.0000
  H   H1407     1.0  0.51298  0.91357  0.49371  1.0000
  H   H1408     1.0  0.53789  0.90377  0.58248  1.0000
  H   H1409     1.0  0.58702  0.92176  0.75071  1.0000
  H   H1410     1.0  0.49475  0.96073  0.67068  1.0000
  C   C1171     1.0  0.50748  0.60496  0.51593  1.0000
  C   C1172     1.0  0.50359  0.85053  0.77014  1.0000
  C   C1173     1.0  0.52404  0.59111  0.53794  1.0000
  C   C1174     1.0  0.49724  0.84329  0.79736  1.0000
  C   C1175     1.0  0.57278  0.90245  0.80068  1.0000
  C   C1176     1.0  0.56436  0.57096  0.75217  1.0000
  H   H1411     1.0  0.60885  0.53309  0.63418  1.0000
  C   C1177     1.0  0.55710  0.91045  0.73451  1.0000
  N   N80       1.0  0.53665  0.57301  0.75946  1.0000
  C   C1178     1.0  0.56013  0.90370  0.78399  1.0000
  H   H1412     1.0  0.58460  0.91109  0.79836  1.0000
  C   C1179     1.0  0.50244  0.60822  0.54315  1.0000
  C   C1180     1.0  0.51852  0.91147  0.51291  1.0000
  H   H1413     1.0  0.51742  0.55504  0.78348  1.0000
  H   H1414     1.0  0.54045  0.57555  0.80405  1.0000
  H   H1415     1.0  0.58765  0.56819  0.74475  1.0000
  H   H1416     1.0  0.56942  0.58384  0.75141  1.0000
  C   C1181     1.0  0.50582  0.86685  0.76329  1.0000
  H   H1417     1.0  0.58247  0.54509  0.58680  1.0000
  C   C1182     1.0  0.49418  0.61620  0.77316  1.0000
  C   C1183     1.0  0.54759  0.56334  0.75605  1.0000
  H   H1418     1.0  0.62599  0.52816  0.56539  1.0000
  C   C1184     1.0  0.53889  0.54690  0.68132  1.0000
  C   C1185     1.0  0.54096  0.53181  0.68523  1.0000
  C   C1186     1.0  0.55627  0.53011  0.68328  1.0000
  C   C1187     1.0  0.56977  0.54358  0.67811  1.0000
  C   C1188     1.0  0.56778  0.55873  0.67407  1.0000
  C   C1189     1.0  0.55237  0.56039  0.67543  1.0000
  H   H1419     1.0  0.53067  0.52136  0.69036  1.0000
  H   H1420     1.0  0.55761  0.51839  0.68662  1.0000
  H   H1421     1.0  0.57818  0.56921  0.67009  1.0000
  H   H1422     1.0  0.55095  0.57207  0.67219  1.0000
  C   C1190     1.0  0.50797  0.60278  0.56793  1.0000
  C   C1191     1.0  0.51857  0.59392  0.56521  1.0000
  C   C1192     1.0  0.61273  0.53318  0.61135  1.0000
  C   C1193     1.0  0.55165  0.92653  0.77150  1.0000
  H   H1423     1.0  0.50420  0.61328  0.81319  1.0000
  C   C1194     1.0  0.49555  0.86869  0.81166  1.0000
  H   H1424     1.0  0.58426  0.53564  0.61990  1.0000
  C   C1195     1.0  0.54288  0.87903  0.80969  1.0000
  H   H1425     1.0  0.53268  0.58477  0.53607  1.0000
  C   C1196     1.0  0.54511  0.89161  0.78923  1.0000
  H   H1426     1.0  0.52996  0.59097  0.73518  1.0000
  C   C1197     1.0  0.58843  0.53708  0.59699  1.0000
  H   H1427     1.0  0.60840  0.55969  0.62682  1.0000
  S   S314      1.0  0.51465  0.87544  0.72890  1.0000
  H   H1428     1.0  0.55502  0.93174  0.79231  1.0000
  H   H1429     1.0  0.52955  0.53946  0.75759  1.0000
  H   H1430     1.0  0.59768  0.55978  0.54870  1.0000
  H   H1431     1.0  0.62479  0.56516  0.60032  1.0000
  C   C1198     1.0  0.60542  0.55303  0.54217  1.0000
  C   C1199     1.0  0.53819  0.58365  0.73354  1.0000
  H   H1432     1.0  0.53124  0.86994  0.81317  1.0000
  S   S315      1.0  0.49809  0.90214  0.67631  1.0000
  S   S316      1.0  0.50206  0.60818  0.60152  1.0000
  H   H1433     1.0  0.50313  0.91997  0.54032  1.0000
  H   H1434     1.0  0.55255  0.93662  0.75567  1.0000
  C   C1200     1.0  0.54084  0.58306  0.78423  1.0000
  H   H1435     1.0  0.56377  0.90223  0.72794  1.0000
  C   C1201     1.0  0.61936  0.54484  0.50334  1.0000
  H   H1436     1.0  0.57948  0.93780  0.74123  1.0000
  C   C1202     1.0  0.57042  0.88980  0.82117  1.0000
  H   H1437     1.0  0.53525  0.57652  0.71443  1.0000
  H   H1438     1.0  0.54415  0.90363  0.73473  1.0000
  H   H1439     1.0  0.53492  0.89181  0.77749  1.0000
  H   H1440     1.0  0.60865  0.52050  0.60543  1.0000
  H   H1441     1.0  0.55705  0.56451  0.50128  1.0000
  C   C1203     1.0  0.57492  0.56214  0.74847  1.0000
  S   S317      1.0  0.61178  0.50834  0.67693  1.0000
  S   S318      1.0  0.50622  0.60668  0.75402  1.0000
  H   H1442     1.0  0.50322  0.88840  0.77954  1.0000
  H   H1443     1.0  0.52303  0.58979  0.58410  1.0000
  C   C1204     1.0  0.55278  0.53765  0.75249  1.0000
  H   H1444     1.0  0.59651  0.99496  0.50938  1.0000
  C   C1205     1.0  0.56915  0.54552  0.74870  1.0000
  C   C1206     1.0  0.51955  0.56323  0.76404  1.0000
  H   H1445     1.0  0.53883  0.91922  0.77405  1.0000
  H   H1446     1.0  0.49438  0.61524  0.54504  1.0000
  H   H1447     1.0  0.60604  0.56800  0.59280  1.0000
  C   C1207     1.0  0.50157  0.87584  0.78424  1.0000
  H   H1448     1.0  0.55368  0.86835  0.84156  1.0000
  H   H1449     1.0  0.53244  0.59008  0.78781  1.0000
  C   C1208     1.0  0.62130  0.53561  0.55183  1.0000
  N   N81       1.0  0.60612  0.54344  0.59307  1.0000
  C   C1209     1.0  0.61158  0.55979  0.60359  1.0000
  C   C1210     1.0  0.54208  0.54634  0.75592  1.0000
  C   C1211     1.0  0.60947  0.55334  0.51304  1.0000
  C   C1212     1.0  0.49707  0.97341  0.66299  1.0000
  H   H1450     1.0  0.58378  0.52515  0.58800  1.0000
  H   H1451     1.0  0.55297  0.59199  0.78127  1.0000
  C   C1213     1.0  0.53825  0.90258  0.53652  1.0000
  H   H1452     1.0  0.57733  0.53874  0.74497  1.0000
  C   C1214     1.0  0.57860  0.92812  0.75796  1.0000
  C   C1215     1.0  0.62535  0.53612  0.52269  1.0000
  H   H1453     1.0  0.63271  0.52918  0.51489  1.0000
  H   H1454     1.0  0.50669  0.98056  0.67608  1.0000
  H   H1455     1.0  0.57927  0.96708  0.51185  1.0000
  H   H1456     1.0  0.51358  0.51394  0.65042  1.0000
  H   H1457     1.0  0.58392  0.50791  0.52730  1.0000
  C   C1216     1.0  0.59264  0.50200  0.53198  1.0000
  S   S319      1.0  0.57784  0.49805  0.71469  1.0000
  H   H1458     1.0  0.50694  0.84344  0.75431  1.0000
  C   C1217     1.0  0.49582  0.61794  0.80259  1.0000
  H   H1459     1.0  0.57617  0.94076  0.50963  1.0000
  S   S320      1.0  0.57767  0.50073  0.64448  1.0000
  C   C1218     1.0  0.49322  0.85233  0.81844  1.0000
  C   C1219     1.0  0.59401  0.98864  0.49000  1.0000
  H   H1460     1.0  0.49265  0.87589  0.82777  1.0000
  Fe  Fe161     1.0  0.92207  0.47985  0.39313  1.0000
  S   S321      1.0  0.92182  0.45626  0.41310  1.0000
  C   C1220     1.0  0.88721  0.45002  0.46006  1.0000
  Fe  Fe162     1.0  0.92315  0.38250  0.35348  1.0000
  S   S322      1.0  0.92803  0.36216  0.33226  1.0000
  S   S323      1.0  0.92464  0.40466  0.32700  1.0000
  Fe  Fe163     1.0  0.91530  0.36504  0.41262  1.0000
  S   S324      1.0  0.91923  0.34308  0.39528  1.0000
  S   S325      1.0  0.90599  0.36872  0.45728  1.0000
  Fe  Fe164     1.0  0.94116  0.36061  0.37183  1.0000
  S   S326      1.0  0.96584  0.35763  0.37132  1.0000
  Fe  Fe165     1.0  0.90564  0.34691  0.35705  1.0000
  S   S327      1.0  0.88333  0.32837  0.34104  1.0000
  S   S328      1.0  0.93785  0.38215  0.39114  1.0000
  S   S329      1.0  0.90028  0.36770  0.37626  1.0000
  Fe  Fe166     1.0  0.83252  0.30496  0.19694  1.0000
  S   S330      1.0  0.80940  0.29473  0.22322  1.0000
  S   S331      1.0  0.85728  0.31449  0.21567  1.0000
  Fe  Fe167     1.0  0.81474  0.30641  0.14104  1.0000
  S   S332      1.0  0.79062  0.29699  0.16476  1.0000
  S   S333      1.0  0.81280  0.31526  0.09528  1.0000
  Fe  Fe168     1.0  0.80165  0.31312  0.19887  1.0000
  S   S334      1.0  0.79077  0.32930  0.22216  1.0000
  Fe  Fe169     1.0  0.80040  0.27928  0.18647  1.0000
  S   S335      1.0  0.78588  0.25273  0.19363  1.0000
  S   S336      1.0  0.82492  0.32403  0.17390  1.0000
  S   S337      1.0  0.82435  0.28791  0.16142  1.0000
  Fe  Fe170     1.0  0.82732  0.44656  0.19645  1.0000
  S   S338      1.0  0.80454  0.42590  0.20569  1.0000
  S   S339      1.0  0.84622  0.45197  0.23067  1.0000
  Fe  Fe171     1.0  0.81828  0.45090  0.13381  1.0000
  S   S340      1.0  0.79475  0.43132  0.13985  1.0000
  S   S341      1.0  0.82820  0.46452  0.09116  1.0000
  Fe  Fe172     1.0  0.79218  0.44123  0.18247  1.0000
  S   S342      1.0  0.77051  0.44554  0.20517  1.0000
  Fe  Fe173     1.0  0.80894  0.41779  0.16242  1.0000
  S   S343      1.0  0.80872  0.39402  0.14606  1.0000
  S   S344      1.0  0.81484  0.46227  0.17487  1.0000
  S   S345      1.0  0.83256  0.43701  0.15470  1.0000
  C   C1221     1.0  0.81103  0.43247  0.03051  1.0000
  C   C1222     1.0  0.81409  0.43944  0.05695  1.0000
  C   C1223     1.0  0.82353  0.45545  0.05801  1.0000
  C   C1224     1.0  0.82962  0.46439  0.03213  1.0000
  C   C1225     1.0  0.81136  0.38492  0.00177  1.0000
  H   H1461     1.0  0.76279  0.26213  0.15942  1.0000
  C   C1226     1.0  0.74284  0.21801  0.18849  1.0000
  C   C1227     1.0  0.88174  0.48998  0.18200  1.0000
  H   H1462     1.0  0.82039  0.46975  0.23773  1.0000
  C   C1228     1.0  0.97990  0.46207  0.38183  1.0000
  H   H1463     1.0  0.75567  0.42921  0.15549  1.0000
  C   C1229     1.0  0.79472  0.34730  0.20139  1.0000
  C   C1230     1.0  0.79452  0.36144  0.21380  1.0000
  C   C1231     1.0  0.79869  0.37598  0.19711  1.0000
  C   C1232     1.0  0.80291  0.37628  0.16802  1.0000
  C   C1233     1.0  0.80281  0.36206  0.15575  1.0000
  C   C1234     1.0  0.79874  0.34765  0.17232  1.0000
  H   H1464     1.0  0.79135  0.36119  0.23630  1.0000
  H   H1465     1.0  0.79865  0.38690  0.20668  1.0000
  H   H1466     1.0  0.80587  0.36214  0.13329  1.0000
  H   H1467     1.0  0.79862  0.33678  0.16242  1.0000
  C   C1235     1.0  0.81674  0.30856  0.06142  1.0000
  C   C1236     1.0  0.82640  0.29880  0.05771  1.0000
  C   C1237     1.0  0.88820  0.48135  0.20174  1.0000
  H   H1468     1.0  0.77686  0.26870  0.10842  1.0000
  H   H1469     1.0  0.80283  0.24204  0.00437  1.0000
  C   C1238     1.0  0.81021  0.31358  0.03740  1.0000
  H   H1470     1.0  0.83183  0.29517  0.07582  1.0000
  H   H1471     1.0  0.91487  0.47391  0.46163  1.0000
  H   H1472     1.0  0.81337  0.24667  0.09673  1.0000
  H   H1473     1.0  0.80269  0.32110  0.03999  1.0000
  C   C1239     1.0  0.76593  0.24257  0.18486  1.0000
  C   C1240     1.0  0.75856  0.22660  0.19520  1.0000
  H   H1474     1.0  0.97572  0.48222  0.41989  1.0000
  H   H1475     1.0  0.88058  0.36241  0.30723  1.0000
  C   C1241     1.0  0.79839  0.24966  0.01764  1.0000
  H   H1476     1.0  0.78492  0.23041  0.09791  1.0000
  H   H1477     1.0  0.76503  0.22080  0.20860  1.0000
  C   C1242     1.0  0.86882  0.39319  0.28119  1.0000
  C   C1243     1.0  0.98564  0.43884  0.31215  1.0000
  H   H1478     1.0  0.85114  0.48587  0.24313  1.0000
  C   C1244     1.0  0.87624  0.32511  0.30590  1.0000
  C   C1245     1.0  0.86018  0.31598  0.30279  1.0000
  C   C1246     1.0  0.85412  0.31273  0.27555  1.0000
  C   C1247     1.0  0.86412  0.31831  0.25084  1.0000
  C   C1248     1.0  0.88018  0.32743  0.25396  1.0000
  C   C1249     1.0  0.88616  0.33094  0.28118  1.0000
  H   H1479     1.0  0.85235  0.31130  0.32161  1.0000
  H   H1480     1.0  0.84178  0.30563  0.27371  1.0000
  H   H1481     1.0  0.88810  0.33180  0.23513  1.0000
  H   H1482     1.0  0.89855  0.33787  0.28299  1.0000
  N   N82       1.0  0.97217  0.40983  0.30366  1.0000
  H   H1483     1.0  0.84824  0.47688  0.14482  1.0000
  C   C1250     1.0  0.79316  0.25818  0.06513  1.0000
  C   C1251     1.0  0.85825  0.46534  0.25487  1.0000
  C   C1252     1.0  0.86801  0.45976  0.27282  1.0000
  C   C1253     1.0  0.87775  0.46979  0.29220  1.0000
  H   H1484     1.0  0.80257  0.39188  0.08482  1.0000
  H   H1485     1.0  0.86806  0.44754  0.27178  1.0000
  H   H1486     1.0  0.88512  0.46521  0.30572  1.0000
  C   C1254     1.0  0.92139  0.44185  0.38864  1.0000
  C   C1255     1.0  0.91986  0.42630  0.39880  1.0000
  C   C1256     1.0  0.92041  0.41476  0.37970  1.0000
  C   C1257     1.0  0.92283  0.41885  0.35047  1.0000
  C   C1258     1.0  0.92425  0.43437  0.34022  1.0000
  C   C1259     1.0  0.92339  0.44586  0.35935  1.0000
  H   H1487     1.0  0.91822  0.42313  0.42144  1.0000
  H   H1488     1.0  0.91886  0.40270  0.38772  1.0000
  H   H1489     1.0  0.92596  0.43751  0.31757  1.0000
  H   H1490     1.0  0.92439  0.45778  0.35138  1.0000
  C   C1260     1.0  0.81326  0.30891  0.00999  1.0000
  C   C1261     1.0  0.85844  0.48123  0.25667  1.0000
  H   H1491     1.0  0.97556  0.38791  0.44436  1.0000
  N   N83       1.0  0.81708  0.38442  0.05369  1.0000
  C   C1262     1.0  0.84156  0.48169  0.33116  1.0000
  N   N84       1.0  0.79354  0.25629  0.09651  1.0000
  C   C1263     1.0  0.87670  0.38497  0.29793  1.0000
  C   C1264     1.0  0.76547  0.28089  0.22895  1.0000
  C   C1265     1.0  0.80980  0.25684  0.10446  1.0000
  C   C1266     1.0  0.96163  0.41366  0.28266  1.0000
  H   H1492     1.0  0.78405  0.27876  0.06282  1.0000
  C   C1267     1.0  0.75742  0.24985  0.16746  1.0000
  H   H1493     1.0  0.81011  0.48348  0.24797  1.0000
  C   C1268     1.0  0.78933  0.26894  0.11175  1.0000
  C   C1269     1.0  0.78864  0.46304  0.28541  1.0000
  H   H1494     1.0  0.84339  0.29901  0.46470  1.0000
  H   H1495     1.0  0.82378  0.38121  0.09662  1.0000
  H   H1496     1.0  0.98409  0.41517  0.46223  1.0000
  H   H1497     1.0  0.76796  0.27597  0.24979  1.0000
  H   H1498     1.0  0.98110  0.39097  0.38606  1.0000
  H   H1499     1.0  0.80804  0.31274  0.99175  1.0000
  H   H1500     1.0  0.99137  0.35640  0.33367  1.0000
  H   H1501     1.0  0.76251  0.30915  0.19995  1.0000
  S   S346      1.0  0.90006  0.48722  0.39701  1.0000
  C   C1270     1.0  0.80134  0.44434  0.26961  1.0000
  H   H1502     1.0  0.89005  0.45789  0.44007  1.0000
  N   N85       1.0  0.97819  0.47805  0.37549  1.0000
  H   H1503     1.0  0.75885  0.31844  0.15216  1.0000
  H   H1504     1.0  0.78195  0.23884  0.13072  1.0000
  C   C1271     1.0  0.81515  0.37689  0.02596  1.0000
  H   H1505     1.0  0.87065  0.40576  0.28415  1.0000
  S   S347      1.0  0.92924  0.49049  0.34855  1.0000
  H   H1506     1.0  0.79782  0.43676  0.28982  1.0000
  H   H1507     1.0  0.88647  0.46871  0.20072  1.0000
  C   C1272     1.0  0.87442  0.36883  0.29426  1.0000
  H   H1508     1.0  0.85315  0.39249  0.24815  1.0000
  H   H1509     1.0  0.79154  0.43972  0.25494  1.0000
  C   C1273     1.0  0.83854  0.46597  0.32362  1.0000
  C   C1274     1.0  0.82933  0.40050  0.05043  1.0000
  H   H1510     1.0  0.86487  0.46036  0.13655  1.0000
  H   H1511     1.0  0.81065  0.25629  0.12803  1.0000
  H   H1512     1.0  0.82596  0.40889  0.03564  1.0000
  C   C1275     1.0  0.82302  0.29926  0.00620  1.0000
  C   C1276     1.0  0.82214  0.37503  0.07625  1.0000
  C   C1277     1.0  0.96951  0.48241  0.39989  1.0000
  N   N86       1.0  0.80411  0.46151  0.27451  1.0000
  H   H1513     1.0  0.98242  0.39083  0.31079  1.0000
  H   H1514     1.0  0.83372  0.37321  0.06996  1.0000
  H   H1515     1.0  0.76963  0.23977  0.10173  1.0000
  H   H1516     1.0  0.79013  0.26739  0.13515  1.0000
  H   H1517     1.0  0.90117  0.48191  0.23971  1.0000
  C   C1278     1.0  0.81648  0.36140  0.02218  1.0000
  C   C1279     1.0  0.74662  0.43224  0.16815  1.0000
  C   C1280     1.0  0.98236  0.43101  0.39292  1.0000
  C   C1281     1.0  0.86821  0.49127  0.27599  1.0000
  C   C1282     1.0  0.75200  0.30637  0.16005  1.0000
  C   C1283     1.0  0.82954  0.29421  0.03024  1.0000
  H   H1518     1.0  0.89493  0.31836  0.43096  1.0000
  H   H1519     1.0  0.79215  0.37436  0.06689  1.0000
  H   H1520     1.0  0.79961  0.46593  0.23080  1.0000
  H   H1521     1.0  0.87543  0.33689  0.39719  1.0000
  H   H1522     1.0  0.84102  0.39971  0.04200  1.0000
  C   C1284     1.0  0.98421  0.37248  0.36030  1.0000
  C   C1285     1.0  0.88703  0.47279  0.48575  1.0000
  C   C1286     1.0  0.81738  0.44124  0.00466  1.0000
  H   H1523     1.0  0.81916  0.35423  0.03924  1.0000
  C   C1287     1.0  0.80164  0.38620  0.06397  1.0000
  H   H1524     1.0  0.88946  0.47998  0.46499  1.0000
  H   H1525     1.0  0.79764  0.28105  0.10487  1.0000
  H   H1526     1.0  0.82516  0.44716  0.29978  1.0000
  H   H1527     1.0  0.95080  0.40319  0.28016  1.0000
  H   H1528     1.0  0.87399  0.44452  0.46240  1.0000
  C   C1288     1.0  0.81672  0.46805  0.29455  1.0000
  C   C1289     1.0  0.85876  0.38537  0.26049  1.0000
  H   H1529     1.0  0.80364  0.42017  0.02999  1.0000
  H   H1530     1.0  0.80919  0.43240  0.07652  1.0000
  C   C1290     1.0  0.98681  0.42366  0.30550  1.0000
  C   C1291     1.0  0.78785  0.27164  0.02162  1.0000
  C   C1292     1.0  0.97542  0.39507  0.29500  1.0000
  H   H1531     1.0  0.88467  0.39112  0.31367  1.0000
  H   H1532     1.0  0.79736  0.39377  0.04890  1.0000
  C   C1293     1.0  0.80877  0.47059  0.24657  1.0000
  C   C1294     1.0  0.98818  0.39423  0.44604  1.0000
  H   H1533     1.0  0.81300  0.36311  0.08133  1.0000
  C   C1295     1.0  0.82012  0.48405  0.30272  1.0000
  H   H1534     1.0  0.78509  0.45703  0.30706  1.0000
  C   C1296     1.0  0.83235  0.49072  0.32076  1.0000
  C   C1297     1.0  0.96888  0.47766  0.34986  1.0000
  C   C1298     1.0  0.82655  0.45736  0.00561  1.0000
  H   H1535     1.0  0.91635  0.45562  0.47767  1.0000
  H   H1536     1.0  0.92512  0.34932  0.47975  1.0000
  N   N87       1.0  0.84656  0.36042  0.23325  1.0000
  C   C1299     1.0  0.83461  0.34532  0.24529  1.0000
  C   C1300     1.0  0.83765  0.36988  0.21838  1.0000
  C   C1301     1.0  0.85727  0.35650  0.21165  1.0000
  C   C1302     1.0  0.85631  0.36893  0.25602  1.0000
  C   C1303     1.0  0.86442  0.36093  0.27364  1.0000
  H   H1537     1.0  0.82730  0.34757  0.26352  1.0000
  H   H1538     1.0  0.82616  0.33937  0.22926  1.0000
  H   H1539     1.0  0.84018  0.33627  0.25263  1.0000
  H   H1540     1.0  0.82934  0.37324  0.23349  1.0000
  H   H1541     1.0  0.83016  0.36295  0.20190  1.0000
  H   H1542     1.0  0.84582  0.38088  0.20684  1.0000
  H   H1543     1.0  0.86366  0.34856  0.22081  1.0000
  H   H1544     1.0  0.85057  0.35009  0.19397  1.0000
  H   H1545     1.0  0.86654  0.36749  0.20225  1.0000
  H   H1546     1.0  0.86329  0.34852  0.27128  1.0000
  C   C1304     1.0  0.96738  0.43310  0.39190  1.0000
  N   N88       1.0  0.87031  0.31794  0.43036  1.0000
  C   C1305     1.0  0.88358  0.31189  0.42145  1.0000
  C   C1306     1.0  0.85610  0.30917  0.41504  1.0000
  C   C1307     1.0  0.87461  0.33511  0.42084  1.0000
  C   C1308     1.0  0.75069  0.44019  0.19317  1.0000
  C   C1309     1.0  0.78783  0.27011  0.05133  1.0000
  H   H1547     1.0  0.95704  0.47421  0.40361  1.0000
  H   H1548     1.0  0.88604  0.31327  0.39786  1.0000
  C   C1310     1.0  0.98908  0.38776  0.37117  1.0000
  H   H1549     1.0  0.83117  0.40636  0.07108  1.0000
  H   H1550     1.0  0.85853  0.31106  0.39144  1.0000
  H   H1551     1.0  0.77882  0.45753  0.27122  1.0000
  H   H1552     1.0  0.97413  0.44058  0.31571  1.0000
  C   C1311     1.0  0.87960  0.49140  0.13064  1.0000
  C   C1312     1.0  0.96614  0.44838  0.38649  1.0000
  H   H1553     1.0  0.83715  0.28680  0.02752  1.0000
  H   H1554     1.0  0.84572  0.31336  0.42033  1.0000
  H   H1555     1.0  0.95689  0.42334  0.28928  1.0000
  H   H1556     1.0  0.83688  0.47678  0.03257  1.0000
  H   H1557     1.0  0.97116  0.40435  0.34868  1.0000
  C   C1313     1.0  0.91110  0.46542  0.48079  1.0000
  C   C1314     1.0  0.79334  0.26162  0.00482  1.0000
  H   H1558     1.0  0.88642  0.34230  0.42789  1.0000
  H   H1559     1.0  0.89282  0.44055  0.45611  1.0000
  H   H1560     1.0  0.86564  0.34052  0.42928  1.0000
  H   H1561     1.0  0.88076  0.29898  0.42804  1.0000
  H   H1562     1.0  0.95292  0.39511  0.33211  1.0000
  H   H1563     1.0  0.95863  0.41588  0.33831  1.0000
  C   C1315     1.0  0.96338  0.40617  0.33191  1.0000
  N   N89       1.0  0.74835  0.27951  0.22724  1.0000
  C   C1316     1.0  0.85335  0.30597  0.47604  1.0000
  H   H1564     1.0  0.95661  0.42286  0.39537  1.0000
  H   H1565     1.0  0.81217  0.44240  0.25943  1.0000
  C   C1317     1.0  0.79814  0.24780  0.04734  1.0000
  C   C1318     1.0  0.82639  0.45919  0.30550  1.0000
  H   H1566     1.0  0.86530  0.45783  0.17426  1.0000
  H   H1567     1.0  0.96417  0.38493  0.29355  1.0000
  C   C1319     1.0  0.78203  0.24065  0.10709  1.0000
  H   H1568     1.0  0.88376  0.46433  0.15208  1.0000
  H   H1569     1.0  0.89130  0.33241  0.46994  1.0000
  H   H1570     1.0  0.81891  0.26809  0.09559  1.0000
  H   H1571     1.0  0.80215  0.23832  0.05622  1.0000
  H   H1572     1.0  0.84611  0.45920  0.33104  1.0000
  H   H1573     1.0  0.95429  0.44943  0.38612  1.0000
  H   H1574     1.0  0.78426  0.28114  0.01142  1.0000
  H   H1575     1.0  0.85266  0.29602  0.41986  1.0000
  H   H1576     1.0  0.85018  0.47667  0.18284  1.0000
  H   H1577     1.0  0.85140  0.48705  0.34437  1.0000
  C   C1320     1.0  0.87798  0.48569  0.29398  1.0000
  C   C1321     1.0  0.87999  0.32454  0.47919  1.0000
  C   C1322     1.0  0.86775  0.31610  0.46179  1.0000
  C   C1323     1.0  0.75405  0.30089  0.18746  1.0000
  H   H1578     1.0  0.96806  0.41737  0.26138  1.0000
  N   N90       1.0  0.87242  0.48248  0.15798  1.0000
  H   H1579     1.0  0.76932  0.27419  0.21210  1.0000
  H   H1580     1.0  0.97448  0.47364  0.33129  1.0000
  N   N91       1.0  0.89348  0.45910  0.48520  1.0000
  H   H1581     1.0  0.89235  0.49199  0.12731  1.0000
  C   C1324     1.0  0.85580  0.48286  0.16208  1.0000
  H   H1582     1.0  0.80991  0.39663  0.00290  1.0000
  H   H1583     1.0  0.77343  0.29351  0.22646  1.0000
  H   H1584     1.0  0.98334  0.41918  0.39702  1.0000
  H   H1585     1.0  0.98202  0.39699  0.27378  1.0000
  H   H1586     1.0  0.95633  0.46966  0.35332  1.0000
  C   C1325     1.0  0.87163  0.46553  0.15520  1.0000
  H   H1587     1.0  0.78899  0.47570  0.28658  1.0000
  H   H1588     1.0  0.87312  0.48564  0.11210  1.0000
  H   H1589     1.0  0.96802  0.48969  0.34364  1.0000
  C   C1326     1.0  0.81416  0.35453  0.99581  1.0000
  H   H1590     1.0  0.81357  0.49166  0.29472  1.0000
  C   C1327     1.0  0.89672  0.48879  0.22442  1.0000
  H   H1591     1.0  0.74556  0.28547  0.27074  1.0000
  H   H1592     1.0  0.81510  0.34267  0.99338  1.0000
  C   C1328     1.0  0.74558  0.28509  0.19836  1.0000
  H   H1593     1.0  0.75200  0.30234  0.24581  1.0000
  C   C1329     1.0  0.74417  0.28965  0.24863  1.0000
  H   H1594     1.0  0.96859  0.49467  0.39625  1.0000
  H   H1595     1.0  0.85516  0.49525  0.16194  1.0000
  Fe  Fe174     1.0  0.92913  0.48192  0.67960  1.0000
  S   S348      1.0  0.90632  0.47890  0.65811  1.0000
  S   S349      1.0  0.93794  0.46183  0.69382  1.0000
  Fe  Fe175     1.0  0.89982  0.38037  0.65902  1.0000
  S   S350      1.0  0.91190  0.37774  0.69892  1.0000
  S   S351      1.0  0.88772  0.39921  0.65733  1.0000
  Fe  Fe176     1.0  0.91212  0.35688  0.62710  1.0000
  S   S352      1.0  0.92483  0.35220  0.66570  1.0000
  S   S353      1.0  0.91747  0.34734  0.58433  1.0000
  Fe  Fe177     1.0  0.90228  0.35146  0.69218  1.0000
  S   S354      1.0  0.89071  0.33289  0.72949  1.0000
  Fe  Fe178     1.0  0.93316  0.37899  0.66929  1.0000
  S   S355      1.0  0.95695  0.39945  0.66845  1.0000
  S   S356      1.0  0.88908  0.35409  0.65306  1.0000
  S   S357      1.0  0.92129  0.38333  0.62990  1.0000
  Fe  Fe179     1.0  0.82034  0.31041  0.86705  1.0000
  S   S358      1.0  0.79351  0.30420  0.86413  1.0000
  S   S359      1.0  0.83635  0.32691  0.82996  1.0000
  Fe  Fe180     1.0  0.81568  0.29790  0.93139  1.0000
  S   S360      1.0  0.78901  0.29118  0.93198  1.0000
  S   S361      1.0  0.82729  0.29318  0.97198  1.0000
  Fe  Fe181     1.0  0.79106  0.28105  0.88950  1.0000
  S   S362      1.0  0.77615  0.25533  0.88042  1.0000
  Fe  Fe182     1.0  0.79369  0.31464  0.90689  1.0000
  S   S363      1.0  0.78192  0.33245  0.92168  1.0000
  S   S364      1.0  0.81796  0.28649  0.88986  1.0000
  S   S365      1.0  0.82026  0.32205  0.90899  1.0000
  Fe  Fe183     1.0  0.80553  0.42020  0.87050  1.0000
  S   S366      1.0  0.82851  0.43167  0.89053  1.0000
  S   S367      1.0  0.80336  0.39783  0.84724  1.0000
  Fe  Fe184     1.0  0.79289  0.44782  0.88182  1.0000
  S   S368      1.0  0.81571  0.46181  0.90169  1.0000
  S   S369      1.0  0.77205  0.45796  0.87860  1.0000
  Fe  Fe185     1.0  0.82881  0.45407  0.86507  1.0000
  S   S370      1.0  0.85326  0.46656  0.84068  1.0000
  Fe  Fe186     1.0  0.81363  0.43829  0.92522  1.0000
  H   H1596     1.0  0.76290  0.25347  0.81953  1.0000
  S   S371      1.0  0.80621  0.44214  0.84374  1.0000
  S   S372      1.0  0.79038  0.42477  0.90659  1.0000
  H   H1597     1.0  0.95924  0.37057  0.63775  1.0000
  H   H1598     1.0  0.97154  0.45653  0.72300  1.0000
  H   H1599     1.0  0.75469  0.42352  0.88212  1.0000
  C   C1330     1.0  0.86432  0.41623  0.86625  1.0000
  C   C1331     1.0  0.88928  0.44936  0.51255  1.0000
  C   C1332     1.0  0.78683  0.35038  0.90041  1.0000
  C   C1333     1.0  0.78631  0.36445  0.91264  1.0000
  C   C1334     1.0  0.79120  0.37910  0.89643  1.0000
  C   C1335     1.0  0.79595  0.37958  0.86760  1.0000
  C   C1336     1.0  0.79565  0.36537  0.85504  1.0000
  C   C1337     1.0  0.79148  0.35085  0.87155  1.0000
  H   H1600     1.0  0.78239  0.36404  0.93483  1.0000
  H   H1601     1.0  0.79125  0.38999  0.90623  1.0000
  H   H1602     1.0  0.79888  0.36559  0.83257  1.0000
  H   H1603     1.0  0.79162  0.33998  0.86187  1.0000
  C   C1338     1.0  0.75525  0.24503  0.88577  1.0000
  C   C1339     1.0  0.98331  0.38225  0.59693  1.0000
  H   H1604     1.0  0.90403  0.39862  0.57971  1.0000
  C   C1340     1.0  0.74958  0.22840  0.88255  1.0000
  C   C1341     1.0  0.75107  0.47426  0.80515  1.0000
  C   C1342     1.0  0.88276  0.43237  0.51401  1.0000
  H   H1605     1.0  0.75807  0.22214  0.87781  1.0000
  C   C1343     1.0  0.98887  0.41646  0.66591  1.0000
  H   H1606     1.0  0.93685  0.45196  0.53751  1.0000
  C   C1344     1.0  0.89231  0.45676  0.53887  1.0000
  C   C1345     1.0  0.87546  0.33146  0.75712  1.0000
  C   C1346     1.0  0.86801  0.34325  0.76019  1.0000
  C   C1347     1.0  0.85611  0.34158  0.78240  1.0000
  C   C1348     1.0  0.85135  0.32810  0.80198  1.0000
  C   C1349     1.0  0.85878  0.31631  0.79888  1.0000
  C   C1350     1.0  0.87072  0.31801  0.77672  1.0000
  H   H1607     1.0  0.87140  0.35364  0.74538  1.0000
  H   H1608     1.0  0.85044  0.35073  0.78414  1.0000
  H   H1609     1.0  0.85539  0.30589  0.81361  1.0000
  H   H1610     1.0  0.87633  0.30879  0.77473  1.0000
  C   C1351     1.0  0.91489  0.35419  0.54922  1.0000
  C   C1352     1.0  0.90562  0.36419  0.54406  1.0000
  H   H1611     1.0  0.89461  0.48410  0.76158  1.0000
  C   C1353     1.0  0.95652  0.38433  0.58769  1.0000
  H   H1612     1.0  0.97426  0.37621  0.68011  1.0000
  C   C1354     1.0  0.92194  0.34895  0.52574  1.0000
  H   H1613     1.0  0.89995  0.36817  0.56182  1.0000
  N   N92       1.0  0.84002  0.42242  0.77989  1.0000
  H   H1614     1.0  0.83160  0.46429  0.98600  1.0000
  H   H1615     1.0  0.92900  0.34108  0.52940  1.0000
  C   C1355     1.0  0.75268  0.24338  0.81499  1.0000
  H   H1616     1.0  0.80834  0.35716  0.95241  1.0000
  H   H1617     1.0  0.88485  0.40806  0.80944  1.0000
  C   C1356     1.0  0.85984  0.47295  0.80431  1.0000
  C   C1357     1.0  0.84963  0.47565  0.78412  1.0000
  H   H1618     1.0  0.76652  0.45993  0.81178  1.0000
  H   H1619     1.0  0.76093  0.48526  0.80101  1.0000
  H   H1620     1.0  0.76695  0.22853  0.80441  1.0000
  C   C1358     1.0  0.92327  0.44363  0.68939  1.0000
  C   C1359     1.0  0.90717  0.44269  0.68829  1.0000
  C   C1360     1.0  0.89604  0.42889  0.67903  1.0000
  C   C1361     1.0  0.90103  0.41598  0.67137  1.0000
  C   C1362     1.0  0.91695  0.41669  0.67413  1.0000
  C   C1363     1.0  0.92800  0.43038  0.68350  1.0000
  H   H1621     1.0  0.90331  0.45260  0.69442  1.0000
  H   H1622     1.0  0.88367  0.42829  0.67752  1.0000
  H   H1623     1.0  0.92105  0.40698  0.66799  1.0000
  H   H1624     1.0  0.94039  0.43095  0.68462  1.0000
  H   H1625     1.0  0.74826  0.26577  0.89397  1.0000
  H   H1626     1.0  0.95213  0.35718  0.56429  1.0000
  H   H1627     1.0  0.97055  0.45845  0.68488  1.0000
  H   H1628     1.0  0.85460  0.43708  0.81060  1.0000
  C   C1364     1.0  0.75143  0.44664  0.88420  1.0000
  C   C1365     1.0  0.88836  0.44783  0.56492  1.0000
  H   H1629     1.0  0.99032  0.36070  0.60281  1.0000
  H   H1630     1.0  0.80614  0.38432  0.95748  1.0000
  C   C1366     1.0  0.87546  0.41882  0.84320  1.0000
  H   H1631     1.0  0.87183  0.43994  0.77024  1.0000
  H   H1632     1.0  0.83716  0.47356  0.79031  1.0000
  C   C1367     1.0  0.95904  0.36326  0.61897  1.0000
  H   H1633     1.0  0.94382  0.37740  0.58461  1.0000
  C   C1368     1.0  0.85072  0.40091  0.76048  1.0000
  H   H1634     1.0  0.82346  0.39949  0.79521  1.0000
  C   C1369     1.0  0.91130  0.41034  0.57072  1.0000
  C   C1370     1.0  0.86328  0.39633  0.74840  1.0000
  C   C1371     1.0  0.83911  0.43636  0.76202  1.0000
  H   H1635     1.0  0.83364  0.43190  0.81852  1.0000
  H   H1636     1.0  0.81445  0.41464  0.78951  1.0000
  N   N93       1.0  0.96626  0.37358  0.59305  1.0000
  H   H1637     1.0  0.86116  0.38419  0.74192  1.0000
  C   C1372     1.0  0.86365  0.31313  0.52219  1.0000
  H   H1638     1.0  0.83732  0.43334  0.73944  1.0000
  H   H1639     1.0  0.86363  0.42626  0.87828  1.0000
  N   N94       1.0  0.84363  0.37102  0.86530  1.0000
  C   C1373     1.0  0.83256  0.36968  0.89069  1.0000
  C   C1374     1.0  0.83376  0.36535  0.84085  1.0000
  C   C1375     1.0  0.85317  0.36015  0.87107  1.0000
  C   C1376     1.0  0.85444  0.38749  0.85818  1.0000
  C   C1377     1.0  0.85388  0.40084  0.87369  1.0000
  C   C1378     1.0  0.86585  0.39061  0.83468  1.0000
  C   C1379     1.0  0.91972  0.35357  0.49749  1.0000
  C   C1380     1.0  0.87620  0.40604  0.82741  1.0000
  C   C1381     1.0  0.75427  0.45999  0.81093  1.0000
  H   H1640     1.0  0.82460  0.37712  0.88745  1.0000
  H   H1641     1.0  0.82446  0.35718  0.89521  1.0000
  H   H1642     1.0  0.83917  0.37321  0.91019  1.0000
  H   H1643     1.0  0.82747  0.37395  0.83429  1.0000
  H   H1644     1.0  0.82458  0.35344  0.84605  1.0000
  H   H1645     1.0  0.84096  0.36369  0.82202  1.0000
  H   H1646     1.0  0.86144  0.36443  0.88829  1.0000
  H   H1647     1.0  0.84539  0.34779  0.87763  1.0000
  H   H1648     1.0  0.86037  0.35879  0.85192  1.0000
  H   H1649     1.0  0.84543  0.39977  0.89156  1.0000
  H   H1650     1.0  0.86684  0.38106  0.82175  1.0000
  C   C1382     1.0  0.87195  0.48475  0.74755  1.0000
  H   H1651     1.0  0.88039  0.42562  0.49521  1.0000
  H   H1652     1.0  0.88347  0.43079  0.83749  1.0000
  C   C1383     1.0  0.85567  0.48156  0.75605  1.0000
  H   H1653     1.0  0.88741  0.32977  0.52171  1.0000
  C   C1384     1.0  0.87608  0.47594  0.79570  1.0000
  H   H1654     1.0  0.74432  0.43481  0.82169  1.0000
  C   C1385     1.0  0.74609  0.42991  0.88430  1.0000
  H   H1655     1.0  0.93858  0.47104  0.56952  1.0000
  C   C1386     1.0  0.97793  0.45623  0.70220  1.0000
  H   H1656     1.0  0.97083  0.37050  0.54877  1.0000
  H   H1657     1.0  0.97812  0.44371  0.70058  1.0000
  H   H1658     1.0  0.89781  0.46956  0.53964  1.0000
  H   H1659     1.0  0.95627  0.39178  0.60614  1.0000
  C   C1387     1.0  0.98282  0.38802  0.67605  1.0000
  H   H1660     1.0  0.96528  0.35448  0.62444  1.0000
  H   H1661     1.0  0.95588  0.46415  0.56978  1.0000
  H   H1662     1.0  0.86213  0.31207  0.54526  1.0000
  H   H1663     1.0  0.96862  0.48061  0.70673  1.0000
  C   C1388     1.0  0.84310  0.42732  0.80935  1.0000
  C   C1389     1.0  0.86898  0.42768  0.76433  1.0000
  H   H1664     1.0  0.74401  0.46763  0.88689  1.0000
  H   H1665     1.0  0.89256  0.48149  0.50159  1.0000
  H   H1666     1.0  0.98215  0.40683  0.59418  1.0000
  H   H1667     1.0  0.87408  0.41059  0.54095  1.0000
  C   C1390     1.0  0.88207  0.48167  0.76755  1.0000
  C   C1391     1.0  0.91364  0.41327  0.54131  1.0000
  N   N95       1.0  0.93578  0.45025  0.59768  1.0000
  H   H1668     1.0  0.98485  0.42665  0.66139  1.0000
  C   C1392     1.0  0.92341  0.45378  0.61613  1.0000
  C   C1393     1.0  0.94627  0.44432  0.61594  1.0000
  C   C1394     1.0  0.92801  0.43787  0.57795  1.0000
  C   C1395     1.0  0.91830  0.42242  0.58881  1.0000
  C   C1396     1.0  0.92991  0.44056  0.54779  1.0000
  H   H1669     1.0  0.89554  0.37588  0.51214  1.0000
  H   H1670     1.0  0.89030  0.45386  0.58467  1.0000
  C   C1397     1.0  0.81042  0.36273  0.97260  1.0000
  C   C1398     1.0  0.94579  0.46564  0.58311  1.0000
  H   H1671     1.0  0.95105  0.47476  0.59868  1.0000
  C   C1399     1.0  0.82403  0.41004  0.78081  1.0000
  H   H1672     1.0  0.91580  0.45907  0.60341  1.0000
  H   H1673     1.0  0.92885  0.46255  0.63208  1.0000
  H   H1674     1.0  0.91545  0.44299  0.62837  1.0000
  H   H1675     1.0  0.95592  0.44176  0.60297  1.0000
  H   H1676     1.0  0.95189  0.45312  0.63177  1.0000
  H   H1677     1.0  0.93963  0.43308  0.62853  1.0000
  H   H1678     1.0  0.91604  0.41947  0.61149  1.0000
  C   C1400     1.0  0.92281  0.42837  0.52987  1.0000
  H   H1679     1.0  0.88415  0.47404  0.81107  1.0000
  S   S373      1.0  0.87914  0.49349  0.71246  1.0000
  H   H1680     1.0  0.92447  0.43060  0.50693  1.0000
  C   C1401     1.0  0.88141  0.42298  0.75208  1.0000
  C   C1402     1.0  0.96489  0.36332  0.56850  1.0000
  C   C1403     1.0  0.97750  0.40116  0.67039  1.0000
  H   H1681     1.0  0.89330  0.43154  0.74843  1.0000
  H   H1682     1.0  0.82913  0.44064  0.76975  1.0000
  S   S374      1.0  0.81477  0.43088  0.97250  1.0000
  C   C1404     1.0  0.87854  0.40737  0.74393  1.0000
  H   H1683     1.0  0.94636  0.35618  0.61629  1.0000
  H   H1684     1.0  0.97027  0.35363  0.57221  1.0000
  H   H1685     1.0  0.88812  0.40384  0.73386  1.0000
  H   H1686     1.0  0.84327  0.41703  0.82367  1.0000
  C   C1405     1.0  0.85315  0.41688  0.76836  1.0000
  C   C1406     1.0  0.88182  0.43124  0.56563  1.0000
  H   H1687     1.0  0.82071  0.40596  0.75925  1.0000
  H   H1688     1.0  0.85012  0.44681  0.76215  1.0000
  H   H1689     1.0  0.83920  0.39176  0.76301  1.0000
  C   C1407     1.0  0.87909  0.42353  0.54024  1.0000
  C   C1408     1.0  0.90316  0.36857  0.51583  1.0000
  C   C1409     1.0  0.98042  0.48924  0.70579  1.0000
  H   H1690     1.0  0.96104  0.39226  0.56812  1.0000
  H   H1691     1.0  0.84035  0.29682  0.51634  1.0000
  C   C1410     1.0  0.87791  0.32309  0.50890  1.0000
  H   H1692     1.0  0.87891  0.42433  0.58592  1.0000
  C   C1411     1.0  0.75491  0.22924  0.80662  1.0000
  H   H1693     1.0  0.79408  0.26343  0.98178  1.0000
  C   C1412     1.0  0.85141  0.30458  0.50582  1.0000
  H   H1694     1.0  0.90827  0.40383  0.52736  1.0000
  C   C1413     1.0  0.80911  0.37793  0.97553  1.0000
  S   S375      1.0  0.92313  0.49403  0.58052  1.0000
  H   H1695     1.0  0.84770  0.48395  0.74091  1.0000
  H   H1696     1.0  0.91669  0.47191  0.49922  1.0000
  C   C1414     1.0  0.98957  0.39924  0.59644  1.0000
  C   C1415     1.0  0.91018  0.36332  0.49235  1.0000
  C   C1416     1.0  0.74413  0.25299  0.89160  1.0000
  H   H1697     1.0  0.74440  0.20539  0.79563  1.0000
  H   H1698     1.0  0.74231  0.21161  0.96754  1.0000
  H   H1699     1.0  0.93769  0.49439  0.52504  1.0000
  H   H1700     1.0  0.87389  0.46862  0.49072  1.0000
  Fe  Fe187     1.0  0.91644  0.50915  0.41526  1.0000
  H   H1701     1.0  0.87934  0.51362  0.17303  1.0000
  S   S376      1.0  0.90811  0.51703  0.45729  1.0000
  C   C1417     1.0  0.98467  0.55136  0.37479  1.0000
  H   H1702     1.0  0.86821  0.50350  0.27701  1.0000
  H   H1703     1.0  0.89417  0.52611  0.21309  1.0000
  Fe  Fe188     1.0  0.94366  0.51255  0.36969  1.0000
  S   S377      1.0  0.97008  0.52143  0.35344  1.0000
  S   S378      1.0  0.92290  0.52252  0.37178  1.0000
  H   H1704     1.0  0.87912  0.50385  0.12954  1.0000
  H   H1705     1.0  0.83497  0.50305  0.32630  1.0000
  C   C1418     1.0  0.98655  0.53845  0.36034  1.0000
  H   H1706     1.0  0.93211  0.50298  0.47679  1.0000
  H   H1707     1.0  0.97286  0.55112  0.38248  1.0000
  C   C1419     1.0  0.89891  0.50488  0.22839  1.0000
  S   S379      1.0  0.89013  0.49914  0.31794  1.0000
  C   C1420     1.0  0.88419  0.50637  0.18672  1.0000
  S   S380      1.0  0.93788  0.50082  0.41382  1.0000
  C   C1421     1.0  0.89265  0.51365  0.20959  1.0000
  H   H1708     1.0  0.90506  0.51040  0.24662  1.0000
  Fe  Fe189     1.0  0.90799  0.49941  0.35324  1.0000
  H   H1709     1.0  0.99195  0.50283  0.36513  1.0000
  Fe  Fe190     1.0  0.93856  0.51802  0.67668  1.0000
  S   S381      1.0  0.91601  0.51783  0.65538  1.0000
  S   S382      1.0  0.95740  0.54001  0.69146  1.0000
  C   C1422     1.0  0.97763  0.54560  0.67762  1.0000
  H   H1710     1.0  0.93392  0.52913  0.78374  1.0000
  C   C1423     1.0  0.87572  0.51475  0.81876  1.0000
  C   C1424     1.0  0.91223  0.53341  0.72816  1.0000
  H   H1711     1.0  0.93796  0.52966  0.74643  1.0000
  H   H1712     1.0  0.91532  0.55894  0.75941  1.0000
  C   C1425     1.0  0.92023  0.50275  0.54716  1.0000
  H   H1713     1.0  0.90615  0.52071  0.72370  1.0000
  H   H1714     1.0  0.86566  0.50901  0.83381  1.0000
  C   C1426     1.0  0.87324  0.51636  0.78995  1.0000
  H   H1715     1.0  0.89639  0.52098  0.51383  1.0000
  C   C1427     1.0  0.90214  0.52833  0.77886  1.0000
  C   C1428     1.0  0.92805  0.52635  0.76337  1.0000
  S   S383      1.0  0.94404  0.50073  0.64778  1.0000
  H   H1716     1.0  0.93447  0.55746  0.74757  1.0000
  H   H1717     1.0  0.92222  0.51316  0.76380  1.0000
  C   C1429     1.0  0.98224  0.53770  0.65533  1.0000
  H   H1718     1.0  0.92807  0.55418  0.78459  1.0000
  H   H1719     1.0  0.91588  0.53132  0.81687  1.0000
  H   H1720     1.0  0.88334  0.52329  0.74809  1.0000
  C   C1430     1.0  0.90875  0.51052  0.54379  1.0000
  H   H1721     1.0  0.90203  0.51244  0.56230  1.0000
  C   C1431     1.0  0.89114  0.52028  0.82809  1.0000
  C   C1432     1.0  0.88618  0.52298  0.77015  1.0000
  N   N96       1.0  0.91623  0.53490  0.75848  1.0000
  H   H1722     1.0  0.92312  0.53778  0.71332  1.0000
  C   C1433     1.0  0.92386  0.55212  0.76275  1.0000
  C   C1434     1.0  0.90417  0.52715  0.80856  1.0000
  H   H1723     1.0  0.90436  0.54056  0.72212  1.0000
  H   H1724     1.0  0.86121  0.51195  0.78277  1.0000
  H   H1725     1.0  0.97025  0.50843  0.70994  1.0000
  H   H1726     1.0  0.97338  0.52823  0.64576  1.0000
  Fe  Fe191     1.0  0.92089  0.49919  0.62772  1.0000
  S   S384      1.0  0.92551  0.49903  0.71053  1.0000
  C   C1435     1.0  0.90553  0.51529  0.51623  1.0000
  C   C1436     1.0  0.98941  0.55801  0.68956  1.0000
  C   C1437     1.0  0.92871  0.50027  0.52274  1.0000
  H   H1727     1.0  0.89298  0.51902  0.85058  1.0000
  H   H1728     1.0  0.98600  0.56425  0.70676  1.0000
  C   C1438     1.0  0.98117  0.50524  0.70788  1.0000
  Fe  Fe192     1.0  0.90331  0.49728  0.68776  1.0000
  C   C1439     1.0  0.92554  0.50509  0.49527  1.0000
  C   C1440     1.0  0.91370  0.51237  0.49174  1.0000
