data_image0
_chemical_formula_structural       FeNSC3HSH4C3H6C2H2C3H2CHCHC4HCHS2H2SH3CFeHSHCSFeSHCH2C5HC2H2C2H3C2SFeNH2CHC3H2CHSCHSFeSH2CH2SCH3CFeHSC3H2CH2CHCH2FeCHNC4NC2HSHFeH6CS2C2H2CH2C3FeSCSHSCFeSH3C3HC6HCH2CH3CHC2NC2H5CH2CHC2H3C2H3C2H6C4HCNCH3SCH2CH2CSCHSC6H6SCHSH10SNHFeH4NC6HFeHCHC2HC2H3SFeSCFeHFeHSCHCHC6H5CH2C2SH5CH2C2FeH3SCNCHSC3SH2CH3C2HC4H2CHFeHC3HC3H2NH2CFeSHFeS2FeSHSHC8H5CH2C2H2FeH5CSNCH2C2HSHNHS2HC3HC2H4CH3SFeHSCS2H2CHC6H5C2HCSHFeCSHCH4CHCH4FeHC2NCH2C2HCH3CH2FeHC2HSC2FeSCHFeS2FeSFeHSC2HC6H4C2SCHNHC4HSH2NHCH3CSHC3H6CHC4H5CH3FeSC3HSCFeS3H3CSHSC6H4CHC2H2C3H3SCHNC5H9C3HC4HFeH5FeH2CHCH2SC3FeHNCSH4C2H2SHFe2S2H2CSH4C2H3CFeCFeHC2S2FeNC6FeH3CHCH3C2H2CHC2SC2HC2H2CHS2CH2CSHC2H7C2HCHCNH2CHNH3C3SCHS
_chemical_formula_sum              "Fe40 N20 S80 C300 H360"
_cell_length_a       41.7261
_cell_length_b       41.9199
_cell_length_c       28.9919
_cell_angle_alpha    85.6501
_cell_angle_beta     85.3426
_cell_angle_gamma    120.703

_space_group_name_H-M_alt    "P 1"
_space_group_IT_number       1

loop_
  _space_group_symop_operation_xyz
  'x, y, z'

loop_
  _atom_site_type_symbol
  _atom_site_label
  _atom_site_symmetry_multiplicity
  _atom_site_fract_x
  _atom_site_fract_y
  _atom_site_fract_z
  _atom_site_occupancy
  Fe  Fe1       1.0  0.24240  0.40300  0.42632  1.0000
  N   N1        1.0  0.28093  0.07984  0.38983  1.0000
  S   S1        1.0  0.27159  0.43313  0.35373  1.0000
  C   C1        1.0  0.27151  0.47366  0.33240  1.0000
  C   C2        1.0  0.26895  0.06671  0.34460  1.0000
  C   C3        1.0  0.28019  0.17082  0.36867  1.0000
  H   H1        1.0  0.29248  0.21144  0.41628  1.0000
  S   S2        1.0  0.19677  0.34195  0.44414  1.0000
  H   H2        1.0  0.32920  0.09355  0.42499  1.0000
  H   H3        1.0  0.09158  0.29342  0.44960  1.0000
  H   H4        1.0  0.29622  0.11573  0.46804  1.0000
  H   H5        1.0  0.22828  0.46610  0.38571  1.0000
  C   C4        1.0  0.28904  0.18456  0.41104  1.0000
  C   C5        1.0  0.29422  0.16406  0.44651  1.0000
  C   C6        1.0  0.24786  0.48382  0.35515  1.0000
  H   H6        1.0  0.28935  0.08695  0.31440  1.0000
  H   H7        1.0  0.22540  0.04490  0.42864  1.0000
  H   H8        1.0  0.30446  0.32585  0.44975  1.0000
  H   H9        1.0  0.25227  0.02229  0.42295  1.0000
  H   H10       1.0  0.27047  0.12802  0.32755  1.0000
  H   H11       1.0  0.26732  0.03961  0.34117  1.0000
  C   C7        1.0  0.29087  0.12990  0.43972  1.0000
  C   C8        1.0  0.25413  0.04933  0.42749  1.0000
  H   H12       1.0  0.02961  0.24865  0.42655  1.0000
  H   H13       1.0  0.24050  0.06201  0.34123  1.0000
  C   C9        1.0  0.03091  0.26512  0.45409  1.0000
  C   C10       1.0  0.27684  0.13665  0.36141  1.0000
  C   C11       1.0  0.28225  0.11513  0.39689  1.0000
  H   H14       1.0  0.31448  0.48879  0.27424  1.0000
  H   H15       1.0  0.26260  0.05516  0.46265  1.0000
  C   C12       1.0  0.34374  0.03401  0.46659  1.0000
  H   H16       1.0  0.31947  0.05974  0.38617  1.0000
  C   C13       1.0  0.31898  0.08560  0.39109  1.0000
  H   H17       1.0  0.27649  0.18714  0.34110  1.0000
  C   C14       1.0  0.33271  0.29485  0.45783  1.0000
  C   C15       1.0  0.29631  0.49663  0.29222  1.0000
  C   C16       1.0  0.30389  0.30243  0.46911  1.0000
  C   C17       1.0  0.06620  0.29034  0.46742  1.0000
  H   H18       1.0  0.34009  0.10855  0.36364  1.0000
  C   C18       1.0  0.33923  0.00199  0.44806  1.0000
  H   H19       1.0  0.30189  0.17523  0.47909  1.0000
  S   S3        1.0  0.28026  0.39772  0.47297  1.0000
  S   S4        1.0  0.21730  0.42355  0.47917  1.0000
  H   H20       1.0  0.31260  0.46567  0.86357  1.0000
  H   H21       1.0  0.14559  0.21287  0.56148  1.0000
  S   S5        1.0  0.11141  0.33989  0.52656  1.0000
  H   H22       1.0  0.29210  0.38404  0.57461  1.0000
  H   H23       1.0  0.32857  0.32764  0.63654  1.0000
  H   H24       1.0  0.34096  0.38602  0.64628  1.0000
  C   C19       1.0  0.06834  0.31091  0.50417  1.0000
  Fe  Fe2       1.0  0.25273  0.41505  0.52722  1.0000
  H   H25       1.0  0.10014  0.18704  0.59714  1.0000
  S   S6        1.0  0.29599  0.45679  0.56863  1.0000
  H   H26       1.0  0.05881  0.19075  0.50323  1.0000
  C   C20       1.0  0.33256  0.26437  0.48218  1.0000
  S   S7        1.0  0.23595  0.28646  0.51877  1.0000
  Fe  Fe3       1.0  0.23304  0.33858  0.49584  1.0000
  S   S8        1.0  0.20768  0.35544  0.55355  1.0000
  H   H27       1.0  0.06910  0.25768  0.61504  1.0000
  C   C21       1.0  0.11537  0.20427  0.56275  1.0000
  H   H28       1.0  0.16156  0.27085  0.58661  1.0000
  H   H29       1.0  0.23102  0.46429  0.59458  1.0000
  C   C22       1.0  0.29935  0.48466  0.80110  1.0000
  C   C23       1.0  0.30412  0.48409  0.84809  1.0000
  C   C24       1.0  0.30298  0.24143  0.51811  1.0000
  C   C25       1.0  0.27381  0.24865  0.52891  1.0000
  C   C26       1.0  0.25509  0.48587  0.60813  1.0000
  H   H30       1.0  0.30251  0.21809  0.53752  1.0000
  C   C27       1.0  0.27400  0.27915  0.50450  1.0000
  C   C28       1.0  0.03480  0.30697  0.52585  1.0000
  H   H31       1.0  0.25094  0.23046  0.55643  1.0000
  H   H32       1.0  0.11884  0.24835  0.62692  1.0000
  C   C29       1.0  0.31452  0.03143  0.49710  1.0000
  C   C30       1.0  0.05357  0.23790  0.59188  1.0000
  H   H33       1.0  0.13089  0.28875  0.58553  1.0000
  H   H34       1.0  0.10452  0.18595  0.53514  1.0000
  H   H35       1.0  0.12751  0.28306  0.50247  1.0000
  C   C31       1.0  0.04752  0.20069  0.52949  1.0000
  C   C32       1.0  0.07072  0.22511  0.55976  1.0000
  S   S9        1.0  0.31838  0.07092  0.52119  1.0000
  Fe  Fe4       1.0  0.17369  0.36185  0.50067  1.0000
  N   N2        1.0  0.11111  0.23729  0.55589  1.0000
  H   H36       1.0  0.03599  0.32274  0.55419  1.0000
  H   H37       1.0  0.16076  0.26799  0.50452  1.0000
  C   C33       1.0  0.01563  0.22675  0.59336  1.0000
  H   H38       1.0  0.28949  0.34366  0.60403  1.0000
  C   C34       1.0  0.28995  0.48860  0.59976  1.0000
  C   C35       1.0  0.13019  0.25807  0.50877  1.0000
  C   C36       1.0  0.13129  0.26230  0.59045  1.0000
  H   H39       1.0  0.30412  0.46683  0.77998  1.0000
  H   H40       1.0  0.29588  0.35117  0.54171  1.0000
  C   C37       1.0  0.30399  0.36557  0.57313  1.0000
  H   H41       1.0  0.11843  0.24095  0.48033  1.0000
  S   S10       1.0  0.21781  0.83279  0.39994  1.0000
  C   C38       1.0  0.24905  0.51671  0.33777  1.0000
  H   H42       1.0  0.33174  0.67276  0.03331  1.0000
  S   S11       1.0  0.11633  0.79677  0.44665  1.0000
  Fe  Fe5       1.0  0.23243  0.78901  0.41726  1.0000
  S   S12       1.0  0.23161  0.74775  0.37015  1.0000
  H   H43       1.0  0.24901  0.61550  0.46918  1.0000
  H   H44       1.0  0.04931  0.78806  0.41461  1.0000
  C   C39       1.0  0.32928  0.76094  0.26811  1.0000
  H   H45       1.0  0.15395  0.70825  0.30878  1.0000
  H   H46       1.0  0.33049  0.59226  0.35235  1.0000
  S   S13       1.0  0.27531  0.58133  0.27780  1.0000
  C   C40       1.0  0.07609  0.67247  0.30173  1.0000
  H   H47       1.0  0.03496  0.62334  0.27456  1.0000
  H   H48       1.0  0.21357  0.64025  0.44434  1.0000
  H   H49       1.0  0.26016  0.66187  0.41085  1.0000
  C   C41       1.0  0.27427  0.53998  0.29803  1.0000
  Fe  Fe6       1.0  0.32789  0.62967  0.23463  1.0000
  H   H50       1.0  0.31718  0.54736  0.24436  1.0000
  S   S14       1.0  0.27518  0.82363  0.46263  1.0000
  C   C42       1.0  0.27018  0.75382  0.33181  1.0000
  C   C43       1.0  0.26688  0.72257  0.31286  1.0000
  C   C44       1.0  0.29646  0.72597  0.28174  1.0000
  H   H51       1.0  0.28776  0.73952  0.42714  1.0000
  H   H52       1.0  0.11198  0.72765  0.41305  1.0000
  C   C45       1.0  0.30336  0.78868  0.31921  1.0000
  H   H53       1.0  0.24120  0.69555  0.32187  1.0000
  H   H54       1.0  0.29347  0.70167  0.26728  1.0000
  C   C46       1.0  0.30562  0.96696  0.45987  1.0000
  H   H55       1.0  0.30621  0.81300  0.33339  1.0000
  C   C47       1.0  0.03967  0.64254  0.29987  1.0000
  H   H56       1.0  0.23037  0.52418  0.35522  1.0000
  H   H57       1.0  0.14939  0.79042  0.33225  1.0000
  Fe  Fe7       1.0  0.17226  0.80311  0.46206  1.0000
  C   C48       1.0  0.29800  0.52989  0.27535  1.0000
  H   H58       1.0  0.05422  0.70956  0.39121  1.0000
  N   N3        1.0  0.12090  0.73009  0.33788  1.0000
  C   C49       1.0  0.13087  0.72625  0.38504  1.0000
  C   C50       1.0  0.15117  0.73329  0.30344  1.0000
  C   C51       1.0  0.12113  0.76563  0.33026  1.0000
  C   C52       1.0  0.08292  0.69803  0.33461  1.0000
  N   N4        1.0  0.25741  0.68673  0.47263  1.0000
  C   C53       1.0  0.05124  0.69150  0.36525  1.0000
  C   C54       1.0  0.06864  0.75872  0.45750  1.0000
  H   H59       1.0  0.11286  0.76928  0.29563  1.0000
  S   S15       1.0  0.32806  0.66872  0.17631  1.0000
  H   H60       1.0  0.15983  0.74923  0.38793  1.0000
  Fe  Fe8       1.0  0.25617  0.86516  0.45141  1.0000
  H   H61       1.0  0.12976  0.69930  0.39309  1.0000
  H   H62       1.0  0.14628  0.73740  0.26690  1.0000
  H   H63       1.0  0.17931  0.75768  0.30713  1.0000
  H   H64       1.0  0.10147  0.76698  0.35723  1.0000
  H   H65       1.0  0.31394  0.71686  0.43605  1.0000
  H   H66       1.0  0.09835  0.67490  0.27718  1.0000
  C   C55       1.0  0.04118  0.76217  0.43617  1.0000
  S   S16       1.0  0.30263  0.92724  0.43755  1.0000
  S   S17       1.0  0.18516  0.75785  0.47695  1.0000
  C   C56       1.0  0.29276  0.72230  0.45353  1.0000
  C   C57       1.0  0.33261  0.79228  0.28696  1.0000
  H   H67       1.0  0.23371  0.68424  0.40855  1.0000
  H   H68       1.0  0.22245  0.71092  0.47120  1.0000
  C   C58       1.0  0.24050  0.66720  0.43252  1.0000
  H   H69       1.0  0.31599  0.53000  0.39339  1.0000
  H   H70       1.0  0.32699  0.54142  0.47060  1.0000
  C   C59       1.0  0.34273  0.57160  0.46852  1.0000
  C   C60       1.0  0.01504  0.66152  0.36322  1.0000
  C   C61       1.0  0.28842  0.50823  0.78116  1.0000
  Fe  Fe9       1.0  0.22723  0.79545  0.52094  1.0000
  S   S18       1.0  0.23327  0.77119  0.59017  1.0000
  C   C62       1.0  0.27632  0.96440  0.49026  1.0000
  S   S19       1.0  0.20995  0.83850  0.51246  1.0000
  H   H71       1.0  0.22397  0.51317  0.91004  1.0000
  S   S20       1.0  0.31605  0.66341  0.73773  1.0000
  C   C63       1.0  0.33447  0.77717  0.57771  1.0000
  Fe  Fe10      1.0  0.32479  0.61956  0.70908  1.0000
  S   S21       1.0  0.27508  0.56691  0.69037  1.0000
  H   H72       1.0  0.31218  0.59891  0.92829  1.0000
  H   H73       1.0  0.28463  0.50859  0.74458  1.0000
  H   H74       1.0  0.20449  0.66993  0.51360  1.0000
  C   C64       1.0  0.28191  0.53831  0.65369  1.0000
  C   C65       1.0  0.31703  0.54175  0.64418  1.0000
  C   C66       1.0  0.33898  0.93577  0.60380  1.0000
  H   H75       1.0  0.34100  0.56303  0.65822  1.0000
  C   C67       1.0  0.27079  0.76397  0.59902  1.0000
  C   C68       1.0  0.30432  0.78156  0.56778  1.0000
  C   C69       1.0  0.26676  0.60790  0.53315  1.0000
  C   C70       1.0  0.33108  0.75437  0.61826  1.0000
  C   C71       1.0  0.29727  0.73612  0.64889  1.0000
  C   C72       1.0  0.26746  0.74124  0.63951  1.0000
  H   H76       1.0  0.30739  0.79922  0.53656  1.0000
  C   C73       1.0  0.29812  0.50727  0.87521  1.0000
  H   H77       1.0  0.29429  0.71856  0.68025  1.0000
  H   H78       1.0  0.24170  0.72759  0.66395  1.0000
  C   C74       1.0  0.33772  0.67367  0.95810  1.0000
  H   H79       1.0  0.28125  0.90231  0.55061  1.0000
  H   H80       1.0  0.32246  0.56724  0.54095  1.0000
  H   H81       1.0  0.26831  0.60024  0.88218  1.0000
  C   C75       1.0  0.28244  0.53160  0.80789  1.0000
  H   H82       1.0  0.34292  0.91918  0.51438  1.0000
  C   C76       1.0  0.28741  0.53204  0.85583  1.0000
  C   C77       1.0  0.26555  0.66436  0.50646  1.0000
  N   N5        1.0  0.28134  0.55635  0.88533  1.0000
  C   C78       1.0  0.23067  0.69579  0.49631  1.0000
  C   C79       1.0  0.32151  0.86951  0.62199  1.0000
  H   H83       1.0  0.25032  0.93770  0.49983  1.0000
  H   H84       1.0  0.24273  0.71436  0.52348  1.0000
  H   H85       1.0  0.29396  0.60035  0.83018  1.0000
  H   H86       1.0  0.29856  0.66916  0.61221  1.0000
  H   H87       1.0  0.24443  0.56534  0.84516  1.0000
  C   C80       1.0  0.28008  0.67840  0.54782  1.0000
  H   H88       1.0  0.31228  0.67403  0.95468  1.0000
  H   H89       1.0  0.24392  0.55015  0.94586  1.0000
  C   C81       1.0  0.28081  0.99646  0.50870  1.0000
  H   H90       1.0  0.25803  0.99407  0.53237  1.0000
  C   C82       1.0  0.01962  0.69538  0.49168  1.0000
  C   C83       1.0  0.05760  0.72504  0.48528  1.0000
  H   H91       1.0  0.07822  0.72186  0.50208  1.0000
  H   H92       1.0  0.26145  0.58035  0.52782  1.0000
  H   H93       1.0  0.28601  0.60637  0.59948  1.0000
  C   C84       1.0  0.28062  0.62247  0.57359  1.0000
  C   C85       1.0  0.32091  0.51677  0.61771  1.0000
  H   H94       1.0  0.30574  0.74010  0.48109  1.0000
  H   H95       1.0  0.34347  0.77166  0.93296  1.0000
  H   H96       1.0  0.22377  0.50753  0.64257  1.0000
  C   C86       1.0  0.27144  0.58142  0.85946  1.0000
  C   C87       1.0  0.28756  0.65778  0.58075  1.0000
  H   H97       1.0  0.30203  0.50571  0.91152  1.0000
  H   H98       1.0  0.30419  0.86497  0.65587  1.0000
  H   H99       1.0  0.27416  0.54919  0.78986  1.0000
  H   H100      1.0  0.26866  0.85572  0.57159  1.0000
  H   H101      1.0  0.28554  0.70542  0.55518  1.0000
  H   H102      1.0  0.26606  0.88503  0.61187  1.0000
  C   C88       1.0  0.25023  0.53278  0.92393  1.0000
  C   C89       1.0  0.28296  0.88492  0.58019  1.0000
  C   C90       1.0  0.25952  0.62848  0.49974  1.0000
  C   C91       1.0  0.33976  0.58611  0.50949  1.0000
  H   H103      1.0  0.25702  0.51577  0.94790  1.0000
  C   C92       1.0  0.25106  0.51043  0.63532  1.0000
  N   N6        1.0  0.32232  0.89840  0.58799  1.0000
  C   C93       1.0  0.31604  0.58050  0.90567  1.0000
  H   H104      1.0  0.30846  0.84174  0.60922  1.0000
  H   H105      1.0  0.33306  0.87307  0.53125  1.0000
  H   H106      1.0  0.33173  0.96267  0.54160  1.0000
  S   S22       1.0  0.34339  0.67450  0.86215  1.0000
  C   C94       1.0  0.34140  0.96615  0.57525  1.0000
  H   H107      1.0  0.32471  0.56439  0.92810  1.0000
  H   H108      1.0  0.34011  0.59904  0.87773  1.0000
  C   C95       1.0  0.34416  0.90098  0.54335  1.0000
  H   H109      1.0  0.01141  0.66956  0.51349  1.0000
  H   H110      1.0  0.36992  0.06061  0.45744  1.0000
  C   C96       1.0  0.56888  0.27947  0.99871  1.0000
  S   S23       1.0  0.59424  0.33510  0.25260  1.0000
  C   C97       1.0  0.60573  0.25014  0.99814  1.0000
  H   H111      1.0  0.58623  0.21229  0.13850  1.0000
  S   S24       1.0  0.49472  0.19912  0.41392  1.0000
  C   C98       1.0  0.52103  0.23673  0.36855  1.0000
  C   C99       1.0  0.55131  0.23849  0.34109  1.0000
  C   C100      1.0  0.57415  0.26882  0.30599  1.0000
  C   C101      1.0  0.56636  0.29725  0.29732  1.0000
  C   C102      1.0  0.53562  0.29518  0.32414  1.0000
  C   C103      1.0  0.51318  0.26516  0.36004  1.0000
  H   H112      1.0  0.55720  0.21631  0.34710  1.0000
  H   H113      1.0  0.59746  0.26987  0.28531  1.0000
  H   H114      1.0  0.52933  0.31702  0.31742  1.0000
  H   H115      1.0  0.48981  0.26397  0.38097  1.0000
  H   H116      1.0  0.52958  0.25892  0.13685  1.0000
  H   H117      1.0  0.63915  0.29597  0.35616  1.0000
  S   S25       1.0  0.38668  0.17314  0.44402  1.0000
  C   C104      1.0  0.59642  0.26009  0.44040  1.0000
  H   H118      1.0  0.67233  0.33773  0.37769  1.0000
  S   S26       1.0  0.37003  0.25659  0.46594  1.0000
  H   H119      1.0  0.58922  0.24550  0.47667  1.0000
  H   H120      1.0  0.62008  0.23787  0.06249  1.0000
  H   H121      1.0  0.57621  0.26951  0.43552  1.0000
  H   H122      1.0  0.59031  0.23883  0.41629  1.0000
  H   H123      1.0  0.54123  0.24082  0.18561  1.0000
  H   H124      1.0  0.55277  0.29010  0.06449  1.0000
  H   H125      1.0  0.63082  0.25611  0.13373  1.0000
  H   H126      1.0  0.52630  0.21439  0.13728  1.0000
  H   H127      1.0  0.36219  0.00429  0.42482  1.0000
  H   H128      1.0  0.60256  0.30162  0.17336  1.0000
  S   S27       1.0  0.66527  0.30231  0.21712  1.0000
  N   N7        1.0  0.63629  0.29137  0.43130  1.0000
  H   H129      1.0  0.59710  0.24058  0.18475  1.0000
  Fe  Fe11      1.0  0.65283  0.34714  0.22983  1.0000
  H   H130      1.0  0.62346  0.32367  0.38228  1.0000
  H   H131      1.0  0.59963  0.32751  0.45653  1.0000
  H   H132      1.0  0.59164  0.31748  0.12167  1.0000
  H   H133      1.0  0.63368  0.31550  0.11938  1.0000
  N   N8        1.0  0.58301  0.26180  0.12419  1.0000
  C   C105      1.0  0.60000  0.24174  0.14601  1.0000
  C   C106      1.0  0.60357  0.30077  0.13502  1.0000
  C   C107      1.0  0.54331  0.24314  0.14674  1.0000
  C   C108      1.0  0.58468  0.26236  0.07286  1.0000
  C   C109      1.0  0.56722  0.27807  0.04726  1.0000
  C   C110      1.0  0.60444  0.24876  0.04665  1.0000
  H   H134      1.0  0.35538  0.31282  0.42996  1.0000
  Fe  Fe12      1.0  0.44530  0.19338  0.46068  1.0000
  H   H135      1.0  0.66882  0.35739  0.04802  1.0000
  C   C111      1.0  0.64300  0.31316  0.38507  1.0000
  H   H136      1.0  0.65360  0.25617  0.40058  1.0000
  C   C112      1.0  0.64404  0.31601  0.46814  1.0000
  C   C113      1.0  0.67662  0.34637  0.01956  1.0000
  H   H137      1.0  0.65592  0.25700  0.46191  1.0000
  C   C114      1.0  0.62180  0.33215  0.47705  1.0000
  C   C115      1.0  0.66016  0.27456  0.42862  1.0000
  H   H138      1.0  0.65456  0.45969  0.03954  1.0000
  H   H139      1.0  0.55601  0.29223  0.97967  1.0000
  H   H140      1.0  0.50914  0.20488  0.55490  1.0000
  S   S28       1.0  0.63737  0.28309  0.76910  1.0000
  Fe  Fe13      1.0  0.64666  0.32688  0.71099  1.0000
  S   S29       1.0  0.60975  0.32920  0.65906  1.0000
  C   C116      1.0  0.58304  0.17474  0.55136  1.0000
  Fe  Fe14      1.0  0.36722  0.13224  0.51010  1.0000
  H   H141      1.0  0.61963  0.16367  0.62259  1.0000
  Fe  Fe15      1.0  0.42416  0.19250  0.56361  1.0000
  H   H142      1.0  0.65416  0.20513  0.58269  1.0000
  S   S30       1.0  0.44633  0.19780  0.63346  1.0000
  C   C117      1.0  0.63377  0.25120  0.61384  1.0000
  H   H143      1.0  0.63352  0.47529  0.57856  1.0000
  C   C118      1.0  0.55669  0.16317  0.51987  1.0000
  H   H144      1.0  0.65477  0.20385  0.64408  1.0000
  C   C119      1.0  0.56436  0.29214  0.65298  1.0000
  C   C120      1.0  0.54373  0.26062  0.68686  1.0000
  C   C121      1.0  0.50741  0.23202  0.68067  1.0000
  C   C122      1.0  0.49177  0.23445  0.64031  1.0000
  C   C123      1.0  0.51264  0.26582  0.60631  1.0000
  C   C124      1.0  0.54859  0.29464  0.61288  1.0000
  H   H145      1.0  0.55542  0.25858  0.71814  1.0000
  H   H146      1.0  0.49131  0.20790  0.70723  1.0000
  H   H147      1.0  0.50083  0.26815  0.57530  1.0000
  H   H148      1.0  0.56415  0.31907  0.58682  1.0000
  H   H149      1.0  0.60249  0.16498  0.54859  1.0000
  C   C125      1.0  0.63733  0.43780  0.62824  1.0000
  H   H150      1.0  0.60984  0.36598  0.51934  1.0000
  H   H151      1.0  0.50946  0.16461  0.49713  1.0000
  C   C126      1.0  0.65204  0.47209  0.59983  1.0000
  C   C127      1.0  0.39648  0.33781  0.52959  1.0000
  S   S31       1.0  0.44757  0.23748  0.50193  1.0000
  H   H152      1.0  0.35715  0.02417  0.56730  1.0000
  H   H153      1.0  0.65103  0.36404  0.96975  1.0000
  H   H154      1.0  0.57180  0.20979  0.67555  1.0000
  H   H155      1.0  0.38023  0.03527  0.64369  1.0000
  H   H156      1.0  0.64804  0.40558  0.67912  1.0000
  C   C128      1.0  0.58891  0.19686  0.66822  1.0000
  H   H157      1.0  0.60851  0.41531  0.62811  1.0000
  H   H158      1.0  0.39229  0.43459  0.52696  1.0000
  C   C129      1.0  0.65957  0.43215  0.65708  1.0000
  C   C130      1.0  0.36111  0.41672  0.53012  1.0000
  Fe  Fe16      1.0  0.38682  0.21426  0.49066  1.0000
  H   H159      1.0  0.64885  0.26237  0.57763  1.0000
  H   H160      1.0  0.56939  0.16593  0.67401  1.0000
  H   H161      1.0  0.55532  0.22645  0.60933  1.0000
  S   S32       1.0  0.42568  0.14962  0.52330  1.0000
  C   C131      1.0  0.35968  0.36110  0.56925  1.0000
  N   N9        1.0  0.61004  0.20974  0.62023  1.0000
  C   C132      1.0  0.63562  0.19485  0.61691  1.0000
  H   H162      1.0  0.60822  0.20434  0.69532  1.0000
  S   S33       1.0  0.36350  0.17209  0.55575  1.0000
  C   C133      1.0  0.58338  0.19765  0.58540  1.0000
  C   C134      1.0  0.55646  0.20873  0.58498  1.0000
  C   C135      1.0  0.53004  0.19672  0.55371  1.0000
  S   S34       1.0  0.66080  0.34008  0.88244  1.0000
  H   H163      1.0  0.65526  0.26098  0.63819  1.0000
  H   H164      1.0  0.61711  0.26468  0.62100  1.0000
  C   C136      1.0  0.62748  0.35432  0.51280  1.0000
  H   H165      1.0  0.39260  0.28866  0.56457  1.0000
  H   H166      1.0  0.41425  0.33909  0.49912  1.0000
  H   H167      1.0  0.39433  0.38416  0.50013  1.0000
  C   C137      1.0  0.38448  0.36345  0.53061  1.0000
  C   C138      1.0  0.67313  0.32445  0.49629  1.0000
  H   H168      1.0  0.59026  0.26760  0.93643  1.0000
  C   C139      1.0  0.38415  0.30915  0.56648  1.0000
  C   C140      1.0  0.65538  0.36109  0.54066  1.0000
  C   C141      1.0  0.67652  0.33636  0.93701  1.0000
  C   C142      1.0  0.53008  0.17388  0.52130  1.0000
  H   H169      1.0  0.38595  0.42113  0.61448  1.0000
  H   H170      1.0  0.65911  0.37765  0.56902  1.0000
  C   C143      1.0  0.35996  0.30609  0.60486  1.0000
  H   H171      1.0  0.55654  0.14539  0.49445  1.0000
  Fe  Fe17      1.0  0.67479  0.33130  0.80761  1.0000
  H   H172      1.0  0.34987  0.43573  0.53272  1.0000
  C   C144      1.0  0.36903  0.00779  0.63269  1.0000
  C   C145      1.0  0.66682  0.35042  0.97488  1.0000
  C   C146      1.0  0.58800  0.26542  0.97424  1.0000
  H   H173      1.0  0.35325  0.40453  0.49707  1.0000
  C   C147      1.0  0.35505  0.40597  0.61354  1.0000
  C   C148      1.0  0.35605  0.00152  0.58961  1.0000
  C   C149      1.0  0.34789  0.33164  0.60641  1.0000
  H   H174      1.0  0.34996  0.28330  0.63308  1.0000
  H   H175      1.0  0.67257  0.43635  0.97222  1.0000
  N   N10       1.0  0.34548  0.38704  0.57117  1.0000
  H   H176      1.0  0.34591  0.42677  0.61476  1.0000
  H   H177      1.0  0.62176  0.24054  0.97865  1.0000
  C   C150      1.0  0.40994  0.59252  0.37122  1.0000
  Fe  Fe18      1.0  0.62275  0.81176  0.42002  1.0000
  S   S35       1.0  0.57369  0.80263  0.38140  1.0000
  H   H178      1.0  0.36109  0.58658  0.31102  1.0000
  Fe  Fe19      1.0  0.41217  0.67672  0.23697  1.0000
  S   S36       1.0  0.37677  0.62863  0.19809  1.0000
  S   S37       1.0  0.45494  0.67245  0.27731  1.0000
  Fe  Fe20      1.0  0.38026  0.67157  0.14209  1.0000
  S   S38       1.0  0.39829  0.67360  0.06361  1.0000
  H   H179      1.0  0.46634  0.80504  0.05457  1.0000
  S   S39       1.0  0.41995  0.71963  0.17865  1.0000
  H   H180      1.0  0.41905  0.58073  0.39938  1.0000
  C   C151      1.0  0.38180  0.67297  0.00819  1.0000
  C   C152      1.0  0.40856  0.81613  0.07269  1.0000
  C   C153      1.0  0.54156  0.76599  0.35220  1.0000
  C   C154      1.0  0.51482  0.77054  0.33079  1.0000
  C   C155      1.0  0.48821  0.74222  0.30772  1.0000
  C   C156      1.0  0.48795  0.70887  0.30597  1.0000
  C   C157      1.0  0.51429  0.70399  0.32805  1.0000
  C   C158      1.0  0.54105  0.73244  0.35101  1.0000
  H   H181      1.0  0.51491  0.79635  0.33163  1.0000
  H   H182      1.0  0.46809  0.74633  0.29099  1.0000
  H   H183      1.0  0.51433  0.67829  0.32683  1.0000
  H   H184      1.0  0.56136  0.72853  0.36752  1.0000
  H   H185      1.0  0.42932  0.62346  0.36575  1.0000
  C   C159      1.0  0.36539  0.59565  0.42680  1.0000
  H   H186      1.0  0.43230  0.84073  0.04954  1.0000
  H   H187      1.0  0.44335  0.78692  0.11333  1.0000
  C   C160      1.0  0.44022  0.78204  0.07627  1.0000
  C   C161      1.0  0.48884  0.72798  0.47454  1.0000
  H   H188      1.0  0.41462  0.58282  0.33796  1.0000
  H   H189      1.0  0.37906  0.62868  0.33568  1.0000
  Fe  Fe21      1.0  0.36736  0.71418  0.21563  1.0000
  H   H190      1.0  0.43884  0.75497  0.07349  1.0000
  H   H191      1.0  0.38235  0.81608  0.06829  1.0000
  H   H192      1.0  0.44879  0.76743  0.99437  1.0000
  H   H193      1.0  0.36986  0.72189  0.08538  1.0000
  H   H194      1.0  0.37522  0.75103  0.13017  1.0000
  C   C162      1.0  0.35965  0.59795  0.34411  1.0000
  S   S40       1.0  0.36563  0.76635  0.22618  1.0000
  N   N11       1.0  0.40613  0.78084  0.06246  1.0000
  C   C163      1.0  0.42628  0.77009  0.98252  1.0000
  H   H195      1.0  0.35390  0.52547  0.41256  1.0000
  H   H196      1.0  0.41296  0.82068  0.10968  1.0000
  C   C164      1.0  0.34652  0.54008  0.38568  1.0000
  C   C165      1.0  0.40195  0.77633  0.01269  1.0000
  H   H197      1.0  0.40263  0.65482  0.39872  1.0000
  S   S41       1.0  0.36285  0.67524  0.27630  1.0000
  H   H198      1.0  0.50454  0.74847  0.44408  1.0000
  N   N12       1.0  0.37003  0.58147  0.38299  1.0000
  H   H199      1.0  0.35029  0.53041  0.35203  1.0000
  S   S42       1.0  0.63234  0.85274  0.47110  1.0000
  S   S43       1.0  0.62747  0.77104  0.47049  1.0000
  H   H200      1.0  0.48668  0.68468  0.43702  1.0000
  C   C166      1.0  0.47875  0.69113  0.47002  1.0000
  C   C167      1.0  0.38454  0.63481  0.42888  1.0000
  C   C168      1.0  0.37291  0.74899  0.09236  1.0000
  H   H201      1.0  0.67195  0.67734  0.38246  1.0000
  C   C169      1.0  0.37198  0.77686  0.99338  1.0000
  C   C170      1.0  0.34875  0.67303  0.00292  1.0000
  H   H202      1.0  0.35790  0.81944  0.27654  1.0000
  H   H203      1.0  0.49167  0.79570  0.45193  1.0000
  H   H204      1.0  0.53673  0.80612  0.46770  1.0000
  H   H205      1.0  0.35165  0.78024  0.01453  1.0000
  C   C171      1.0  0.38101  0.64896  0.46991  1.0000
  H   H206      1.0  0.34621  0.74749  0.08664  1.0000
  H   H207      1.0  0.39606  0.67896  0.47064  1.0000
  H   H208      1.0  0.51678  0.83247  0.48613  1.0000
  S   S44       1.0  0.61882  0.80365  0.59584  1.0000
  Fe  Fe22      1.0  0.40953  0.66745  0.70476  1.0000
  H   H209      1.0  0.65355  0.53895  0.58230  1.0000
  S   S45       1.0  0.45828  0.66227  0.67524  1.0000
  C   C172      1.0  0.45898  0.66287  0.50779  1.0000
  S   S46       1.0  0.36387  0.62302  0.76013  1.0000
  S   S47       1.0  0.40802  0.71548  0.73260  1.0000
  H   H210      1.0  0.36052  0.79137  0.55381  1.0000
  H   H211      1.0  0.50336  0.77194  0.59382  1.0000
  C   C173      1.0  0.39205  0.67346  0.92306  1.0000
  H   H212      1.0  0.40901  0.67362  0.89266  1.0000
  C   C174      1.0  0.57351  0.76482  0.61623  1.0000
  C   C175      1.0  0.55217  0.76633  0.65506  1.0000
  C   C176      1.0  0.51610  0.73552  0.67238  1.0000
  C   C177      1.0  0.50188  0.70254  0.65203  1.0000
  C   C178      1.0  0.52350  0.70090  0.61361  1.0000
  C   C179      1.0  0.55886  0.73220  0.59509  1.0000
  H   H213      1.0  0.56346  0.79148  0.67164  1.0000
  H   H214      1.0  0.49981  0.73687  0.70236  1.0000
  H   H215      1.0  0.51271  0.67537  0.59792  1.0000
  H   H216      1.0  0.57506  0.73071  0.56520  1.0000
  H   H217      1.0  0.37762  0.98380  0.69505  1.0000
  C   C180      1.0  0.35268  0.94315  0.64753  1.0000
  C   C181      1.0  0.50953  0.80369  0.48047  1.0000
  H   H218      1.0  0.45150  0.71325  0.58904  1.0000
  C   C182      1.0  0.44897  0.67130  0.55012  1.0000
  S   S48       1.0  0.36973  0.74969  0.62929  1.0000
  H   H219      1.0  0.42881  0.67301  0.97127  1.0000
  Fe  Fe23      1.0  0.36479  0.70478  0.68407  1.0000
  C   C183      1.0  0.35933  0.67410  0.91774  1.0000
  S   S49       1.0  0.37036  0.66033  0.65266  1.0000
  H   H220      1.0  0.43410  0.64946  0.57985  1.0000
  C   C184      1.0  0.51653  0.78928  0.55911  1.0000
  H   H221      1.0  0.35676  0.63573  0.54220  1.0000
  H   H222      1.0  0.64336  0.75471  0.64455  1.0000
  H   H223      1.0  0.46342  0.80687  0.54385  1.0000
  H   H224      1.0  0.37434  0.91255  0.54700  1.0000
  C   C185      1.0  0.42117  0.76551  0.93586  1.0000
  H   H225      1.0  0.52638  0.81874  0.56446  1.0000
  C   C186      1.0  0.45897  0.70806  0.55499  1.0000
  H   H226      1.0  0.64479  0.71307  0.64301  1.0000
  H   H227      1.0  0.67573  0.74925  0.67600  1.0000
  H   H228      1.0  0.54199  0.78794  0.54811  1.0000
  H   H229      1.0  0.65071  0.76227  0.56139  1.0000
  Fe  Fe24      1.0  0.64125  0.81440  0.51905  1.0000
  H   H230      1.0  0.43940  0.75978  0.91379  1.0000
  C   C187      1.0  0.45644  0.77777  0.54068  1.0000
  C   C188      1.0  0.40322  0.67310  0.96784  1.0000
  N   N13       1.0  0.49029  0.77647  0.52385  1.0000
  C   C189      1.0  0.47926  0.73761  0.51735  1.0000
  H   H231      1.0  0.44269  0.76159  0.57598  1.0000
  H   H232      1.0  0.65731  0.72355  0.55638  1.0000
  C   C190      1.0  0.66287  0.74381  0.64315  1.0000
  C   C191      1.0  0.35891  0.62466  0.51023  1.0000
  H   H233      1.0  0.45139  0.63439  0.50431  1.0000
  C   C192      1.0  0.39160  0.76638  0.91803  1.0000
  H   H234      1.0  0.43495  0.76617  0.51653  1.0000
  H   H235      1.0  0.35219  0.92194  0.67165  1.0000
  H   H236      1.0  0.35035  0.87689  0.62816  1.0000
  C   C193      1.0  0.36700  0.77197  0.94675  1.0000
  H   H237      1.0  0.66925  0.51601  0.51457  1.0000
  H   H238      1.0  0.38701  0.76138  0.88229  1.0000
  Fe  Fe25      1.0  0.35936  0.67055  0.78519  1.0000
  H   H239      1.0  0.34801  0.51918  0.61138  1.0000
  C   C194      1.0  0.67213  0.75395  0.55958  1.0000
  C   C195      1.0  0.36746  0.97873  0.66152  1.0000
  H   H240      1.0  0.85822  0.36799  0.37872  1.0000
  S   S50       1.0  0.85472  0.18175  0.42450  1.0000
  C   C196      1.0  0.74415  0.45121  0.03539  1.0000
  C   C197      1.0  0.88705  0.06274  0.37101  1.0000
  Fe  Fe26      1.0  0.83646  0.22374  0.41626  1.0000
  S   S51       1.0  0.83290  0.24869  0.34599  1.0000
  C   C198      1.0  0.69558  0.32735  0.02731  1.0000
  H   H241      1.0  0.76877  0.47638  0.29074  1.0000
  Fe  Fe27      1.0  0.73511  0.40955  0.20603  1.0000
  S   S52       1.0  0.69883  0.37632  0.27349  1.0000
  S   S53       1.0  0.77650  0.47219  0.18832  1.0000
  Fe  Fe28      1.0  0.70346  0.34138  0.15282  1.0000
  S   S54       1.0  0.70630  0.31881  0.08367  1.0000
  Fe  Fe29      1.0  0.71373  0.33340  0.25702  1.0000
  H   H242      1.0  0.76942  0.29051  0.44930  1.0000
  S   S55       1.0  0.75374  0.36881  0.19193  1.0000
  C   C199      1.0  0.78941  0.40679  0.42463  1.0000
  C   C200      1.0  0.87015  0.06540  0.45329  1.0000
  H   H243      1.0  0.80551  0.28043  0.45953  1.0000
  C   C201      1.0  0.79860  0.26065  0.33803  1.0000
  C   C202      1.0  0.80310  0.28363  0.29712  1.0000
  C   C203      1.0  0.77761  0.29570  0.29103  1.0000
  C   C204      1.0  0.74735  0.28468  0.32584  1.0000
  C   C205      1.0  0.74235  0.26098  0.36624  1.0000
  C   C206      1.0  0.76785  0.24899  0.37235  1.0000
  H   H244      1.0  0.82677  0.29261  0.27034  1.0000
  H   H245      1.0  0.78172  0.31391  0.25975  1.0000
  H   H246      1.0  0.71876  0.25197  0.39307  1.0000
  H   H247      1.0  0.76380  0.23081  0.40359  1.0000
  C   C207      1.0  0.89265  0.08272  0.40907  1.0000
  C   C208      1.0  0.73313  0.46486  0.07308  1.0000
  S   S56       1.0  0.71651  0.30163  0.32211  1.0000
  C   C209      1.0  0.77413  0.05403  0.44080  1.0000
  H   H248      1.0  0.79132  0.08105  0.41957  1.0000
  N   N14       1.0  0.82465  0.33921  0.44574  1.0000
  H   H249      1.0  0.77526  0.02310  0.38496  1.0000
  C   C210      1.0  0.78477  0.43192  0.99427  1.0000
  C   C211      1.0  0.85845  0.35089  0.46947  1.0000
  C   C212      1.0  0.81159  0.48494  0.03636  1.0000
  C   C213      1.0  0.85920  0.02494  0.37592  1.0000
  H   H250      1.0  0.76060  0.40322  0.99264  1.0000
  S   S57       1.0  0.68744  0.38420  0.16296  1.0000
  H   H251      1.0  0.80985  0.42915  0.99567  1.0000
  H   H252      1.0  0.88041  0.38073  0.45735  1.0000
  N   N15       1.0  0.77768  0.44763  0.03550  1.0000
  H   H253      1.0  0.85426  0.00959  0.34623  1.0000
  C   C214      1.0  0.83705  0.00695  0.41893  1.0000
  H   H254      1.0  0.87117  0.33358  0.46268  1.0000
  H   H255      1.0  0.74585  0.39528  0.08048  1.0000
  H   H256      1.0  0.84731  0.32071  0.39109  1.0000
  C   C215      1.0  0.79556  0.30016  0.46546  1.0000
  S   S58       1.0  0.88035  0.26323  0.45681  1.0000
  H   H257      1.0  0.90398  0.07676  0.33732  1.0000
  C   C216      1.0  0.76484  0.02100  0.42115  1.0000
  C   C217      1.0  0.83593  0.33946  0.39568  1.0000
  C   C218      1.0  0.77274  0.42247  0.07777  1.0000
  H   H258      1.0  0.81159  0.32901  0.37579  1.0000
  H   H259      1.0  0.80831  0.38045  0.37985  1.0000
  H   H260      1.0  0.84551  0.11120  0.46621  1.0000
  H   H261      1.0  0.74895  0.47303  0.10217  1.0000
  H   H262      1.0  0.91436  0.11208  0.40339  1.0000
  H   H263      1.0  0.77222  0.43445  0.11048  1.0000
  C   C219      1.0  0.70569  0.31367  0.98934  1.0000
  H   H264      1.0  0.79583  0.41646  0.07772  1.0000
  C   C220      1.0  0.70117  0.46778  0.07449  1.0000
  C   C221      1.0  0.80961  0.36399  0.45334  1.0000
  C   C222      1.0  0.84215  0.02670  0.45715  1.0000
  C   C223      1.0  0.80303  0.38311  0.41606  1.0000
  H   H265      1.0  0.72034  0.29889  0.99481  1.0000
  H   H266      1.0  0.89560  0.14103  0.45140  1.0000
  H   H267      1.0  0.78513  0.42156  0.39565  1.0000
  H   H268      1.0  0.83758  0.48353  0.03495  1.0000
  H   H269      1.0  0.93680  0.12016  0.47519  1.0000
  C   C224      1.0  0.68963  0.44447  0.00037  1.0000
  H   H270      1.0  0.80996  0.49683  0.06898  1.0000
  H   H271      1.0  0.69319  0.47779  0.10415  1.0000
  H   H272      1.0  0.69054  0.29647  0.41930  1.0000
  Fe  Fe30      1.0  0.89517  0.21924  0.47099  1.0000
  S   S59       1.0  0.95321  0.22475  0.46247  1.0000
  C   C225      1.0  0.99732  0.26074  0.47631  1.0000
  C   C226      1.0  0.72151  0.44133  0.99869  1.0000
  C   C227      1.0  0.67942  0.45755  0.03823  1.0000
  H   H273      1.0  0.77194  0.43106  0.47645  1.0000
  S   S60       1.0  0.79025  0.19518  0.47722  1.0000
  C   C228      1.0  0.78175  0.41203  0.47018  1.0000
  Fe  Fe31      1.0  0.83487  0.23276  0.51869  1.0000
  S   S61       1.0  0.82988  0.27422  0.56067  1.0000
  S   S62       1.0  0.78381  0.42948  0.68811  1.0000
  S   S63       1.0  0.85294  0.19139  0.53632  1.0000
  H   H274      1.0  0.85051  0.42415  0.64622  1.0000
  H   H275      1.0  0.79013  0.45011  0.96106  1.0000
  H   H276      1.0  0.99326  0.17343  0.50559  1.0000
  C   C229      1.0  0.69653  0.31839  0.94442  1.0000
  S   S64       1.0  0.72843  0.33554  0.77685  1.0000
  H   H277      1.0  0.80358  0.35462  0.52943  1.0000
  S   S65       1.0  0.77428  0.09264  0.51568  1.0000
  C   C230      1.0  0.79011  0.26374  0.60009  1.0000
  C   C231      1.0  0.78705  0.29357  0.61396  1.0000
  C   C232      1.0  0.75790  0.28706  0.64843  1.0000
  C   C233      1.0  0.73171  0.25060  0.66975  1.0000
  C   C234      1.0  0.73409  0.22061  0.65500  1.0000
  C   C235      1.0  0.76309  0.22711  0.62004  1.0000
  H   H278      1.0  0.80816  0.32195  0.59923  1.0000
  H   H279      1.0  0.75657  0.31033  0.65983  1.0000
  H   H280      1.0  0.71397  0.19230  0.67139  1.0000
  H   H281      1.0  0.76532  0.20394  0.60981  1.0000
  C   C236      1.0  0.80035  0.36906  0.49939  1.0000
  H   H282      1.0  0.70400  0.30715  0.91589  1.0000
  C   C237      1.0  0.91470  0.10109  0.50471  1.0000
  C   C238      1.0  0.78698  0.39301  0.50753  1.0000
  H   H283      1.0  0.69220  0.31439  0.49134  1.0000
  H   H284      1.0  0.78098  0.39725  0.54292  1.0000
  C   C239      1.0  0.78122  0.45112  0.63516  1.0000
  C   C240      1.0  0.75088  0.43193  0.61052  1.0000
  C   C241      1.0  0.74919  0.44934  0.56832  1.0000
  H   H285      1.0  0.88226  0.35027  0.64610  1.0000
  H   H286      1.0  0.72842  0.40387  0.62413  1.0000
  H   H287      1.0  0.72555  0.43444  0.54956  1.0000
  S   S66       1.0  0.69642  0.24192  0.71559  1.0000
  C   C242      1.0  0.87283  0.12022  0.47922  1.0000
  H   H288      1.0  0.86176  0.28417  0.65624  1.0000
  N   N16       1.0  0.85504  0.38666  0.69692  1.0000
  C   C243      1.0  0.84269  0.39433  0.65308  1.0000
  C   C244      1.0  0.83883  0.39795  0.73538  1.0000
  C   C245      1.0  0.89667  0.41084  0.69286  1.0000
  C   C246      1.0  0.84318  0.34654  0.70441  1.0000
  C   C247      1.0  0.81297  0.32002  0.73902  1.0000
  H   H289      1.0  0.85521  0.38821  0.62220  1.0000
  H   H290      1.0  0.80776  0.38402  0.73741  1.0000
  H   H291      1.0  0.84922  0.42849  0.72982  1.0000
  H   H292      1.0  0.84581  0.39151  0.76977  1.0000
  H   H293      1.0  0.91137  0.40868  0.66065  1.0000
  H   H294      1.0  0.90599  0.44107  0.69106  1.0000
  H   H295      1.0  0.90733  0.40345  0.72340  1.0000
  H   H296      1.0  0.79724  0.32762  0.76231  1.0000
  H   H297      1.0  0.77729  0.26207  0.76916  1.0000
  C   C248      1.0  0.81922  0.26929  0.71441  1.0000
  C   C249      1.0  0.80127  0.28201  0.74367  1.0000
  C   C250      1.0  0.84888  0.29447  0.68021  1.0000
  H   H298      1.0  0.81149  0.37692  0.65502  1.0000
  C   C251      1.0  0.86049  0.33245  0.67480  1.0000
  C   C252      1.0  0.73870  0.01624  0.51433  1.0000
  C   C253      1.0  0.77750  0.48619  0.55070  1.0000
  C   C254      1.0  0.99960  0.28240  0.51179  1.0000
  H   H299      1.0  0.92003  0.11731  0.53483  1.0000
  Fe  Fe32      1.0  0.73037  0.37552  0.71868  1.0000
  H   H300      1.0  0.00353  0.23803  0.61677  1.0000
  H   H301      1.0  0.87412  0.13586  0.50906  1.0000
  H   H302      1.0  0.80930  0.23965  0.71721  1.0000
  H   H303      1.0  0.97414  0.27927  0.52952  1.0000
  H   H304      1.0  0.85193  0.34725  0.50808  1.0000
  Fe  Fe33      1.0  0.69184  0.29104  0.73425  1.0000
  H   H305      1.0  0.96504  0.19622  0.56242  1.0000
  H   H306      1.0  0.71398  0.45580  0.67961  1.0000
  C   C255      1.0  0.84909  0.06584  0.53573  1.0000
  H   H307      1.0  0.72851  0.01412  0.55063  1.0000
  C   C256      1.0  0.76125  0.05191  0.48769  1.0000
  H   H308      1.0  0.81963  0.05533  0.52912  1.0000
  H   H309      1.0  0.78791  0.29695  0.50385  1.0000
  S   S67       1.0  0.69848  0.33145  0.67426  1.0000
  C   C257      1.0  0.99382  0.20304  0.56288  1.0000
  C   C258      1.0  0.00976  0.19012  0.53093  1.0000
  C   C259      1.0  0.69665  0.46057  0.65745  1.0000
  Fe  Fe34      1.0  0.81176  0.15568  0.48901  1.0000
  H   H310      1.0  0.85127  0.04162  0.54948  1.0000
  N   N17       1.0  0.87632  0.08743  0.49278  1.0000
  C   C260      1.0  0.80980  0.48794  0.61735  1.0000
  S   S68       1.0  0.67946  0.37455  0.75138  1.0000
  H   H311      1.0  0.85365  0.08342  0.56430  1.0000
  H   H312      1.0  0.72737  0.43051  0.96857  1.0000
  H   H313      1.0  0.91886  0.07730  0.51388  1.0000
  H   H314      1.0  0.70033  0.35236  0.55373  1.0000
  C   C261      1.0  0.71189  0.49475  0.62865  1.0000
  C   C262      1.0  0.67837  0.34650  0.53218  1.0000
  H   H315      1.0  0.82287  0.01114  0.48875  1.0000
  H   H316      1.0  0.81643  0.55016  0.16084  1.0000
  S   S69       1.0  0.86640  0.67043  0.40661  1.0000
  H   H317      1.0  0.76406  0.77247  0.29562  1.0000
  Fe  Fe35      1.0  0.69007  0.80500  0.44440  1.0000
  Fe  Fe36      1.0  0.83937  0.61580  0.37599  1.0000
  S   S70       1.0  0.83591  0.61378  0.29865  1.0000
  S   S71       1.0  0.73218  0.78569  0.42772  1.0000
  H   H318      1.0  0.70166  0.64111  0.37158  1.0000
  H   H319      1.0  0.79561  0.73762  0.28277  1.0000
  C   C263      1.0  0.74108  0.74900  0.44317  1.0000
  S   S72       1.0  0.73417  0.94488  0.42184  1.0000
  H   H320      1.0  0.83951  0.60484  0.20324  1.0000
  H   H321      1.0  0.81475  0.97772  0.42227  1.0000
  H   H322      1.0  0.79312  0.53211  0.33402  1.0000
  H   H323      1.0  0.80151  0.69422  0.24846  1.0000
  C   C264      1.0  0.69856  0.68973  0.35980  1.0000
  C   C265      1.0  0.81811  0.57246  0.27153  1.0000
  H   H324      1.0  0.99138  0.65723  0.38734  1.0000
  H   H325      1.0  0.98256  0.73551  0.42560  1.0000
  H   H326      1.0  0.70241  0.74277  0.34491  1.0000
  C   C266      1.0  0.79799  0.53598  0.29624  1.0000
  Fe  Fe37      1.0  0.88784  0.64236  0.45457  1.0000
  C   C267      1.0  0.78472  0.72586  0.43703  1.0000
  Fe  Fe38      1.0  0.69396  0.88151  0.44448  1.0000
  H   H327      1.0  0.81204  0.73059  0.42405  1.0000
  C   C268      1.0  0.77594  0.75367  0.42562  1.0000
  C   C269      1.0  0.76827  0.72313  0.30386  1.0000
  S   S73       1.0  0.86447  0.59009  0.41936  1.0000
  S   S74       1.0  0.78573  0.59024  0.42456  1.0000
  Fe  Fe39      1.0  0.81241  0.56808  0.47077  1.0000
  N   N18       1.0  0.77127  0.66471  0.31708  1.0000
  C   C270      1.0  0.80661  0.68275  0.33808  1.0000
  C   C271      1.0  0.74890  0.62474  0.33823  1.0000
  C   C272      1.0  0.78073  0.66556  0.26631  1.0000
  C   C273      1.0  0.75153  0.68530  0.32455  1.0000
  C   C274      1.0  0.71565  0.72664  0.33861  1.0000
  C   C275      1.0  0.82409  0.57697  0.22270  1.0000
  Fe  Fe40      1.0  0.81294  0.64250  0.45860  1.0000
  H   H328      1.0  0.79651  0.77924  0.40324  1.0000
  H   H329      1.0  0.82290  0.66884  0.33170  1.0000
  H   H330      1.0  0.82561  0.71273  0.32354  1.0000
  C   C276      1.0  0.75863  0.69271  0.46622  1.0000
  H   H331      1.0  0.76429  0.60993  0.33099  1.0000
  C   C277      1.0  0.74254  0.98533  0.44788  1.0000
  H   H332      1.0  0.80064  0.68126  0.37657  1.0000
  H   H333      1.0  0.79377  0.64845  0.25976  1.0000
  H   H334      1.0  0.75510  0.65427  0.24863  1.0000
  C   C278      1.0  0.81092  0.54586  0.19859  1.0000
  C   C279      1.0  0.00923  0.63711  0.33051  1.0000
  H   H335      1.0  0.74308  0.62187  0.37699  1.0000
  H   H336      1.0  0.72183  0.60935  0.32390  1.0000
  C   C280      1.0  0.99216  0.69876  0.47028  1.0000
  H   H337      1.0  0.98105  0.61393  0.32903  1.0000
  C   C281      1.0  0.71613  0.66923  0.35321  1.0000
  C   C282      1.0  0.75049  0.74337  0.31088  1.0000
  S   S75       1.0  0.68425  0.84283  0.38995  1.0000
  C   C283      1.0  0.00325  0.73238  0.44226  1.0000
  C   C284      1.0  0.78411  0.50439  0.27174  1.0000
  H   H338      1.0  0.81538  0.50531  0.00632  1.0000
  C   C285      1.0  0.79083  0.50941  0.22263  1.0000
  C   C286      1.0  0.71481  0.71567  0.47197  1.0000
  H   H339      1.0  0.75148  0.57265  0.60480  1.0000
  H   H340      1.0  0.83335  0.50298  0.63625  1.0000
  C   C287      1.0  0.74907  0.76498  0.56011  1.0000
  H   H341      1.0  0.68684  0.56059  0.62215  1.0000
  S   S76       1.0  0.83618  0.61815  0.50911  1.0000
  S   S77       1.0  0.70388  0.84598  0.49649  1.0000
  C   C288      1.0  0.77424  0.75243  0.55499  1.0000
  H   H342      1.0  0.68773  0.71129  0.48533  1.0000
  H   H343      1.0  0.82987  0.53405  0.56177  1.0000
  C   C289      1.0  0.71234  0.80306  0.60284  1.0000
  S   S78       1.0  0.77347  0.50658  0.49795  1.0000
  H   H344      1.0  0.75591  0.59113  0.54571  1.0000
  C   C290      1.0  0.72934  0.98320  0.49464  1.0000
  C   C291      1.0  0.77026  0.72371  0.58690  1.0000
  H   H345      1.0  0.71293  0.55848  0.49561  1.0000
  H   H346      1.0  0.71223  0.95611  0.51577  1.0000
  H   H347      1.0  0.75267  0.78645  0.53332  1.0000
  H   H348      1.0  0.69436  0.70663  0.65999  1.0000
  H   H349      1.0  0.78934  0.71348  0.58195  1.0000
  H   H350      1.0  0.73859  0.68555  0.64942  1.0000
  H   H351      1.0  0.79628  0.76432  0.52521  1.0000
  C   C292      1.0  0.71911  0.74921  0.59779  1.0000
  C   C293      1.0  0.74146  0.70785  0.62462  1.0000
  H   H352      1.0  0.76255  0.55257  0.55751  1.0000
  C   C294      1.0  0.69933  0.53156  0.51962  1.0000
  H   H353      1.0  0.69158  0.76918  0.52651  1.0000
  C   C295      1.0  0.74539  0.56457  0.56945  1.0000
  N   N19       1.0  0.69200  0.76208  0.60121  1.0000
  H   H354      1.0  0.74114  0.51500  0.62993  1.0000
  H   H355      1.0  0.73250  0.81941  0.57069  1.0000
  C   C296      1.0  0.71615  0.72030  0.63024  1.0000
  H   H356      1.0  0.72850  0.81041  0.63299  1.0000
  N   N20       1.0  0.70467  0.53782  0.56888  1.0000
  H   H357      1.0  0.70321  0.66253  0.50630  1.0000
  H   H358      1.0  0.71187  0.51528  0.50734  1.0000
  H   H359      1.0  0.69262  0.81359  0.60621  1.0000
  C   C297      1.0  0.80782  0.50561  0.57531  1.0000
  C   C298      1.0  0.68991  0.50161  0.59890  1.0000
  C   C299      1.0  0.72363  0.68788  0.48353  1.0000
  S   S79       1.0  0.76858  0.65712  0.48387  1.0000
  C   C300      1.0  0.68409  0.55604  0.58498  1.0000
  H   H360      1.0  0.69518  0.58387  0.56376  1.0000
  S   S80       1.0  0.94479  0.66001  0.47971  1.0000
