data_image0
_chemical_formula_structural       FeHSFeSC2HS2FeCSFeSHCHS2CHC4H2CH3CH2CHC2FeH4SHCH3CHSC2NHCSHFeCH4NCHSC2H3CHC2HCHCH2NH2C2HCHC5HSCSCH2S2CFeSHCHFeHSH2CSHSHFeSHSFeSFeSHFeS2FeS2C2S2C6H4C3H3NC2HC6H4FeC6H2CHCHC3SFeHNC9H14C3H3CH3NH4CFeH2CNH2CHCH5CH2CSHFeHCSH2CNFeSCFeHSFeH3S2NH2C6H5SH2C5H7C2HC2HCH4CH3FeC2H2C2H2CH3NH4FeS2FeS2FeSFeS3HFeSH3NCSH2FeS2FeS2FeSFeS3C6H4C6H4C2H2C8H4C3H3C4H3C7H5C2H4C3HC2HCHC3H3C2HC2H2C2H2FeH3CNC9H15C2HCH2CH2C2HNC4SHSH2C2HCH3CHCHNCH2FeC2HC2H5C2H3CHCHCNH4C2H3NCHC2HCHSC2HNH4C2H2CHCHCHNH5SCH8CNH2CH3CFeH2C2HSHCH2SFeS2FeSFeSFeS2FeS2FeSFeS3FeSCHFeS2FeS2FeSFeS7C6H4C7H3C6H4C6H4C6H4C7H3C6H4C6H4C6H4C6H3CSC2HFeHCH2Fe2HC4SHSNC9H14CH5NC9H15NC9H15NHC4HC3HCH3C2H3C2H5CHCNCHSC2HCSCHNCHCH2C2H2CH4C2HC2HSCH3CHCH3C4NHC2SC2HSCH2C2FeNHC2H2C3SCH6CH3C2H3C2H4CNHCH3CSCH5C4H3CNCHCHNCH9SC2HC2HCH2FeH4CSHSCHSFeSHFeS2FeHFeS3FeC2HFeS2CFeS2FeS2FeSFeS3C6H4C6H4CH3C2HC7H9C6H4C10H4C2H2CNH2CHCHCH4NC9H14CHC3H2CHSC2HSHCH2CH2CH4NHCH5CHSCHCH2CH2CNHCH2C2HC5HCH4C2NCHCH2C2H2CH5SHCSCHFeC2HCHC2HSCHSCS2FeS2FeS2FeS2FeSFeS3HFeHSHFeS2FeS2FeSFeS3CHC2HC2H4C3H4C6H4C6H4C6H4C2NCHCHC6H4CHC2NC9H14NCHC3H9NH4CHC2HC2SC4H2CHCH2FeHNH2C2NC7H3CHSHCH4CHC2HCHC4HC2H5NC6H2CH11CH7C2HCHC2HCHSH3CH4CHCH2SH2CHFeH2C3H4CHC4H2CHFeH3S2FeS2FeS2FeSFeS5FeSFeSFeS3HSHS4HSHFeS2FeS2FeSFeS3CHNH2C6H4C6H3C6H4C6H4C6H4C3H2C6H4C6H4C6H4C6H4C6H4FeC2NC2H5C2HNC8H2NHSH2C2H5NC9H13NC9HFeH4CH8C2HCSH12FeCHCH3C3H2C2H2CH8CNHSC7H2C2H3CH6NC4HCH2CH5SCH5CHNC8HFeC2H2SHCH5CNC9H12FeHSFeH2CH4CHSHCH3CH2C2HFeH2C2SHC2H2FeHFeH3SH3SH2C2SHSFeS2FeS2FeSFeS3Fe2HSHFeH2FeS2FeS2FeSFeS3HC6H7CHC6H7SCHC7H4CSCH4C7H6NC8H8CH3CNC8HCHCHSHCHCSCHCH4CSH3CHCHCHC3NH5C2SHFeCFeCHCH4NHSH2CHC3HCSH2CH2C2HC2NC3H2C2SFeH3SH2CHCH3SHCH2C2SCHCHCHNH2C2HCH3C4H2CSNSC2SFeHSH2SCHCH2CHC6SH5FeH2CHC3HFeC3H3C3SH2CH2CHC2H2FeHSH2SFeSFeHSC2HSFeS2FeSHS2FeCSFeSH3S2C6SH3C4HC6H4CH2C3H5C2FeH4CH6CHC2HFeCHNH2FeC3H3CSCH3SFeHSH2C2HCHCHCHCHCHCNHCSHNCSHCFeH2CH3CH4SH2C2H3SC2SFe2HS2HCHSC2HC4H2C2H2CHSH2C2H3CHCNCH5CH3NH3SHFeHCFeH2C2HFeH2CHCH
_chemical_formula_sum              "Fe128 H1152 S256 C960 N64"
_cell_length_a       52.6383
_cell_length_b       52.4722
_cell_length_c       75.9167
_cell_angle_alpha    90.4688
_cell_angle_beta     90.3638
_cell_angle_gamma    116.946

_space_group_name_H-M_alt    "P 1"
_space_group_IT_number       1

loop_
  _space_group_symop_operation_xyz
  'x, y, z'

loop_
  _atom_site_type_symbol
  _atom_site_label
  _atom_site_symmetry_multiplicity
  _atom_site_fract_x
  _atom_site_fract_y
  _atom_site_fract_z
  _atom_site_occupancy
  Fe  Fe1       1.0  0.45691  0.08751  0.06994  1.0000
  H   H1        1.0  0.42293  0.04831  0.11845  1.0000
  S   S1        1.0  0.41923  0.04436  0.07678  1.0000
  Fe  Fe2       1.0  0.47607  0.14298  0.04800  1.0000
  S   S2        1.0  0.46019  0.16168  0.02595  1.0000
  C   C1        1.0  0.47657  0.19818  0.01975  1.0000
  C   C2        1.0  0.43868  0.49648  0.01279  1.0000
  H   H2        1.0  0.47545  0.34124  0.06212  1.0000
  S   S3        1.0  0.47689  0.10078  0.04335  1.0000
  S   S4        1.0  0.45260  0.12824  0.07351  1.0000
  Fe  Fe3       1.0  0.11074  0.45317  0.06830  1.0000
  C   C3        1.0  0.46473  0.20688  0.00576  1.0000
  S   S5        1.0  0.06669  0.43176  0.08168  1.0000
  Fe  Fe4       1.0  0.16051  0.45878  0.04406  1.0000
  S   S6        1.0  0.17494  0.44049  0.02095  1.0000
  H   H3        1.0  0.01220  0.42126  0.09589  1.0000
  C   C4        1.0  0.43238  0.28363  0.00816  1.0000
  H   H4        1.0  0.45578  0.02067  0.06193  1.0000
  S   S7        1.0  0.14625  0.44024  0.07113  1.0000
  S   S8        1.0  0.12265  0.46795  0.04039  1.0000
  C   C5        1.0  0.13437  0.46698  0.12093  1.0000
  H   H5        1.0  0.42574  0.09447  0.11895  1.0000
  C   C6        1.0  0.21125  0.44940  0.01676  1.0000
  C   C7        1.0  0.23255  0.46225  0.02963  1.0000
  C   C8        1.0  0.44640  0.05786  0.12078  1.0000
  C   C9        1.0  0.13462  0.49396  0.17986  1.0000
  H   H6        1.0  0.46973  0.35495  0.01415  1.0000
  H   H7        1.0  0.41910  0.06596  0.14709  1.0000
  C   C10       1.0  0.03126  0.41332  0.07276  1.0000
  H   H8        1.0  0.03626  0.36389  0.09432  1.0000
  H   H9        1.0  0.04286  0.40081  0.04825  1.0000
  H   H10       1.0  0.14446  0.45601  0.12870  1.0000
  C   C11       1.0  0.10283  0.48900  0.12097  1.0000
  H   H11       1.0  0.00884  0.33435  0.06896  1.0000
  H   H12       1.0  0.45067  0.04123  0.12724  1.0000
  C   C12       1.0  0.41453  0.00877  0.07310  1.0000
  H   H13       1.0  0.43889  0.25142  0.02194  1.0000
  C   C13       1.0  0.26845  0.46138  0.00950  1.0000
  C   C14       1.0  0.11999  0.47795  0.16498  1.0000
  Fe  Fe5       1.0  0.49625  0.14715  0.08622  1.0000
  H   H14       1.0  0.12817  0.48540  0.19293  1.0000
  H   H15       1.0  0.44933  0.06322  0.15638  1.0000
  H   H16       1.0  0.07878  0.43271  0.12256  1.0000
  H   H17       1.0  0.45360  0.12419  0.13020  1.0000
  S   S9        1.0  0.20447  0.49384  0.10401  1.0000
  H   H18       1.0  0.38807  0.39070  0.02495  1.0000
  C   C15       1.0  0.44129  0.31281  0.00626  1.0000
  H   H19       1.0  0.10248  0.45720  0.16738  1.0000
  H   H20       1.0  0.30074  0.39175  0.02112  1.0000
  H   H21       1.0  0.49019  0.13481  0.14949  1.0000
  C   C16       1.0  0.44550  0.27414  0.02066  1.0000
  H   H22       1.0  0.12418  0.45359  0.10900  1.0000
  S   S10       1.0  0.49857  0.10549  0.08486  1.0000
  C   C17       1.0  0.44271  0.07731  0.14875  1.0000
  C   C18       1.0  0.46782  0.29380  0.03114  1.0000
  N   N1        1.0  0.45725  0.08463  0.13152  1.0000
  H   H23       1.0  0.44760  0.09661  0.15701  1.0000
  C   C19       1.0  0.46358  0.33270  0.01669  1.0000
  S   S11       1.0  0.13795  0.49702  0.08002  1.0000
  H   H24       1.0  0.22707  0.46718  0.04249  1.0000
  Fe  Fe6       1.0  0.17387  0.48530  0.08090  1.0000
  C   C20       1.0  0.02542  0.39937  0.05635  1.0000
  H   H25       1.0  0.09097  0.47691  0.10898  1.0000
  H   H26       1.0  0.27695  0.47693  0.03633  1.0000
  H   H27       1.0  0.32185  0.42016  0.00617  1.0000
  H   H28       1.0  0.49268  0.38001  0.03940  1.0000
  N   N2        1.0  0.11371  0.47231  0.13158  1.0000
  C   C21       1.0  0.50221  0.25576  0.00856  1.0000
  H   H29       1.0  0.07244  0.44651  0.14277  1.0000
  S   S12       1.0  0.19009  0.50258  0.05417  1.0000
  C   C22       1.0  0.26086  0.46779  0.02609  1.0000
  C   C23       1.0  0.47785  0.32375  0.02934  1.0000
  H   H30       1.0  0.47777  0.28528  0.04027  1.0000
  H   H31       1.0  0.45598  0.06187  0.10744  1.0000
  H   H32       1.0  0.46067  0.11191  0.10981  1.0000
  C   C24       1.0  0.08917  0.44411  0.13509  1.0000
  H   H33       1.0  0.15197  0.48715  0.11617  1.0000
  C   C25       1.0  0.49315  0.50251  0.02018  1.0000
  C   C26       1.0  0.44889  0.10458  0.12232  1.0000
  H   H34       1.0  0.09606  0.42979  0.14221  1.0000
  C   C27       1.0  0.01334  0.35119  0.09527  1.0000
  H   H35       1.0  0.01137  0.36593  0.12141  1.0000
  C   C28       1.0  0.48856  0.09845  0.13438  1.0000
  H   H36       1.0  0.49154  0.31755  0.06335  1.0000
  H   H37       1.0  0.27752  0.34123  0.01018  1.0000
  N   N3        1.0  0.50222  0.34408  0.04022  1.0000
  H   H38       1.0  0.34743  0.40027  0.02117  1.0000
  H   H39       1.0  0.49818  0.06748  0.11981  1.0000
  C   C29       1.0  0.00808  0.41075  0.08313  1.0000
  C   C30       1.0  0.49512  0.33916  0.05916  1.0000
  H   H40       1.0  0.49228  0.50204  0.06235  1.0000
  C   C31       1.0  0.30286  0.39890  0.00722  1.0000
  H   H41       1.0  0.08817  0.49455  0.12879  1.0000
  C   C32       1.0  0.12820  0.48869  0.14770  1.0000
  C   C33       1.0  0.50140  0.21841  0.02806  1.0000
  C   C34       1.0  0.37308  0.38035  0.01424  1.0000
  C   C35       1.0  0.47688  0.48459  0.00638  1.0000
  C   C36       1.0  0.34955  0.38572  0.01185  1.0000
  H   H42       1.0  0.41771  0.49453  0.00969  1.0000
  S   S13       1.0  0.30395  0.46664  0.00627  1.0000
  C   C37       1.0  0.50216  0.12438  0.14423  1.0000
  S   S14       1.0  0.50466  0.17413  0.11119  1.0000
  C   C38       1.0  0.50639  0.08694  0.12759  1.0000
  H   H43       1.0  0.28404  0.40273  0.00440  1.0000
  H   H44       1.0  0.00953  0.41139  0.43016  1.0000
  S   S15       1.0  0.46925  0.30098  0.56406  1.0000
  S   S16       1.0  0.49159  0.35390  0.53684  1.0000
  C   C39       1.0  0.41004  0.22490  0.52135  1.0000
  Fe  Fe7       1.0  0.46739  0.34312  0.56203  1.0000
  S   S17       1.0  0.42615  0.34707  0.55853  1.0000
  H   H45       1.0  0.35304  0.23111  0.52762  1.0000
  C   C40       1.0  0.02259  0.38015  0.47329  1.0000
  H   H46       1.0  0.36181  0.26652  0.51998  1.0000
  Fe  Fe8       1.0  0.46879  0.09798  0.45395  1.0000
  H   H47       1.0  0.48750  0.44363  0.57420  1.0000
  S   S18       1.0  0.43895  0.05380  0.44230  1.0000
  H   H48       1.0  0.50570  0.06167  0.46335  1.0000
  H   H49       1.0  0.43067  0.18041  0.54258  1.0000
  C   C41       1.0  0.43916  0.47095  0.52397  1.0000
  S   S19       1.0  0.47924  0.16415  0.50723  1.0000
  H   H50       1.0  0.38236  0.28979  0.54656  1.0000
  S   S20       1.0  0.46527  0.13960  0.45544  1.0000
  H   H51       1.0  0.40915  0.24286  0.56474  1.0000
  Fe  Fe9       1.0  0.48764  0.14643  0.48172  1.0000
  S   S21       1.0  0.35179  0.45361  0.54100  1.0000
  H   H52       1.0  0.37386  0.24480  0.50813  1.0000
  S   S22       1.0  0.33654  0.47578  0.57870  1.0000
  Fe  Fe10      1.0  0.37258  0.46803  0.56767  1.0000
  S   S23       1.0  0.39849  0.44923  0.58207  1.0000
  Fe  Fe11      1.0  0.31832  0.46554  0.55103  1.0000
  S   S24       1.0  0.27087  0.44355  0.54520  1.0000
  H   H53       1.0  0.42389  0.28020  0.51039  1.0000
  Fe  Fe12      1.0  0.12258  0.45021  0.46691  1.0000
  S   S25       1.0  0.12763  0.49514  0.46691  1.0000
  S   S26       1.0  0.08122  0.40947  0.47191  1.0000
  Fe  Fe13      1.0  0.18774  0.47136  0.46968  1.0000
  S   S27       1.0  0.22604  0.46260  0.47102  1.0000
  S   S28       1.0  0.48736  0.28849  0.51395  1.0000
  C   C42       1.0  0.47617  0.45585  0.52125  1.0000
  C   C43       1.0  0.41833  0.20336  0.52387  1.0000
  S   S29       1.0  0.15330  0.45893  0.48964  1.0000
  S   S30       1.0  0.15701  0.45898  0.44666  1.0000
  C   C44       1.0  0.25962  0.45138  0.52487  1.0000
  C   C45       1.0  0.27699  0.45806  0.51002  1.0000
  C   C46       1.0  0.26655  0.46167  0.49360  1.0000
  C   C47       1.0  0.23916  0.45977  0.49203  1.0000
  C   C48       1.0  0.22224  0.45420  0.50703  1.0000
  C   C49       1.0  0.23223  0.44948  0.52330  1.0000
  H   H54       1.0  0.29804  0.45930  0.51106  1.0000
  H   H55       1.0  0.27962  0.46550  0.48203  1.0000
  H   H56       1.0  0.20113  0.45265  0.50601  1.0000
  H   H57       1.0  0.21869  0.44426  0.53473  1.0000
  C   C50       1.0  0.04113  0.41224  0.44879  1.0000
  C   C51       1.0  0.04614  0.40055  0.46414  1.0000
  C   C52       1.0  0.41923  0.28645  0.52356  1.0000
  H   H58       1.0  0.05897  0.42776  0.44150  1.0000
  H   H59       1.0  0.47297  0.40718  0.55030  1.0000
  H   H60       1.0  0.42186  0.19249  0.51263  1.0000
  N   N4        1.0  0.50316  0.45138  0.54757  1.0000
  C   C53       1.0  0.41940  0.02000  0.45253  1.0000
  C   C54       1.0  0.48268  0.19919  0.50875  1.0000
  H   H61       1.0  0.41758  0.03668  0.47821  1.0000
  C   C55       1.0  0.41991  0.37661  0.56466  1.0000
  C   C56       1.0  0.39977  0.38182  0.55510  1.0000
  C   C57       1.0  0.39341  0.40432  0.55997  1.0000
  C   C58       1.0  0.40668  0.42150  0.57473  1.0000
  C   C59       1.0  0.42696  0.41638  0.58421  1.0000
  C   C60       1.0  0.43375  0.39427  0.57913  1.0000
  H   H62       1.0  0.38885  0.36828  0.54392  1.0000
  H   H63       1.0  0.37775  0.40795  0.55255  1.0000
  H   H64       1.0  0.43720  0.42939  0.59571  1.0000
  H   H65       1.0  0.44900  0.39032  0.58676  1.0000
  Fe  Fe14      1.0  0.16049  0.50404  0.48813  1.0000
  C   C61       1.0  0.47781  0.23925  0.49622  1.0000
  C   C62       1.0  0.48150  0.45872  0.53971  1.0000
  C   C63       1.0  0.42334  0.19652  0.54078  1.0000
  C   C64       1.0  0.45531  0.46193  0.51355  1.0000
  C   C65       1.0  0.47650  0.21196  0.49436  1.0000
  C   C66       1.0  0.44376  0.47384  0.54211  1.0000
  H   H66       1.0  0.37307  0.25622  0.55698  1.0000
  H   H67       1.0  0.46994  0.20040  0.48195  1.0000
  C   C67       1.0  0.49205  0.03884  0.46668  1.0000
  H   H68       1.0  0.28138  0.50673  0.54526  1.0000
  C   C68       1.0  0.01863  0.49137  0.51170  1.0000
  H   H69       1.0  0.40919  0.28470  0.55776  1.0000
  C   C69       1.0  0.41988  0.21105  0.55527  1.0000
  C   C70       1.0  0.41103  0.23226  0.55294  1.0000
  C   C71       1.0  0.38992  0.27347  0.54926  1.0000
  S   S31       1.0  0.48747  0.10332  0.48115  1.0000
  Fe  Fe15      1.0  0.49606  0.31365  0.53975  1.0000
  H   H70       1.0  0.47211  0.03794  0.47215  1.0000
  N   N5        1.0  0.14790  0.37700  0.49192  1.0000
  C   C72       1.0  0.15345  0.39302  0.47515  1.0000
  C   C73       1.0  0.12685  0.34701  0.48816  1.0000
  C   C74       1.0  0.13503  0.38991  0.50428  1.0000
  C   C75       1.0  0.17387  0.37740  0.49990  1.0000
  C   C76       1.0  0.20009  0.38723  0.49076  1.0000
  C   C77       1.0  0.17332  0.36733  0.51728  1.0000
  C   C78       1.0  0.22441  0.38818  0.49891  1.0000
  C   C79       1.0  0.19789  0.36875  0.52537  1.0000
  C   C80       1.0  0.22344  0.37940  0.51626  1.0000
  H   H71       1.0  0.16026  0.38284  0.46451  1.0000
  H   H72       1.0  0.13406  0.39413  0.47001  1.0000
  H   H73       1.0  0.17026  0.41543  0.47700  1.0000
  H   H74       1.0  0.13570  0.33655  0.47892  1.0000
  H   H75       1.0  0.10698  0.34582  0.48208  1.0000
  H   H76       1.0  0.12061  0.33401  0.50033  1.0000
  H   H77       1.0  0.11774  0.39343  0.49789  1.0000
  H   H78       1.0  0.12502  0.37624  0.51581  1.0000
  H   H79       1.0  0.15141  0.41095  0.50940  1.0000
  H   H80       1.0  0.20278  0.39534  0.47751  1.0000
  H   H81       1.0  0.15403  0.35873  0.52489  1.0000
  H   H82       1.0  0.24450  0.39691  0.49199  1.0000
  H   H83       1.0  0.19737  0.36212  0.53891  1.0000
  H   H84       1.0  0.24271  0.38149  0.52278  1.0000
  C   C81       1.0  0.46453  0.46786  0.54996  1.0000
  C   C82       1.0  0.49183  0.24138  0.52680  1.0000
  C   C83       1.0  0.40560  0.23970  0.53582  1.0000
  H   H85       1.0  0.42265  0.47524  0.51808  1.0000
  H   H86       1.0  0.43954  0.29501  0.53119  1.0000
  H   H87       1.0  0.29170  0.50506  0.42535  1.0000
  C   C84       1.0  0.48551  0.25407  0.51243  1.0000
  H   H88       1.0  0.45113  0.45903  0.49949  1.0000
  H   H89       1.0  0.49474  0.20405  0.53623  1.0000
  H   H90       1.0  0.02617  0.37084  0.48513  1.0000
  N   N6        1.0  0.39638  0.26215  0.53278  1.0000
  H   H91       1.0  0.40778  0.23030  0.50793  1.0000
  H   H92       1.0  0.41386  0.30450  0.52170  1.0000
  H   H93       1.0  0.47264  0.24883  0.48508  1.0000
  H   H94       1.0  0.48683  0.02663  0.45400  1.0000
  C   C85       1.0  0.49023  0.21395  0.52498  1.0000
  Fe  Fe16      1.0  0.37555  0.50000  0.53442  1.0000
  H   H95       1.0  0.49116  0.04097  0.50233  1.0000
  H   H96       1.0  0.42451  0.20611  0.56839  1.0000
  C   C86       1.0  0.37016  0.25059  0.52165  1.0000
  N   N7        1.0  0.50641  0.02805  0.47940  1.0000
  H   H97       1.0  0.01880  0.43245  0.47864  1.0000
  H   H98       1.0  0.48768  0.44823  0.51271  1.0000
  C   C87       1.0  0.41146  0.01757  0.47024  1.0000
  H   H99       1.0  0.26480  0.49767  0.44168  1.0000
  C   C88       1.0  0.01303  0.40289  0.44238  1.0000
  H   H100      1.0  0.49768  0.25254  0.53937  1.0000
  H   H101      1.0  0.03923  0.49487  0.50694  1.0000
  H   H102      1.0  0.20197  0.50396  0.41379  1.0000
  H   H103      1.0  0.43059  0.48006  0.55028  1.0000
  H   H104      1.0  0.49296  0.41477  0.53043  1.0000
  C   C89       1.0  0.02023  0.45001  0.48753  1.0000
  H   H105      1.0  0.46625  0.46992  0.56414  1.0000
  H   H106      1.0  0.03810  0.45394  0.49684  1.0000
  C   C90       1.0  0.49431  0.42055  0.54463  1.0000
  S   S32       1.0  0.50642  0.36682  0.57915  1.0000
  H   H107      1.0  0.02612  0.46912  0.47914  1.0000
  Fe  Fe17      1.0  0.16439  0.50480  0.44841  1.0000
  H   H108      1.0  0.50505  0.49846  0.48972  1.0000
  C   C91       1.0  0.47756  0.23550  0.00010  1.0000
  S   S33       1.0  0.47406  0.30730  0.96092  1.0000
  H   H109      1.0  0.46910  0.10663  0.97602  1.0000
  H   H110      1.0  0.43729  0.46811  0.99184  1.0000
  C   C92       1.0  0.37765  0.36202  0.00275  1.0000
  N   N8        1.0  0.30449  0.37761  0.99482  1.0000
  Fe  Fe18      1.0  0.48178  0.35318  0.96582  1.0000
  S   S34       1.0  0.45339  0.37280  0.97648  1.0000
  C   C93       1.0  0.41914  0.48400  0.90433  1.0000
  Fe  Fe19      1.0  0.35396  0.44776  0.95370  1.0000
  H   H111      1.0  0.25868  0.35332  0.99523  1.0000
  S   S35       1.0  0.36182  0.40989  0.94531  1.0000
  Fe  Fe20      1.0  0.32722  0.47325  0.98019  1.0000
  H   H112      1.0  0.44712  0.46602  0.95685  1.0000
  H   H113      1.0  0.44550  0.19139  0.99925  1.0000
  H   H114      1.0  0.46557  0.11704  0.99822  1.0000
  S   S36       1.0  0.31132  0.44879  0.95470  1.0000
  S   S37       1.0  0.36805  0.46890  0.98013  1.0000
  N   N9        1.0  0.44848  0.47956  0.92996  1.0000
  H   H115      1.0  0.46822  0.24193  0.98935  1.0000
  H   H116      1.0  0.41557  0.46775  0.94930  1.0000
  C   C94       1.0  0.43006  0.38488  0.96651  1.0000
  C   C95       1.0  0.42401  0.40491  0.97571  1.0000
  C   C96       1.0  0.40349  0.41300  0.96932  1.0000
  C   C97       1.0  0.38865  0.40114  0.95361  1.0000
  C   C98       1.0  0.39497  0.38146  0.94427  1.0000
  C   C99       1.0  0.41568  0.37353  0.95058  1.0000
  H   H117      1.0  0.43471  0.41358  0.98815  1.0000
  H   H118      1.0  0.39847  0.42768  0.97683  1.0000
  H   H119      1.0  0.38359  0.37204  0.93211  1.0000
  H   H120      1.0  0.41983  0.35793  0.94340  1.0000
  H   H121      1.0  0.48547  0.47308  0.99844  1.0000
  S   S38       1.0  0.37427  0.48851  0.93837  1.0000
  H   H122      1.0  0.48762  0.10030  0.99414  1.0000
  H   H123      1.0  0.28701  0.39368  0.97437  1.0000
  C   C100      1.0  0.35879  0.34905  0.98878  1.0000
  C   C101      1.0  0.21883  0.44300  0.00014  1.0000
  C   C102      1.0  0.43924  0.47833  0.94849  1.0000
  C   C103      1.0  0.32981  0.37272  0.99773  1.0000
  C   C104      1.0  0.43736  0.49592  0.91927  1.0000
  H   H124      1.0  0.48170  0.15828  0.96818  1.0000
  H   H125      1.0  0.36294  0.33552  0.97954  1.0000
  H   H126      1.0  0.48787  0.49648  0.91578  1.0000
  H   H127      1.0  0.30298  0.37243  0.96632  1.0000
  H   H128      1.0  0.43130  0.32015  0.99632  1.0000
  H   H129      1.0  0.15200  0.50119  0.98200  1.0000
  H   H130      1.0  0.41488  0.43741  0.92391  1.0000
  C   C105      1.0  0.44974  0.48168  0.00266  1.0000
  C   C106      1.0  0.43857  0.44961  0.92367  1.0000
  H   H131      1.0  0.16451  0.48880  0.96349  1.0000
  C   C107      1.0  0.24732  0.44932  0.99643  1.0000
  C   C108      1.0  0.33517  0.35417  0.98629  1.0000
  H   H132      1.0  0.44593  0.44874  0.91007  1.0000
  C   C109      1.0  0.30487  0.38821  0.97673  1.0000
  H   H133      1.0  0.32136  0.34375  0.97515  1.0000
  H   H134      1.0  0.25273  0.44405  0.98364  1.0000
  H   H135      1.0  0.20252  0.43291  0.99011  1.0000
  H   H136      1.0  0.44671  0.43764  0.93220  1.0000
  C   C110      1.0  0.49334  0.16426  0.98102  1.0000
  H   H137      1.0  0.32517  0.40768  0.97439  1.0000
  H   H138      1.0  0.41209  0.46219  0.89996  1.0000
  H   H139      1.0  0.41554  0.26837  0.99977  1.0000
  Fe  Fe21      1.0  0.33380  0.49208  0.94200  1.0000
  C   C111      1.0  0.48092  0.11585  0.98855  1.0000
  C   C112      1.0  0.19651  0.49800  0.99374  1.0000
  H   H140      1.0  0.19062  0.47662  0.98771  1.0000
  H   H141      1.0  0.47766  0.16379  0.99090  1.0000
  C   C113      1.0  0.48008  0.49393  0.92958  1.0000
  C   C114      1.0  0.27822  0.35033  0.99688  1.0000
  H   H142      1.0  0.27666  0.33394  0.98697  1.0000
  H   H143      1.0  0.44711  0.49984  0.95473  1.0000
  C   C115      1.0  0.40883  0.50005  0.89468  1.0000
  H   H144      1.0  0.39455  0.49044  0.88353  1.0000
  H   H145      1.0  0.48923  0.48153  0.93680  1.0000
  H   H146      1.0  0.27124  0.50546  0.95331  1.0000
  N   N10       1.0  0.50533  0.14439  0.98567  1.0000
  H   H147      1.0  0.23679  0.49587  0.97659  1.0000
  H   H148      1.0  0.21707  0.50527  0.00106  1.0000
  H   H149      1.0  0.39626  0.35841  0.00436  1.0000
  H   H150      1.0  0.18009  0.49455  0.00391  1.0000
  Fe  Fe22      1.0  0.36642  0.86913  0.06725  1.0000
  S   S39       1.0  0.37705  0.83817  0.08239  1.0000
  S   S40       1.0  0.40098  0.91580  0.06460  1.0000
  Fe  Fe23      1.0  0.31449  0.81891  0.04846  1.0000
  S   S41       1.0  0.32187  0.78522  0.06221  1.0000
  S   S42       1.0  0.28283  0.80990  0.02569  1.0000
  Fe  Fe24      1.0  0.32991  0.81277  0.08645  1.0000
  S   S43       1.0  0.30898  0.78794  0.11101  1.0000
  Fe  Fe25      1.0  0.36790  0.81302  0.05720  1.0000
  S   S44       1.0  0.39659  0.79470  0.04807  1.0000
  S   S45       1.0  0.31919  0.84538  0.07308  1.0000
  S   S46       1.0  0.36056  0.84506  0.04171  1.0000
  H   H151      1.0  0.31485  0.53456  0.10829  1.0000
  Fe  Fe26      1.0  0.48027  0.61706  0.05850  1.0000
  S   S47       1.0  0.43746  0.58638  0.04767  1.0000
  H   H152      1.0  0.47600  0.72460  0.07489  1.0000
  H   H153      1.0  0.36416  0.93938  0.07944  1.0000
  H   H154      1.0  0.14489  0.67830  0.02933  1.0000
  N   N11       1.0  0.25519  0.57554  0.31064  1.0000
  C   C116      1.0  0.15770  0.52091  0.17800  1.0000
  S   S48       1.0  0.31608  0.66516  0.30731  1.0000
  H   H155      1.0  0.48147  0.59918  0.02131  1.0000
  H   H156      1.0  0.12585  0.70119  0.00911  1.0000
  Fe  Fe27      1.0  0.34070  0.68356  0.16969  1.0000
  S   S49       1.0  0.36660  0.66483  0.18323  1.0000
  S   S50       1.0  0.36326  0.73077  0.16305  1.0000
  Fe  Fe28      1.0  0.28884  0.62569  0.16588  1.0000
  S   S51       1.0  0.31052  0.60275  0.17918  1.0000
  S   S52       1.0  0.24485  0.60452  0.15305  1.0000
  Fe  Fe29      1.0  0.32703  0.63918  0.19915  1.0000
  S   S53       1.0  0.33126  0.62855  0.22830  1.0000
  Fe  Fe30      1.0  0.34823  0.63023  0.16261  1.0000
  S   S54       1.0  0.36971  0.60893  0.14659  1.0000
  S   S55       1.0  0.30234  0.66047  0.18689  1.0000
  S   S56       1.0  0.32534  0.65074  0.14803  1.0000
  C   C117      1.0  0.32102  0.65493  0.28547  1.0000
  C   C118      1.0  0.31173  0.66523  0.27095  1.0000
  C   C119      1.0  0.31520  0.65803  0.25342  1.0000
  C   C120      1.0  0.32755  0.63980  0.25011  1.0000
  C   C121      1.0  0.33670  0.62936  0.26463  1.0000
  C   C122      1.0  0.33361  0.63692  0.28215  1.0000
  H   H157      1.0  0.30166  0.67890  0.27328  1.0000
  H   H158      1.0  0.30782  0.66615  0.24252  1.0000
  H   H159      1.0  0.34622  0.61520  0.26232  1.0000
  H   H160      1.0  0.34098  0.62878  0.29305  1.0000
  C   C123      1.0  0.15174  0.51625  0.14635  1.0000
  C   C124      1.0  0.20815  0.54662  0.11326  1.0000
  C   C125      1.0  0.21731  0.57099  0.12428  1.0000
  C   C126      1.0  0.23529  0.57461  0.13885  1.0000
  C   C127      1.0  0.24386  0.55352  0.14242  1.0000
  C   C128      1.0  0.23425  0.52891  0.13161  1.0000
  H   H161      1.0  0.19451  0.54419  0.10200  1.0000
  H   H162      1.0  0.21049  0.58715  0.12149  1.0000
  H   H163      1.0  0.25737  0.55589  0.15375  1.0000
  H   H164      1.0  0.21379  0.53921  0.30923  1.0000
  C   C129      1.0  0.15113  0.55470  0.02157  1.0000
  C   C130      1.0  0.43671  0.66211  0.02243  1.0000
  H   H165      1.0  0.18248  0.59867  0.01935  1.0000
  H   H166      1.0  0.27395  0.54409  0.29021  1.0000
  C   C131      1.0  0.23476  0.54623  0.31598  1.0000
  C   C132      1.0  0.21632  0.52531  0.11704  1.0000
  C   C133      1.0  0.45768  0.65839  0.12144  1.0000
  C   C134      1.0  0.44106  0.62922  0.11793  1.0000
  C   C135      1.0  0.41435  0.61430  0.12595  1.0000
  C   C136      1.0  0.40372  0.62849  0.13722  1.0000
  C   C137      1.0  0.42016  0.65774  0.14058  1.0000
  C   C138      1.0  0.44719  0.67252  0.13288  1.0000
  H   H167      1.0  0.44887  0.61807  0.10918  1.0000
  H   H168      1.0  0.40174  0.59170  0.12325  1.0000
  H   H169      1.0  0.41226  0.66885  0.14932  1.0000
  H   H170      1.0  0.46002  0.69504  0.13577  1.0000
  C   C139      1.0  0.16620  0.53204  0.16128  1.0000
  C   C140      1.0  0.41034  0.55508  0.01873  1.0000
  C   C141      1.0  0.43650  0.57456  0.02598  1.0000
  H   H171      1.0  0.42818  0.89484  0.03709  1.0000
  H   H172      1.0  0.34844  0.89301  0.04388  1.0000
  H   H173      1.0  0.39119  0.54744  0.02654  1.0000
  C   C142      1.0  0.12465  0.66501  0.02299  1.0000
  C   C143      1.0  0.25848  0.77438  0.01928  1.0000
  C   C144      1.0  0.25440  0.75101  0.02970  1.0000
  C   C145      1.0  0.23422  0.72322  0.02467  1.0000
  H   H174      1.0  0.37397  0.77311  0.09860  1.0000
  H   H175      1.0  0.26634  0.75439  0.04186  1.0000
  H   H176      1.0  0.28164  0.54652  0.25843  1.0000
  C   C146      1.0  0.11378  0.67849  0.01154  1.0000
  C   C147      1.0  0.32485  0.77130  0.12429  1.0000
  C   C148      1.0  0.30770  0.74425  0.13138  1.0000
  C   C149      1.0  0.31931  0.73128  0.14294  1.0000
  C   C150      1.0  0.34807  0.74566  0.14792  1.0000
  C   C151      1.0  0.36525  0.77270  0.14083  1.0000
  C   C152      1.0  0.35377  0.78538  0.12898  1.0000
  H   H177      1.0  0.28523  0.73339  0.12803  1.0000
  H   H178      1.0  0.30580  0.71050  0.14835  1.0000
  H   H179      1.0  0.38748  0.78404  0.14468  1.0000
  H   H180      1.0  0.36704  0.80648  0.12392  1.0000
  H   H181      1.0  0.46603  0.53296  0.06213  1.0000
  C   C153      1.0  0.40679  0.80532  0.02641  1.0000
  C   C154      1.0  0.43355  0.80948  0.02079  1.0000
  H   H182      1.0  0.30923  0.61334  0.10560  1.0000
  H   H183      1.0  0.15585  0.62794  0.01915  1.0000
  H   H184      1.0  0.44666  0.80345  0.02913  1.0000
  H   H185      1.0  0.24051  0.51243  0.13468  1.0000
  C   C155      1.0  0.38979  0.81271  0.01541  1.0000
  C   C156      1.0  0.40538  0.95128  0.06822  1.0000
  C   C157      1.0  0.38409  0.95694  0.07553  1.0000
  H   H186      1.0  0.44788  0.97054  0.05770  1.0000
  C   C158      1.0  0.36249  0.61595  0.09806  1.0000
  C   C159      1.0  0.38901  0.62739  0.08981  1.0000
  H   H187      1.0  0.49894  0.88027  0.05202  1.0000
  C   C160      1.0  0.39548  0.61091  0.07791  1.0000
  H   H188      1.0  0.35958  0.62940  0.10785  1.0000
  C   C161      1.0  0.25884  0.57658  0.29128  1.0000
  C   C162      1.0  0.48537  0.54976  0.05587  1.0000
  C   C163      1.0  0.48901  0.90801  0.01537  1.0000
  H   H189      1.0  0.31905  0.90083  0.04048  1.0000
  H   H190      1.0  0.40292  0.78179  0.08402  1.0000
  H   H191      1.0  0.49292  0.67912  0.02454  1.0000
  C   C164      1.0  0.46119  0.58423  0.01584  1.0000
  C   C165      1.0  0.10798  0.58933  0.03598  1.0000
  H   H192      1.0  0.42250  0.86152  0.04664  1.0000
  C   C166      1.0  0.43419  0.93071  0.00621  1.0000
  C   C167      1.0  0.39879  0.94080  0.02058  1.0000
  H   H193      1.0  0.33062  0.56136  0.12520  1.0000
  H   H194      1.0  0.36971  0.74005  0.06617  1.0000
  C   C168      1.0  0.40845  0.73364  0.08813  1.0000
  C   C169      1.0  0.13084  0.53061  0.01257  1.0000
  H   H195      1.0  0.32940  0.86200  0.01626  1.0000
  H   H196      1.0  0.28597  0.58526  0.11945  1.0000
  Fe  Fe31      1.0  0.15178  0.51052  0.05251  1.0000
  H   H197      1.0  0.26846  0.55241  0.09654  1.0000
  H   H198      1.0  0.07048  0.59699  0.01842  1.0000
  H   H199      1.0  0.32253  0.60368  0.12523  1.0000
  C   C170      1.0  0.46562  0.90377  0.06310  1.0000
  N   N12       1.0  0.38399  0.73092  0.22577  1.0000
  C   C171      1.0  0.37969  0.73856  0.20756  1.0000
  C   C172      1.0  0.41462  0.74794  0.23036  1.0000
  C   C173      1.0  0.37697  0.70021  0.22551  1.0000
  C   C174      1.0  0.36627  0.73603  0.23907  1.0000
  C   C175      1.0  0.34625  0.74628  0.23466  1.0000
  C   C176      1.0  0.36855  0.73037  0.25714  1.0000
  C   C177      1.0  0.32975  0.75061  0.24762  1.0000
  C   C178      1.0  0.35200  0.73482  0.26996  1.0000
  C   C179      1.0  0.33261  0.74489  0.26521  1.0000
  H   H200      1.0  0.35732  0.72556  0.20283  1.0000
  H   H201      1.0  0.38516  0.76160  0.20649  1.0000
  H   H202      1.0  0.39322  0.73436  0.19786  1.0000
  H   H203      1.0  0.42034  0.77107  0.23165  1.0000
  H   H204      1.0  0.42857  0.74567  0.22012  1.0000
  H   H205      1.0  0.42041  0.74111  0.24295  1.0000
  H   H206      1.0  0.35430  0.68691  0.22158  1.0000
  H   H207      1.0  0.39039  0.69547  0.21607  1.0000
  H   H208      1.0  0.38006  0.69239  0.23852  1.0000
  H   H209      1.0  0.34273  0.75090  0.22128  1.0000
  H   H210      1.0  0.38273  0.72183  0.26148  1.0000
  H   H211      1.0  0.31445  0.75823  0.24396  1.0000
  H   H212      1.0  0.35362  0.72961  0.28362  1.0000
  H   H213      1.0  0.31954  0.74791  0.27519  1.0000
  H   H214      1.0  0.38078  0.57008  0.06502  1.0000
  C   C180      1.0  0.48248  0.51780  0.03085  1.0000
  C   C181      1.0  0.36899  0.72292  0.10918  1.0000
  H   H215      1.0  0.40781  0.77753  0.10701  1.0000
  C   C182      1.0  0.34180  0.90778  0.03718  1.0000
  H   H216      1.0  0.29068  0.57645  0.08006  1.0000
  H   H217      1.0  0.36837  0.80781  0.01921  1.0000
  C   C183      1.0  0.43577  0.00308  0.06572  1.0000
  H   H218      1.0  0.45115  0.88630  0.07183  1.0000
  H   H219      1.0  0.33422  0.54929  0.07912  1.0000
  C   C184      1.0  0.31278  0.55211  0.11539  1.0000
  C   C185      1.0  0.37536  0.58297  0.07405  1.0000
  H   H220      1.0  0.41711  0.75773  0.06367  1.0000
  N   N13       1.0  0.31341  0.57437  0.10325  1.0000
  C   C186      1.0  0.34871  0.57134  0.08213  1.0000
  C   C187      1.0  0.47665  0.87080  0.04687  1.0000
  C   C188      1.0  0.21802  0.71830  0.00909  1.0000
  C   C189      1.0  0.08326  0.61973  0.01711  1.0000
  S   S57       1.0  0.15764  0.55362  0.04407  1.0000
  H   H221      1.0  0.49913  0.56357  0.06677  1.0000
  S   S58       1.0  0.49141  0.67788  0.11162  1.0000
  H   H222      1.0  0.34990  0.72613  0.11211  1.0000
  H   H223      1.0  0.45709  0.91969  0.06290  1.0000
  C   C190      1.0  0.45718  0.72691  0.07842  1.0000
  C   C191      1.0  0.26748  0.57844  0.25431  1.0000
  H   H224      1.0  0.16916  0.53323  0.18951  1.0000
  C   C192      1.0  0.48519  0.91535  0.03287  1.0000
  H   H225      1.0  0.22330  0.59069  0.31160  1.0000
  H   H226      1.0  0.31671  0.92468  0.01186  1.0000
  H   H227      1.0  0.18431  0.55298  0.15986  1.0000
  C   C193      1.0  0.25745  0.59614  0.26218  1.0000
  H   H228      1.0  0.16688  0.65333  0.03700  1.0000
  C   C194      1.0  0.42725  0.94852  0.01667  1.0000
  H   H229      1.0  0.28122  0.58340  0.33403  1.0000
  N   N14       1.0  0.34624  0.90781  0.01788  1.0000
  C   C195      1.0  0.11016  0.63504  0.02574  1.0000
  H   H230      1.0  0.47298  0.64104  0.02538  1.0000
  H   H231      1.0  0.25966  0.61814  0.31484  1.0000
  Fe  Fe32      1.0  0.32445  0.65642  0.33611  1.0000
  C   C196      1.0  0.24441  0.59542  0.31747  1.0000
  C   C197      1.0  0.43697  0.87918  0.03805  1.0000
  H   H232      1.0  0.36143  0.69944  0.10800  1.0000
  C   C198      1.0  0.36187  0.72750  0.07841  1.0000
  C   C199      1.0  0.38869  0.98548  0.07795  1.0000
  H   H233      1.0  0.42900  0.64243  0.03058  1.0000
  H   H234      1.0  0.13232  0.65264  0.05818  1.0000
  H   H235      1.0  0.35417  0.92919  0.04339  1.0000
  H   H236      1.0  0.40519  0.64871  0.09333  1.0000
  H   H237      1.0  0.39455  0.95541  0.02874  1.0000
  C   C200      1.0  0.15304  0.63057  0.03347  1.0000
  C   C201      1.0  0.26881  0.55864  0.28278  1.0000
  H   H238      1.0  0.44476  0.52519  0.03389  1.0000
  H   H239      1.0  0.41644  0.61951  0.07205  1.0000
  H   H240      1.0  0.11870  0.57942  0.04418  1.0000
  C   C202      1.0  0.16616  0.58025  0.01258  1.0000
  H   H241      1.0  0.45872  0.75161  0.05564  1.0000
  C   C203      1.0  0.30768  0.59520  0.11375  1.0000
  H   H242      1.0  0.44400  0.96845  0.02181  1.0000
  C   C204      1.0  0.37631  0.91478  0.01420  1.0000
  N   N15       1.0  0.12253  0.62106  0.03752  1.0000
  H   H243      1.0  0.35557  0.70471  0.07513  1.0000
  H   H244      1.0  0.16211  0.61827  0.04088  1.0000
  H   H245      1.0  0.45106  0.70373  0.10239  1.0000
  H   H246      1.0  0.35250  0.95134  0.01569  1.0000
  C   C205      1.0  0.28975  0.56085  0.09019  1.0000
  C   C206      1.0  0.25335  0.59552  0.28039  1.0000
  H   H247      1.0  0.37209  0.98953  0.08370  1.0000
  H   H248      1.0  0.25396  0.61131  0.25416  1.0000
  H   H249      1.0  0.46291  0.85335  0.05586  1.0000
  N   N16       1.0  0.46654  0.89289  0.04510  1.0000
  C   C207      1.0  0.27317  0.55973  0.26459  1.0000
  H   H250      1.0  0.24672  0.61072  0.28563  1.0000
  C   C208      1.0  0.12042  0.62909  0.05600  1.0000
  C   C209      1.0  0.45464  0.51424  0.02672  1.0000
  H   H251      1.0  0.23099  0.70543  0.03303  1.0000
  C   C210      1.0  0.34133  0.58755  0.09431  1.0000
  H   H252      1.0  0.29912  0.60491  0.31535  1.0000
  S   S59       1.0  0.48935  0.66256  0.06251  1.0000
  C   C211      1.0  0.43121  0.97456  0.06334  1.0000
  C   C212      1.0  0.44744  0.74204  0.06763  1.0000
  H   H253      1.0  0.47642  0.86017  0.03413  1.0000
  N   N17       1.0  0.38339  0.73798  0.09290  1.0000
  H   H254      1.0  0.09784  0.62241  0.05961  1.0000
  H   H255      1.0  0.38318  0.73111  0.12101  1.0000
  H   H256      1.0  0.34222  0.72935  0.08192  1.0000
  H   H257      1.0  0.47812  0.88619  0.01052  1.0000
  C   C213      1.0  0.41900  0.71834  0.09888  1.0000
  C   C214      1.0  0.33944  0.92970  0.00986  1.0000
  H   H258      1.0  0.11880  0.51097  0.01952  1.0000
  H   H259      1.0  0.12945  0.61897  0.06535  1.0000
  C   C215      1.0  0.44301  0.71511  0.09397  1.0000
  H   H260      1.0  0.27180  0.57995  0.24029  1.0000
  C   C216      1.0  0.42350  0.74542  0.07237  1.0000
  H   H261      1.0  0.24255  0.53026  0.31290  1.0000
  C   C217      1.0  0.39247  0.76891  0.09577  1.0000
  H   H262      1.0  0.40939  0.70894  0.11124  1.0000
  N   N18       1.0  0.45562  0.66174  0.00806  1.0000
  H   H263      1.0  0.23113  0.54503  0.33050  1.0000
  H   H264      1.0  0.48706  0.91365  0.06951  1.0000
  H   H265      1.0  0.47906  0.56370  0.04793  1.0000
  H   H266      1.0  0.15938  0.52576  0.13368  1.0000
  H   H267      1.0  0.43547  0.86964  0.02477  1.0000
  S   S60       1.0  0.49249  0.61153  0.08588  1.0000
  C   C218      1.0  0.28298  0.58327  0.31942  1.0000
  H   H268      1.0  0.29172  0.56810  0.31626  1.0000
  H   H269      1.0  0.08564  0.58000  0.04064  1.0000
  H   H270      1.0  0.44824  0.68041  0.03172  1.0000
  H   H271      1.0  0.29254  0.54225  0.12289  1.0000
  H   H272      1.0  0.28983  0.54212  0.08332  1.0000
  H   H273      1.0  0.41753  0.66326  0.01710  1.0000
  H   H274      1.0  0.24162  0.59384  0.33203  1.0000
  H   H275      1.0  0.10826  0.58222  0.02212  1.0000
  C   C219      1.0  0.32542  0.87945  0.01077  1.0000
  N   N19       1.0  0.50044  0.53719  0.04509  1.0000
  H   H276      1.0  0.42881  0.61619  0.00544  1.0000
  H   H277      1.0  0.30306  0.87412  0.01431  1.0000
  C   C220      1.0  0.48007  0.65967  0.01647  1.0000
  H   H278      1.0  0.12023  0.50931  0.11612  1.0000
  H   H279      1.0  0.44779  0.71153  0.01110  1.0000
  H   H280      1.0  0.50657  0.76547  0.04287  1.0000
  C   C221      1.0  0.49999  0.94478  0.03776  1.0000
  Fe  Fe33      1.0  0.50513  0.65815  0.08921  1.0000
  H   H281      1.0  0.49820  0.95255  0.05067  1.0000
  H   H282      1.0  0.49481  0.65758  0.00682  1.0000
  C   C222      1.0  0.44432  0.82327  0.00487  1.0000
  C   C223      1.0  0.07247  0.63351  0.00580  1.0000
  H   H283      1.0  0.25908  0.53626  0.45601  1.0000
  S   S61       1.0  0.36489  0.56366  0.57940  1.0000
  H   H284      1.0  0.25140  0.60276  0.55409  1.0000
  C   C224      1.0  0.48368  0.76013  0.56906  1.0000
  H   H285      1.0  0.28849  0.55964  0.41238  1.0000
  H   H286      1.0  0.44258  0.53043  0.53345  1.0000
  S   S62       1.0  0.44430  0.64102  0.44927  1.0000
  Fe  Fe34      1.0  0.36413  0.65820  0.36668  1.0000
  S   S63       1.0  0.32940  0.64266  0.38658  1.0000
  S   S64       1.0  0.40990  0.67003  0.37426  1.0000
  Fe  Fe35      1.0  0.31617  0.67346  0.37416  1.0000
  S   S65       1.0  0.30021  0.69492  0.39423  1.0000
  Fe  Fe36      1.0  0.30282  0.61188  0.36556  1.0000
  S   S66       1.0  0.27440  0.56548  0.37207  1.0000
  Fe  Fe37      1.0  0.35440  0.88571  0.46952  1.0000
  S   S67       1.0  0.38681  0.86974  0.46447  1.0000
  S   S68       1.0  0.36367  0.93160  0.47700  1.0000
  Fe  Fe38      1.0  0.30566  0.82426  0.47283  1.0000
  S   S69       1.0  0.33424  0.80386  0.46795  1.0000
  S   S70       1.0  0.25873  0.79504  0.47722  1.0000
  Fe  Fe39      1.0  0.36504  0.83803  0.48577  1.0000
  S   S71       1.0  0.38385  0.82434  0.50806  1.0000
  Fe  Fe40      1.0  0.35336  0.83641  0.44682  1.0000
  S   S72       1.0  0.36745  0.82354  0.42150  1.0000
  S   S73       1.0  0.33520  0.85603  0.49240  1.0000
  S   S74       1.0  0.32217  0.85474  0.45010  1.0000
  Fe  Fe41      1.0  0.38684  0.71216  0.65790  1.0000
  S   S75       1.0  0.39633  0.51424  0.50822  1.0000
  C   C225      1.0  0.07511  0.63975  0.50700  1.0000
  H   H287      1.0  0.40611  0.62377  0.56931  1.0000
  Fe  Fe42      1.0  0.11899  0.65963  0.56593  1.0000
  S   S76       1.0  0.13256  0.62622  0.55822  1.0000
  S   S77       1.0  0.07316  0.65042  0.57292  1.0000
  Fe  Fe43      1.0  0.17739  0.70892  0.55599  1.0000
  S   S78       1.0  0.19419  0.67886  0.54718  1.0000
  S   S79       1.0  0.20963  0.75550  0.55391  1.0000
  Fe  Fe44      1.0  0.15150  0.65398  0.53469  1.0000
  S   S80       1.0  0.14815  0.63763  0.50697  1.0000
  Fe  Fe45      1.0  0.17470  0.65442  0.57165  1.0000
  S   S81       1.0  0.20345  0.63732  0.58401  1.0000
  S   S82       1.0  0.13580  0.68584  0.54139  1.0000
  S   S83       1.0  0.15994  0.68611  0.58151  1.0000
  S   S84       1.0  0.43122  0.74478  0.64967  1.0000
  S   S85       1.0  0.28568  0.69664  0.64982  1.0000
  S   S86       1.0  0.34538  0.60334  0.65562  1.0000
  S   S87       1.0  0.35176  0.68040  0.64051  1.0000
  C   C226      1.0  0.22617  0.65412  0.60232  1.0000
  C   C227      1.0  0.25059  0.65013  0.60497  1.0000
  C   C228      1.0  0.26878  0.66257  0.61961  1.0000
  C   C229      1.0  0.26264  0.67908  0.63179  1.0000
  C   C230      1.0  0.23816  0.68297  0.62917  1.0000
  C   C231      1.0  0.22010  0.67073  0.61446  1.0000
  H   H288      1.0  0.25568  0.63763  0.59557  1.0000
  H   H289      1.0  0.28763  0.65952  0.62143  1.0000
  H   H290      1.0  0.23320  0.69564  0.63858  1.0000
  H   H291      1.0  0.20121  0.67372  0.61270  1.0000
  C   C232      1.0  0.16103  0.55794  0.51133  1.0000
  C   C233      1.0  0.16569  0.57599  0.52588  1.0000
  C   C234      1.0  0.16280  0.60101  0.52423  1.0000
  C   C235      1.0  0.15402  0.60750  0.50822  1.0000
  C   C236      1.0  0.14929  0.58951  0.49357  1.0000
  C   C237      1.0  0.15311  0.56481  0.49508  1.0000
  C   C238      1.0  0.44714  0.71397  0.44645  1.0000
  H   H292      1.0  0.16748  0.61524  0.53541  1.0000
  H   H293      1.0  0.14273  0.59462  0.48110  1.0000
  H   H294      1.0  0.14979  0.55108  0.48373  1.0000
  C   C239      1.0  0.45398  0.80261  0.60133  1.0000
  C   C240      1.0  0.47525  0.80373  0.61288  1.0000
  C   C241      1.0  0.46786  0.78597  0.62771  1.0000
  C   C242      1.0  0.43925  0.76687  0.63103  1.0000
  C   C243      1.0  0.41801  0.76559  0.61940  1.0000
  C   C244      1.0  0.42539  0.78350  0.60463  1.0000
  H   H295      1.0  0.31963  0.55482  0.41460  1.0000
  H   H296      1.0  0.48436  0.78704  0.63670  1.0000
  H   H297      1.0  0.39594  0.75094  0.62185  1.0000
  H   H298      1.0  0.40884  0.78261  0.59578  1.0000
  C   C245      1.0  0.24589  0.78427  0.49872  1.0000
  C   C246      1.0  0.21850  0.76160  0.50078  1.0000
  C   C247      1.0  0.20763  0.75217  0.51765  1.0000
  C   C248      1.0  0.22347  0.76635  0.53263  1.0000
  C   C249      1.0  0.25046  0.78973  0.53060  1.0000
  C   C250      1.0  0.26194  0.79825  0.51371  1.0000
  H   H299      1.0  0.20562  0.75113  0.48930  1.0000
  H   H300      1.0  0.18665  0.73439  0.51906  1.0000
  H   H301      1.0  0.26263  0.80115  0.54211  1.0000
  H   H302      1.0  0.28288  0.81600  0.51230  1.0000
  C   C251      1.0  0.42108  0.84292  0.50866  1.0000
  C   C252      1.0  0.43639  0.85739  0.49387  1.0000
  C   C253      1.0  0.46623  0.87177  0.49450  1.0000
  C   C254      1.0  0.48073  0.87172  0.50997  1.0000
  C   C255      1.0  0.46538  0.85733  0.52476  1.0000
  C   C256      1.0  0.43561  0.84277  0.52407  1.0000
  H   H303      1.0  0.42540  0.85687  0.48179  1.0000
  H   H304      1.0  0.47800  0.88271  0.48299  1.0000
  H   H305      1.0  0.47629  0.85734  0.53680  1.0000
  H   H306      1.0  0.42390  0.83165  0.53556  1.0000
  C   C257      1.0  0.24714  0.55822  0.38761  1.0000
  C   C258      1.0  0.23374  0.53113  0.39535  1.0000
  C   C259      1.0  0.04758  0.58849  0.50290  1.0000
  C   C260      1.0  0.20318  0.54544  0.41232  1.0000
  C   C261      1.0  0.21630  0.57236  0.40435  1.0000
  C   C262      1.0  0.23859  0.57895  0.39233  1.0000
  C   C263      1.0  0.45819  0.93856  0.49193  1.0000
  H   H307      1.0  0.43579  0.72071  0.39342  1.0000
  H   H308      1.0  0.20910  0.58819  0.40738  1.0000
  H   H309      1.0  0.24866  0.59986  0.38640  1.0000
  C   C264      1.0  0.31947  0.73082  0.40138  1.0000
  C   C265      1.0  0.34275  0.75085  0.39211  1.0000
  C   C266      1.0  0.35703  0.77939  0.39823  1.0000
  C   C267      1.0  0.34841  0.78792  0.41374  1.0000
  C   C268      1.0  0.32511  0.76784  0.42293  1.0000
  C   C269      1.0  0.31071  0.73947  0.41674  1.0000
  H   H310      1.0  0.34925  0.74455  0.38002  1.0000
  H   H311      1.0  0.37468  0.79498  0.39086  1.0000
  H   H312      1.0  0.31786  0.77423  0.43463  1.0000
  H   H313      1.0  0.29256  0.72418  0.42381  1.0000
  C   C270      1.0  0.43531  0.64888  0.42822  1.0000
  C   C271      1.0  0.45606  0.66395  0.41576  1.0000
  C   C272      1.0  0.44793  0.66993  0.39919  1.0000
  C   C273      1.0  0.41907  0.66097  0.39497  1.0000
  C   C274      1.0  0.39837  0.64594  0.40748  1.0000
  C   C275      1.0  0.40648  0.63997  0.42402  1.0000
  H   H314      1.0  0.47834  0.67085  0.41884  1.0000
  H   H315      1.0  0.46409  0.68149  0.38959  1.0000
  H   H316      1.0  0.37613  0.63880  0.40440  1.0000
  H   H317      1.0  0.39035  0.62841  0.43362  1.0000
  C   C276      1.0  0.35874  0.57365  0.60071  1.0000
  C   C277      1.0  0.35186  0.55524  0.61506  1.0000
  C   C278      1.0  0.34774  0.56455  0.63180  1.0000
  C   C279      1.0  0.35037  0.59224  0.63433  1.0000
  C   C280      1.0  0.35705  0.61053  0.61994  1.0000
  C   C281      1.0  0.36124  0.60128  0.60324  1.0000
  H   H318      1.0  0.34989  0.53393  0.61330  1.0000
  H   H319      1.0  0.34254  0.55023  0.64286  1.0000
  H   H320      1.0  0.35902  0.63181  0.62168  1.0000
  H   H321      1.0  0.36638  0.61563  0.59223  1.0000
  C   C282      1.0  0.42845  0.54527  0.51080  1.0000
  C   C283      1.0  0.43468  0.56806  0.49940  1.0000
  C   C284      1.0  0.45907  0.59396  0.50223  1.0000
  C   C285      1.0  0.47778  0.59691  0.51612  1.0000
  C   C286      1.0  0.47192  0.57397  0.52736  1.0000
  C   C287      1.0  0.44720  0.54809  0.52470  1.0000
  H   H322      1.0  0.42029  0.56607  0.48867  1.0000
  H   H323      1.0  0.49997  0.77767  0.56115  1.0000
  H   H324      1.0  0.48639  0.57623  0.53813  1.0000
  C   C288      1.0  0.47906  0.90086  0.60149  1.0000
  S   S88       1.0  0.16547  0.52713  0.51382  1.0000
  C   C289      1.0  0.04007  0.61869  0.57098  1.0000
  C   C290      1.0  0.43770  0.79579  0.48067  1.0000
  H   H325      1.0  0.05808  0.58924  0.56985  1.0000
  Fe  Fe46      1.0  0.36088  0.52088  0.56915  1.0000
  H   H326      1.0  0.38000  0.72034  0.38994  1.0000
  C   C291      1.0  0.38610  0.96519  0.46732  1.0000
  H   H327      1.0  0.43293  0.78326  0.41586  1.0000
  H   H328      1.0  0.38821  0.94850  0.44169  1.0000
  Fe  Fe47      1.0  0.34893  0.64771  0.66046  1.0000
  Fe  Fe48      1.0  0.32249  0.68812  0.65896  1.0000
  H   H329      1.0  0.31705  0.58412  0.42592  1.0000
  C   C292      1.0  0.01198  0.56703  0.56765  1.0000
  C   C293      1.0  0.44771  0.63587  0.54709  1.0000
  C   C294      1.0  0.48588  0.95431  0.49839  1.0000
  C   C295      1.0  0.46343  0.80815  0.47093  1.0000
  S   S89       1.0  0.35273  0.69136  0.35530  1.0000
  H   H330      1.0  0.21460  0.59796  0.43943  1.0000
  S   S90       1.0  0.28669  0.64124  0.35440  1.0000
  N   N20       1.0  0.27687  0.88884  0.50008  1.0000
  C   C296      1.0  0.27527  0.91600  0.49728  1.0000
  C   C297      1.0  0.30246  0.89486  0.51108  1.0000
  C   C298      1.0  0.28098  0.87839  0.48259  1.0000
  C   C299      1.0  0.25099  0.86823  0.50922  1.0000
  C   C300      1.0  0.24528  0.87410  0.52666  1.0000
  C   C301      1.0  0.23121  0.84179  0.50148  1.0000
  C   C302      1.0  0.22206  0.85418  0.53602  1.0000
  C   C303      1.0  0.20797  0.82212  0.51094  1.0000
  C   C304      1.0  0.20363  0.82810  0.52824  1.0000
  H   H331      1.0  0.27416  0.92636  0.50987  1.0000
  H   H332      1.0  0.29443  0.93182  0.49023  1.0000
  H   H333      1.0  0.25612  0.91236  0.48925  1.0000
  H   H334      1.0  0.30283  0.87466  0.51505  1.0000
  H   H335      1.0  0.30356  0.90710  0.52329  1.0000
  H   H336      1.0  0.32262  0.90798  0.50397  1.0000
  H   H337      1.0  0.26349  0.87524  0.47317  1.0000
  H   H338      1.0  0.30118  0.89383  0.47632  1.0000
  H   H339      1.0  0.28215  0.85783  0.48370  1.0000
  H   H340      1.0  0.25907  0.89396  0.53328  1.0000
  H   H341      1.0  0.23356  0.83531  0.48829  1.0000
  H   H342      1.0  0.21852  0.85878  0.54948  1.0000
  H   H343      1.0  0.19367  0.80172  0.50496  1.0000
  H   H344      1.0  0.18607  0.81234  0.53566  1.0000
  C   C305      1.0  0.41138  0.58739  0.54597  1.0000
  H   H345      1.0  0.45301  0.63322  0.56096  1.0000
  H   H346      1.0  0.46179  0.63022  0.53876  1.0000
  H   H347      1.0  0.42289  0.58052  0.53640  1.0000
  H   H348      1.0  0.41801  0.58442  0.55945  1.0000
  H   H349      1.0  0.38843  0.57213  0.54461  1.0000
  N   N21       1.0  0.27719  0.74818  0.58574  1.0000
  C   C306      1.0  0.25386  0.72186  0.57798  1.0000
  C   C307      1.0  0.28397  0.74084  0.60345  1.0000
  C   C308      1.0  0.26655  0.76973  0.58833  1.0000
  C   C309      1.0  0.30185  0.75969  0.57372  1.0000
  C   C310      1.0  0.29861  0.76748  0.55628  1.0000
  C   C311      1.0  0.32966  0.76426  0.57892  1.0000
  C   C312      1.0  0.32179  0.77974  0.54492  1.0000
  C   C313      1.0  0.35270  0.77651  0.56742  1.0000
  C   C314      1.0  0.34880  0.78436  0.55052  1.0000
  H   H350      1.0  0.26105  0.70524  0.57535  1.0000
  H   H351      1.0  0.23521  0.71225  0.58689  1.0000
  H   H352      1.0  0.24547  0.72600  0.56544  1.0000
  H   H353      1.0  0.29068  0.72354  0.60270  1.0000
  H   H354      1.0  0.26514  0.73292  0.61221  1.0000
  H   H355      1.0  0.30086  0.75975  0.61038  1.0000
  H   H356      1.0  0.25920  0.77514  0.57580  1.0000
  H   H357      1.0  0.24788  0.76185  0.59727  1.0000
  H   H358      1.0  0.28347  0.78997  0.59403  1.0000
  H   H359      1.0  0.27809  0.76441  0.55137  1.0000
  H   H360      1.0  0.33425  0.75871  0.59181  1.0000
  H   H361      1.0  0.31895  0.78599  0.53173  1.0000
  H   H362      1.0  0.37383  0.78019  0.57165  1.0000
  H   H363      1.0  0.36677  0.79414  0.54172  1.0000
  H   H364      1.0  0.09499  0.64039  0.50162  1.0000
  N   N22       1.0  0.23474  0.69908  0.46981  1.0000
  C   C315      1.0  0.26572  0.71904  0.46949  1.0000
  C   C316      1.0  0.21933  0.71183  0.45961  1.0000
  C   C317      1.0  0.22551  0.69689  0.48845  1.0000
  C   C318      1.0  0.22912  0.67115  0.46177  1.0000
  C   C319      1.0  0.21342  0.64464  0.47043  1.0000
  C   C320      1.0  0.23879  0.66979  0.44452  1.0000
  C   C321      1.0  0.20854  0.61869  0.46240  1.0000
  C   C322      1.0  0.23379  0.64372  0.43663  1.0000
  C   C323      1.0  0.21873  0.61822  0.44559  1.0000
  H   H365      1.0  0.27392  0.72478  0.45589  1.0000
  H   H366      1.0  0.27066  0.73982  0.47619  1.0000
  H   H367      1.0  0.27836  0.70965  0.47615  1.0000
  H   H368      1.0  0.22628  0.71563  0.44566  1.0000
  H   H369      1.0  0.22318  0.73302  0.46518  1.0000
  H   H370      1.0  0.19593  0.69765  0.45954  1.0000
  H   H371      1.0  0.23577  0.68672  0.49677  1.0000
  H   H372      1.0  0.23139  0.71826  0.49445  1.0000
  H   H373      1.0  0.20191  0.68449  0.48965  1.0000
  H   H374      1.0  0.20439  0.64323  0.48335  1.0000
  H   H375      1.0  0.25001  0.68884  0.43685  1.0000
  H   H376      1.0  0.19652  0.59868  0.46916  1.0000
  H   H377      1.0  0.24146  0.64330  0.42343  1.0000
  H   H378      1.0  0.45136  0.65022  0.51496  1.0000
  H   H379      1.0  0.01126  0.54614  0.56670  1.0000
  N   N23       1.0  0.41714  0.61735  0.54287  1.0000
  H   H380      1.0  0.38816  0.98887  0.49109  1.0000
  C   C324      1.0  0.49359  0.54136  0.49083  1.0000
  C   C325      1.0  0.22831  0.58744  0.55422  1.0000
  C   C326      1.0  0.40010  0.62508  0.55536  1.0000
  C   C327      1.0  0.42895  0.63775  0.51193  1.0000
  H   H381      1.0  0.45356  0.65886  0.54528  1.0000
  C   C328      1.0  0.37222  0.60542  0.50123  1.0000
  C   C329      1.0  0.03338  0.61546  0.52448  1.0000
  C   C330      1.0  0.40901  0.61997  0.52451  1.0000
  H   H382      1.0  0.35031  0.59259  0.49697  1.0000
  C   C331      1.0  0.42053  0.63912  0.49460  1.0000
  H   H383      1.0  0.37693  0.61023  0.55437  1.0000
  H   H384      1.0  0.40919  0.77311  0.39714  1.0000
  H   H385      1.0  0.21653  0.59964  0.55823  1.0000
  C   C332      1.0  0.43956  0.82611  0.65011  1.0000
  C   C333      1.0  0.05955  0.56023  0.48152  1.0000
  H   H386      1.0  0.41631  0.65581  0.61457  1.0000
  H   H387      1.0  0.43676  0.78800  0.49387  1.0000
  H   H388      1.0  0.08209  0.65831  0.51629  1.0000
  C   C334      1.0  0.41268  0.76617  0.41039  1.0000
  C   C335      1.0  0.38036  0.60383  0.51860  1.0000
  H   H389      1.0  0.40296  0.64712  0.55305  1.0000
  H   H390      1.0  0.42955  0.74716  0.38277  1.0000
  H   H391      1.0  0.36797  0.71403  0.41213  1.0000
  H   H392      1.0  0.06340  0.64347  0.49586  1.0000
  H   H393      1.0  0.36413  0.58943  0.52733  1.0000
  C   C336      1.0  0.38558  0.71594  0.40336  1.0000
  H   H394      1.0  0.39489  0.76529  0.41859  1.0000
  C   C337      1.0  0.39467  0.99037  0.47750  1.0000
  N   N24       1.0  0.22271  0.56341  0.56628  1.0000
  C   C338      1.0  0.22951  0.57541  0.58449  1.0000
  H   H395      1.0  0.28309  0.57302  0.45157  1.0000
  S   S91       1.0  0.17484  0.53791  0.42707  1.0000
  C   C339      1.0  0.40371  0.72997  0.44181  1.0000
  C   C340      1.0  0.44239  0.72249  0.42985  1.0000
  H   H396      1.0  0.38614  0.73521  0.44058  1.0000
  C   C341      1.0  0.39470  0.96756  0.44976  1.0000
  S   S92       1.0  0.50549  0.62627  0.46860  1.0000
  C   C342      1.0  0.39233  0.62296  0.48923  1.0000
  H   H397      1.0  0.17145  0.57067  0.53847  1.0000
  N   N25       1.0  0.41375  0.73841  0.40943  1.0000
  C   C343      1.0  0.43500  0.74123  0.39581  1.0000
  H   H398      1.0  0.43612  0.65231  0.48510  1.0000
  C   C344      1.0  0.31419  0.54450  0.45086  1.0000
  H   H399      1.0  0.09054  0.59560  0.49600  1.0000
  H   H400      1.0  0.44609  0.91620  0.49524  1.0000
  C   C345      1.0  0.01833  0.57029  0.49904  1.0000
  C   C346      1.0  0.03864  0.59148  0.56941  1.0000
  H   H401      1.0  0.45582  0.72167  0.41940  1.0000
  H   H402      1.0  0.28318  0.51539  0.46940  1.0000
  C   C347      1.0  0.07426  0.60787  0.52992  1.0000
  H   H403      1.0  0.45676  0.75777  0.39958  1.0000
  H   H404      1.0  0.38541  0.69465  0.40273  1.0000
  H   H405      1.0  0.48485  0.82046  0.50450  1.0000
  H   H406      1.0  0.08080  0.62481  0.54032  1.0000
  C   C348      1.0  0.46175  0.81794  0.45376  1.0000
  C   C349      1.0  0.42039  0.73072  0.42700  1.0000
  H   H407      1.0  0.24526  0.50972  0.52557  1.0000
  C   C350      1.0  0.21223  0.52491  0.40793  1.0000
  C   C351      1.0  0.30549  0.52870  0.46669  1.0000
  H   H408      1.0  0.39323  0.78593  0.48176  1.0000
  S   S93       1.0  0.49903  0.68049  0.48503  1.0000
  C   C352      1.0  0.32537  0.52914  0.47915  1.0000
  H   H409      1.0  0.47690  0.83773  0.66616  1.0000
  H   H410      1.0  0.17863  0.55360  0.57028  1.0000
  H   H411      1.0  0.39565  0.72111  0.46945  1.0000
  C   C353      1.0  0.40882  0.72167  0.45839  1.0000
  H   H412      1.0  0.21877  0.53536  0.53482  1.0000
  C   C354      1.0  0.43358  0.70046  0.60850  1.0000
  H   H413      1.0  0.46351  0.70695  0.44816  1.0000
  H   H414      1.0  0.46295  0.61185  0.49385  1.0000
  H   H415      1.0  0.01516  0.64185  0.57229  1.0000
  C   C355      1.0  0.26093  0.54692  0.57151  1.0000
  C   C356      1.0  0.19182  0.54327  0.56559  1.0000
  C   C357      1.0  0.42815  0.83224  0.63508  1.0000
  C   C358      1.0  0.47405  0.71972  0.58821  1.0000
  N   N26       1.0  0.05713  0.61238  0.51585  1.0000
  H   H416      1.0  0.02006  0.61996  0.51476  1.0000
  C   C359      1.0  0.49043  0.80530  0.49710  1.0000
  C   C360      1.0  0.06790  0.58269  0.49376  1.0000
  S   S94       1.0  0.39828  0.51432  0.56033  1.0000
  C   C361      1.0  0.43033  0.71343  0.46066  1.0000
  C   C362      1.0  0.47450  0.87271  0.62852  1.0000
  H   H417      1.0  0.26649  0.55671  0.58445  1.0000
  S   S95       1.0  0.33888  0.62472  0.34624  1.0000
  C   C363      1.0  0.01812  0.51313  0.52226  1.0000
  H   H418      1.0  0.41685  0.99637  0.42866  1.0000
  H   H419      1.0  0.25217  0.59173  0.58585  1.0000
  C   C364      1.0  0.44596  0.95165  0.48132  1.0000
  C   C365      1.0  0.43637  0.81693  0.44721  1.0000
  Fe  Fe49      1.0  0.49003  0.65711  0.45907  1.0000
  N   N27       1.0  0.29267  0.54265  0.43755  1.0000
  H   H420      1.0  0.48175  0.55433  0.48981  1.0000
  C   C366      1.0  0.34407  0.56104  0.44843  1.0000
  C   C367      1.0  0.46132  0.98054  0.47706  1.0000
  H   H421      1.0  0.41915  0.70403  0.61721  1.0000
  H   H422      1.0  0.03773  0.53224  0.52516  1.0000
  C   C368      1.0  0.03074  0.54292  0.47795  1.0000
  C   C369      1.0  0.27597  0.53220  0.56585  1.0000
  C   C370      1.0  0.27200  0.55122  0.44559  1.0000
  S   S96       1.0  0.34070  0.51075  0.54218  1.0000
  C   C371      1.0  0.23945  0.54846  0.56070  1.0000
  H   H423      1.0  0.42646  0.80773  0.65804  1.0000
  H   H424      1.0  0.29219  0.53110  0.57430  1.0000
  H   H425      1.0  0.06202  0.58692  0.53639  1.0000
  H   H426      1.0  0.47415  0.77075  0.57764  1.0000
  H   H427      1.0  0.39224  0.80488  0.45220  1.0000
  H   H428      1.0  0.48893  0.92835  0.63307  1.0000
  C   C372      1.0  0.41171  0.80511  0.45720  1.0000
  H   H429      1.0  0.21644  0.58640  0.58829  1.0000
  H   H430      1.0  0.07560  0.55640  0.47471  1.0000
  H   H431      1.0  0.48033  0.52147  0.48322  1.0000
  C   C373      1.0  0.35442  0.54516  0.47625  1.0000
  C   C374      1.0  0.45109  0.66893  0.59634  1.0000
  H   H432      1.0  0.38628  0.62376  0.47563  1.0000
  H   H433      1.0  0.25634  0.55139  0.43568  1.0000
  H   H434      1.0  0.48645  0.68695  0.57935  1.0000
  C   C375      1.0  0.41231  0.79430  0.47380  1.0000
  C   C376      1.0  0.48532  0.86601  0.64406  1.0000
  H   H435      1.0  0.09427  0.60838  0.52490  1.0000
  H   H436      1.0  0.46137  0.90582  0.60525  1.0000
  H   H437      1.0  0.18693  0.52427  0.57392  1.0000
  H   H438      1.0  0.22513  0.55838  0.59436  1.0000
  C   C377      1.0  0.27690  0.51271  0.43105  1.0000
  N   N28       1.0  0.49650  0.74467  0.57923  1.0000
  H   H439      1.0  0.43578  0.82581  0.43444  1.0000
  C   C378      1.0  0.27012  0.51864  0.54941  1.0000
  H   H440      1.0  0.49731  0.81844  0.61053  1.0000
  H   H441      1.0  0.47544  0.78303  0.50067  1.0000
  H   H442      1.0  0.40613  0.81854  0.63142  1.0000
  C   C379      1.0  0.41095  0.99480  0.44239  1.0000
  S   S97       1.0  0.46201  0.82500  0.58282  1.0000
  C   C380      1.0  0.01439  0.62096  0.57097  1.0000
  H   H443      1.0  0.49814  0.79109  0.45427  1.0000
  H   H444      1.0  0.48016  0.82694  0.44537  1.0000
  H   H445      1.0  0.26095  0.51048  0.42068  1.0000
  H   H446      1.0  0.43384  0.70623  0.47337  1.0000
  H   H447      1.0  0.43526  0.85781  0.61253  1.0000
  C   C381      1.0  0.24964  0.52021  0.53839  1.0000
  C   C382      1.0  0.50135  0.98330  0.49435  1.0000
  C   C383      1.0  0.30517  0.56115  0.42203  1.0000
  C   C384      1.0  0.47193  0.69171  0.58705  1.0000
  H   H448      1.0  0.46678  0.74546  0.55985  1.0000
  H   H449      1.0  0.22160  0.57999  0.54042  1.0000
  H   H450      1.0  0.50550  0.77277  0.60189  1.0000
  C   C385      1.0  0.49650  0.78811  0.46877  1.0000
  N   N29       1.0  0.49070  0.81005  0.47780  1.0000
  C   C386      1.0  0.44526  0.85506  0.62432  1.0000
  H   H451      1.0  0.45044  0.98926  0.46885  1.0000
  C   C387      1.0  0.23454  0.53491  0.54387  1.0000
  H   H452      1.0  0.47932  0.76623  0.47122  1.0000
  N   N30       1.0  0.49356  0.89657  0.61724  1.0000
  C   C388      1.0  0.50598  0.92375  0.62752  1.0000
  H   H453      1.0  0.42431  0.93934  0.47641  1.0000
  H   H454      1.0  0.18410  0.53528  0.55201  1.0000
  H   H455      1.0  0.35290  0.57371  0.43684  1.0000
  H   H456      1.0  0.45481  0.74396  0.60103  1.0000
  H   H457      1.0  0.47043  0.88168  0.59263  1.0000
  H   H458      1.0  0.49987  0.72168  0.55635  1.0000
  H   H459      1.0  0.02434  0.52565  0.46835  1.0000
  H   H460      1.0  0.49402  0.91893  0.59331  1.0000
  H   H461      1.0  0.01954  0.59605  0.53205  1.0000
  S   S98       1.0  0.19727  0.51739  0.46990  1.0000
  C   C389      1.0  0.46806  0.84298  0.65461  1.0000
  C   C390      1.0  0.48964  0.99729  0.48341  1.0000
  H   H462      1.0  0.31827  0.51659  0.49104  1.0000
  C   C391      1.0  0.45418  0.72329  0.59921  1.0000
  C   C392      1.0  0.43202  0.67333  0.60707  1.0000
  H   H463      1.0  0.49394  0.53617  0.50499  1.0000
  C   C393      1.0  0.36377  0.56126  0.46100  1.0000
  H   H464      1.0  0.38650  0.57381  0.45881  1.0000
  H   H465      1.0  0.36967  0.54495  0.48585  1.0000
  Fe  Fe50      1.0  0.50628  0.85055  0.57159  1.0000
  H   H466      1.0  0.04145  0.63360  0.53418  1.0000
  H   H467      1.0  0.49533  0.94393  0.50662  1.0000
  H   H468      1.0  0.24001  0.51488  0.39156  1.0000
  H   H469      1.0  0.45005  0.64782  0.59561  1.0000
  C   C394      1.0  0.01020  0.54791  0.48670  1.0000
  S   S99       1.0  0.48058  0.80585  0.97029  1.0000
  H   H470      1.0  0.38846  0.53005  0.99600  1.0000
  S   S100      1.0  0.44342  0.85335  0.97583  1.0000
  C   C395      1.0  0.40063  0.82669  0.99949  1.0000
  H   H471      1.0  0.37360  0.54359  0.91824  1.0000
  S   S101      1.0  0.13332  0.56055  0.96344  1.0000
  Fe  Fe51      1.0  0.13980  0.60544  0.95997  1.0000
  S   S102      1.0  0.12319  0.62351  0.98116  1.0000
  H   H472      1.0  0.43940  0.56234  0.91797  1.0000
  Fe  Fe52      1.0  0.16454  0.66014  0.93937  1.0000
  S   S103      1.0  0.14863  0.68243  0.95868  1.0000
  S   S104      1.0  0.19469  0.68538  0.91769  1.0000
  Fe  Fe53      1.0  0.16519  0.66324  0.97934  1.0000
  H   H473      1.0  0.39639  0.64950  0.73991  1.0000
  Fe  Fe54      1.0  0.10768  0.64065  0.95876  1.0000
  S   S105      1.0  0.06336  0.63913  0.95907  1.0000
  S   S106      1.0  0.18289  0.64302  0.96008  1.0000
  S   S107      1.0  0.12237  0.62039  0.93743  1.0000
  Fe  Fe55      1.0  0.48336  0.84959  0.97048  1.0000
  C   C396      1.0  0.33379  0.58822  0.74425  1.0000
  C   C397      1.0  0.26019  0.53478  0.93972  1.0000
  H   H474      1.0  0.46558  0.82759  0.00113  1.0000
  Fe  Fe56      1.0  0.35495  0.68642  0.69294  1.0000
  S   S108      1.0  0.36625  0.69316  0.72281  1.0000
  S   S109      1.0  0.34725  0.51643  0.96754  1.0000
  C   C398      1.0  0.37631  0.63215  0.76394  1.0000
  Fe  Fe57      1.0  0.36130  0.64312  0.86491  1.0000
  S   S110      1.0  0.34661  0.66614  0.88402  1.0000
  S   S111      1.0  0.38391  0.61941  0.87706  1.0000
  Fe  Fe58      1.0  0.34094  0.66443  0.83220  1.0000
  S   S112      1.0  0.32515  0.68937  0.84970  1.0000
  S   S113      1.0  0.32668  0.65520  0.80277  1.0000
  Fe  Fe59      1.0  0.36593  0.70265  0.86541  1.0000
  S   S114      1.0  0.38773  0.74627  0.87883  1.0000
  Fe  Fe60      1.0  0.30748  0.65110  0.86719  1.0000
  S   S115      1.0  0.26407  0.62853  0.87986  1.0000
  S   S116      1.0  0.38335  0.68075  0.84683  1.0000
  S   S117      1.0  0.32062  0.62502  0.84919  1.0000
  C   C399      1.0  0.35426  0.68276  0.74495  1.0000
  C   C400      1.0  0.32730  0.66062  0.74878  1.0000
  C   C401      1.0  0.31928  0.65281  0.76648  1.0000
  C   C402      1.0  0.33795  0.66691  0.78070  1.0000
  C   C403      1.0  0.36481  0.68918  0.77688  1.0000
  C   C404      1.0  0.37286  0.69694  0.75918  1.0000
  H   H475      1.0  0.31265  0.64943  0.73813  1.0000
  H   H476      1.0  0.29852  0.63546  0.76913  1.0000
  H   H477      1.0  0.37952  0.70033  0.78753  1.0000
  H   H478      1.0  0.39376  0.71409  0.75650  1.0000
  C   C405      1.0  0.21493  0.67000  0.90790  1.0000
  C   C406      1.0  0.20770  0.64115  0.91027  1.0000
  C   C407      1.0  0.22325  0.62893  0.90175  1.0000
  C   C408      1.0  0.24655  0.64554  0.89112  1.0000
  C   C409      1.0  0.25431  0.67462  0.88910  1.0000
  C   C410      1.0  0.23835  0.68674  0.89735  1.0000
  H   H479      1.0  0.18964  0.62803  0.91831  1.0000
  H   H480      1.0  0.21703  0.60639  0.90330  1.0000
  H   H481      1.0  0.27226  0.68765  0.88097  1.0000
  H   H482      1.0  0.24412  0.70912  0.89551  1.0000
  C   C411      1.0  0.38548  0.63071  0.70839  1.0000
  H   H483      1.0  0.03556  0.62574  0.91606  1.0000
  H   H484      1.0  0.38613  0.62875  0.69377  1.0000
  H   H485      1.0  0.48934  0.51555  0.93581  1.0000
  C   C412      1.0  0.33183  0.58904  0.76260  1.0000
  C   C413      1.0  0.25763  0.51603  0.95325  1.0000
  H   H486      1.0  0.47868  0.58201  0.99057  1.0000
  C   C414      1.0  0.33270  0.53928  0.90988  1.0000
  C   C415      1.0  0.36253  0.55247  0.91027  1.0000
  C   C416      1.0  0.37803  0.57706  0.90018  1.0000
  C   C417      1.0  0.36385  0.58886  0.88985  1.0000
  C   C418      1.0  0.33406  0.57599  0.88974  1.0000
  C   C419      1.0  0.31858  0.55114  0.89957  1.0000
  C   C420      1.0  0.46633  0.68738  0.99680  1.0000
  H   H487      1.0  0.40107  0.58703  0.90042  1.0000
  H   H488      1.0  0.32289  0.58482  0.88179  1.0000
  H   H489      1.0  0.38268  0.67228  0.92718  1.0000
  H   H490      1.0  0.26669  0.67793  0.93494  1.0000
  H   H491      1.0  0.33508  0.61212  0.69331  1.0000
  H   H492      1.0  0.40439  0.62917  0.71384  1.0000
  H   H493      1.0  0.31353  0.59557  0.71194  1.0000
  H   H494      1.0  0.45314  0.63114  0.98797  1.0000
  H   H495      1.0  0.45622  0.93692  0.00301  1.0000
  C   C421      1.0  0.46900  0.77629  0.91293  1.0000
  C   C422      1.0  0.46264  0.75480  0.90005  1.0000
  C   C423      1.0  0.43740  0.74478  0.88986  1.0000
  C   C424      1.0  0.41869  0.75677  0.89216  1.0000
  C   C425      1.0  0.42521  0.77845  0.90493  1.0000
  C   C426      1.0  0.45009  0.78797  0.91540  1.0000
  H   H496      1.0  0.47746  0.74608  0.89784  1.0000
  H   H497      1.0  0.43285  0.72846  0.87983  1.0000
  H   H498      1.0  0.41100  0.78802  0.90669  1.0000
  H   H499      1.0  0.45486  0.80470  0.92518  1.0000
  C   C427      1.0  0.49497  0.71400  0.97162  1.0000
  C   C428      1.0  0.02956  0.60824  0.95988  1.0000
  C   C429      1.0  0.37844  0.63166  0.74560  1.0000
  C   C430      1.0  0.24245  0.76948  0.00357  1.0000
  C   C431      1.0  0.43336  0.55504  0.99122  1.0000
  C   C432      1.0  0.40599  0.59469  0.95172  1.0000
  C   C433      1.0  0.21940  0.52414  0.96659  1.0000
  C   C434      1.0  0.38348  0.59811  0.94433  1.0000
  C   C435      1.0  0.14022  0.55801  0.98572  1.0000
  C   C436      1.0  0.41675  0.64545  0.93329  1.0000
  H   H500      1.0  0.46013  0.70043  0.93882  1.0000
  H   H501      1.0  0.24775  0.73483  0.93129  1.0000
  H   H502      1.0  0.36191  0.58093  0.94522  1.0000
  H   H503      1.0  0.31646  0.57118  0.73719  1.0000
  C   C437      1.0  0.23761  0.51069  0.96655  1.0000
  C   C438      1.0  0.29135  0.72430  0.93975  1.0000
  H   H504      1.0  0.43104  0.65411  0.89964  1.0000
  H   H505      1.0  0.29554  0.54095  0.89903  1.0000
  C   C439      1.0  0.50456  0.86559  0.89300  1.0000
  N   N31       1.0  0.19779  0.51897  0.98032  1.0000
  H   H506      1.0  0.39226  0.64973  0.77160  1.0000
  H   H507      1.0  0.29835  0.73159  0.97463  1.0000
  C   C440      1.0  0.41278  0.90482  0.99992  1.0000
  H   H508      1.0  0.32201  0.76956  0.93918  1.0000
  C   C441      1.0  0.35579  0.58025  0.70964  1.0000
  H   H509      1.0  0.40269  0.69325  0.90912  1.0000
  C   C442      1.0  0.31661  0.74829  0.93433  1.0000
  H   H510      1.0  0.33469  0.56233  0.71269  1.0000
  H   H511      1.0  0.00942  0.53579  0.91684  1.0000
  H   H512      1.0  0.24367  0.74799  0.95244  1.0000
  H   H513      1.0  0.46263  0.67612  0.91216  1.0000
  N   N32       1.0  0.24623  0.64347  0.81960  1.0000
  C   C443      1.0  0.25809  0.62693  0.82951  1.0000
  C   C444      1.0  0.24251  0.63344  0.80097  1.0000
  C   C445      1.0  0.26729  0.67412  0.81993  1.0000
  C   C446      1.0  0.21958  0.64013  0.82798  1.0000
  C   C447      1.0  0.19322  0.63026  0.81867  1.0000
  C   C448      1.0  0.21961  0.64713  0.84609  1.0000
  C   C449      1.0  0.16852  0.62738  0.82716  1.0000
  C   C450      1.0  0.19484  0.64408  0.85445  1.0000
  C   C451      1.0  0.16933  0.63421  0.84501  1.0000
  H   H514      1.0  0.26595  0.63604  0.84283  1.0000
  H   H515      1.0  0.24184  0.60435  0.83124  1.0000
  H   H516      1.0  0.27668  0.62666  0.82278  1.0000
  H   H517      1.0  0.22726  0.61033  0.79979  1.0000
  H   H518      1.0  0.26308  0.63607  0.79529  1.0000
  H   H519      1.0  0.23519  0.64602  0.79244  1.0000
  H   H520      1.0  0.27226  0.68307  0.83354  1.0000
  H   H521      1.0  0.28792  0.67756  0.81400  1.0000
  H   H522      1.0  0.25928  0.68724  0.81248  1.0000
  H   H523      1.0  0.19110  0.62457  0.80486  1.0000
  H   H524      1.0  0.23887  0.65490  0.85397  1.0000
  H   H525      1.0  0.14859  0.61973  0.81987  1.0000
  H   H526      1.0  0.19549  0.64933  0.86838  1.0000
  H   H527      1.0  0.15018  0.63187  0.85159  1.0000
  C   C452      1.0  0.16909  0.50781  0.97199  1.0000
  H   H528      1.0  0.38789  0.65261  0.71112  1.0000
  C   C453      1.0  0.43413  0.54058  0.91402  1.0000
  C   C454      1.0  0.01880  0.60396  0.91464  1.0000
  C   C455      1.0  0.20429  0.54617  0.98969  1.0000
  H   H529      1.0  0.45806  0.53525  0.93504  1.0000
  H   H530      1.0  0.44507  0.69223  0.89962  1.0000
  C   C456      1.0  0.16047  0.58202  0.99475  1.0000
  H   H531      1.0  0.22634  0.55609  0.99525  1.0000
  S   S118      1.0  0.50114  0.78863  0.92527  1.0000
  C   C457      1.0  0.35306  0.61097  0.77242  1.0000
  C   C458      1.0  0.43381  0.61618  0.95006  1.0000
  H   H532      1.0  0.10947  0.51377  0.98768  1.0000
  S   S119      1.0  0.43113  0.54264  0.96958  1.0000
  H   H533      1.0  0.40785  0.54038  0.89212  1.0000
  C   C459      1.0  0.44133  0.67368  0.90812  1.0000
  H   H534      1.0  0.37019  0.62356  0.92921  1.0000
  H   H535      1.0  0.49753  0.75558  0.96715  1.0000
  C   C460      1.0  0.33472  0.61248  0.70799  1.0000
  H   H536      1.0  0.20216  0.56207  0.98099  1.0000
  H   H537      1.0  0.27566  0.53861  0.92942  1.0000
  C   C461      1.0  0.12545  0.53225  0.99460  1.0000
  H   H538      1.0  0.29955  0.67403  0.91424  1.0000
  H   H539      1.0  0.04578  0.57733  0.95854  1.0000
  H   H540      1.0  0.35424  0.76401  0.91815  1.0000
  H   H541      1.0  0.27261  0.74456  0.97857  1.0000
  N   N33       1.0  0.35852  0.60838  0.71569  1.0000
  H   H542      1.0  0.25529  0.68639  0.96398  1.0000
  C   C462      1.0  0.24279  0.54837  0.93940  1.0000
  H   H543      1.0  0.23369  0.68930  0.94618  1.0000
  H   H544      1.0  0.30343  0.76540  0.96610  1.0000
  H   H545      1.0  0.35110  0.61212  0.78660  1.0000
  H   H546      1.0  0.33596  0.63339  0.71226  1.0000
  H   H547      1.0  0.40185  0.57509  0.95848  1.0000
  C   C463      1.0  0.02559  0.58134  0.91610  1.0000
  H   H548      1.0  0.45124  0.61298  0.95553  1.0000
  S   S120      1.0  0.35802  0.72219  0.67524  1.0000
  C   C464      1.0  0.35728  0.60941  0.73517  1.0000
  H   H549      1.0  0.42646  0.69581  0.94722  1.0000
  C   C465      1.0  0.43919  0.64131  0.94111  1.0000
  H   H550      1.0  0.38552  0.65533  0.90688  1.0000
  H   H551      1.0  0.38783  0.83322  0.99127  1.0000
  C   C466      1.0  0.28726  0.74307  0.96850  1.0000
  H   H552      1.0  0.24480  0.56287  0.92878  1.0000
  H   H553      1.0  0.07975  0.67305  0.99363  1.0000
  C   C467      1.0  0.38422  0.89678  0.00385  1.0000
  N   N34       1.0  0.27169  0.72808  0.95220  1.0000
  H   H554      1.0  0.16663  0.52401  0.96373  1.0000
  C   C468      1.0  0.48404  0.68974  0.98223  1.0000
  H   H555      1.0  0.27582  0.76711  0.94033  1.0000
  H   H556      1.0  0.23356  0.70411  0.96733  1.0000
  C   C469      1.0  0.25931  0.74535  0.94373  1.0000
  C   C470      1.0  0.42825  0.83265  0.99445  1.0000
  H   H557      1.0  0.41838  0.89086  0.99193  1.0000
  C   C471      1.0  0.02685  0.58046  0.95917  1.0000
  C   C472      1.0  0.24764  0.70072  0.95763  1.0000
  C   C473      1.0  0.43855  0.69736  0.93496  1.0000
  C   C474      1.0  0.45960  0.57456  0.99841  1.0000
  C   C475      1.0  0.28574  0.69732  0.93216  1.0000
  H   H558      1.0  0.44187  0.71748  0.92832  1.0000
  C   C476      1.0  0.38862  0.62294  0.93513  1.0000
  H   H559      1.0  0.04749  0.58562  0.91861  1.0000
  H   H560      1.0  0.46708  0.75288  0.99237  1.0000
  H   H561      1.0  0.37251  0.57570  0.71583  1.0000
  H   H562      1.0  0.18950  0.54276  0.00084  1.0000
  C   C477      1.0  0.50710  0.92861  0.00370  1.0000
  C   C478      1.0  0.39730  0.67313  0.91644  1.0000
  N   N35       1.0  0.42315  0.67187  0.92339  1.0000
  C   C479      1.0  0.30451  0.69471  0.92013  1.0000
  H   H563      1.0  0.34331  0.71669  0.90558  1.0000
  C   C480      1.0  0.46024  0.71078  0.00006  1.0000
  H   H564      1.0  0.20958  0.55418  0.95179  1.0000
  H   H565      1.0  0.46112  0.65731  0.94000  1.0000
  C   C481      1.0  0.33517  0.74541  0.92226  1.0000
  C   C482      1.0  0.22269  0.54322  0.95262  1.0000
  H   H566      1.0  0.49026  0.67319  0.97928  1.0000
  H   H567      1.0  0.35791  0.57951  0.69504  1.0000
  C   C483      1.0  0.32910  0.71869  0.91517  1.0000
  H   H568      1.0  0.17213  0.60192  0.98794  1.0000
  H   H569      1.0  0.36881  0.87636  0.99859  1.0000
  H   H570      1.0  0.50262  0.82377  0.89237  1.0000
  H   H571      1.0  0.32605  0.87841  0.99615  1.0000
  H   H572      1.0  0.42233  0.63749  0.98931  1.0000
  S   S121      1.0  0.38627  0.67876  0.67640  1.0000
  H   H573      1.0  0.20987  0.73810  0.98649  1.0000
  C   C484      1.0  0.08783  0.66273  0.00287  1.0000
  S   S122      1.0  0.31710  0.65312  0.67793  1.0000
  C   C485      1.0  0.43931  0.63562  0.99718  1.0000
  H   H574      1.0  0.34342  0.93112  0.99543  1.0000
  Fe  Fe61      1.0  0.38607  0.50953  0.96488  1.0000
  C   C486      1.0  0.48843  0.73644  0.97510  1.0000
  C   C487      1.0  0.44466  0.52480  0.92373  1.0000
  H   H575      1.0  0.31350  0.57295  0.76926  1.0000
  C   C488      1.0  0.22239  0.74155  0.99843  1.0000
  H   H576      1.0  0.05250  0.62137  0.99874  1.0000
  C   C489      1.0  0.40878  0.54528  0.00139  1.0000
  C   C490      1.0  0.41628  0.52823  0.89951  1.0000
  H   H577      1.0  0.48308  0.85799  0.88779  1.0000
  S   S123      1.0  0.31240  0.50791  0.92195  1.0000
  C   C491      1.0  0.47111  0.73481  0.98927  1.0000
  H   H578      1.0  0.24530  0.78741  0.99546  1.0000
  S   S124      1.0  0.19215  0.68280  0.00405  1.0000
  C   C492      1.0  0.75000  0.20200  0.00463  1.0000
  S   S125      1.0  0.55456  0.11296  0.05096  1.0000
  S   S126      1.0  0.68057  0.47935  0.11953  1.0000
  Fe  Fe62      1.0  0.62860  0.45376  0.06077  1.0000
  S   S127      1.0  0.59193  0.41277  0.05176  1.0000
  S   S128      1.0  0.66650  0.45057  0.07159  1.0000
  Fe  Fe63      1.0  0.64794  0.27666  0.16233  1.0000
  S   S129      1.0  0.62639  0.29338  0.18137  1.0000
  S   S130      1.0  0.62917  0.23599  0.14543  1.0000
  Fe  Fe64      1.0  0.70542  0.33026  0.16617  1.0000
  S   S131      1.0  0.68799  0.35150  0.18528  1.0000
  S   S132      1.0  0.75046  0.35563  0.15599  1.0000
  Fe  Fe65      1.0  0.66625  0.30846  0.19848  1.0000
  S   S133      1.0  0.66729  0.29813  0.22815  1.0000
  Fe  Fe66      1.0  0.64992  0.33511  0.16701  1.0000
  S   S134      1.0  0.62547  0.35707  0.15512  1.0000
  S   S135      1.0  0.68622  0.28832  0.18017  1.0000
  S   S136      1.0  0.66900  0.31732  0.14717  1.0000
  H   H579      1.0  0.52896  0.38927  0.04496  1.0000
  Fe  Fe67      1.0  0.66842  0.48288  0.09140  1.0000
  H   H580      1.0  0.75083  0.43897  0.05157  1.0000
  S   S137      1.0  0.67693  0.34367  0.30850  1.0000
  H   H581      1.0  0.61109  0.30969  0.27019  1.0000
  Fe  Fe68      1.0  0.84049  0.32732  0.08476  1.0000
  S   S138      1.0  0.85519  0.30464  0.06481  1.0000
  S   S139      1.0  0.81964  0.30608  0.11019  1.0000
  Fe  Fe69      1.0  0.85427  0.37726  0.06124  1.0000
  S   S140      1.0  0.86981  0.35893  0.03965  1.0000
  S   S141      1.0  0.85295  0.41887  0.05727  1.0000
  Fe  Fe70      1.0  0.83121  0.31750  0.04504  1.0000
  S   S142      1.0  0.80110  0.29615  0.02187  1.0000
  Fe  Fe71      1.0  0.89292  0.34828  0.06106  1.0000
  S   S143      1.0  0.93832  0.35626  0.05369  1.0000
  S   S144      1.0  0.81423  0.33708  0.06528  1.0000
  S   S145      1.0  0.87978  0.36968  0.08250  1.0000
  C   C493      1.0  0.97377  0.37951  0.06118  1.0000
  H   H582      1.0  0.81268  0.43134  0.08515  1.0000
  C   C494      1.0  0.97956  0.39426  0.07733  1.0000
  C   C495      1.0  0.97477  0.43656  0.02750  1.0000
  H   H583      1.0  0.96214  0.39231  0.08560  1.0000
  C   C496      1.0  0.78123  0.25949  0.01626  1.0000
  C   C497      1.0  0.78814  0.23846  0.02269  1.0000
  H   H584      1.0  0.59666  0.45656  0.02755  1.0000
  H   H585      1.0  0.75516  0.25658  0.05439  1.0000
  H   H586      1.0  0.80579  0.24433  0.03184  1.0000
  H   H587      1.0  0.78018  0.39042  0.06828  1.0000
  C   C498      1.0  0.82822  0.39327  0.02591  1.0000
  C   C499      1.0  0.83990  0.41855  0.03595  1.0000
  C   C500      1.0  0.84171  0.44374  0.02874  1.0000
  H   H588      1.0  0.78784  0.45466  0.04620  1.0000
  H   H589      1.0  0.82542  0.37340  0.03159  1.0000
  H   H590      1.0  0.85023  0.46326  0.03653  1.0000
  H   H591      1.0  0.77644  0.46997  0.06355  1.0000
  C   C501      1.0  0.76722  0.34063  0.14197  1.0000
  C   C502      1.0  0.76105  0.31176  0.14284  1.0000
  C   C503      1.0  0.77695  0.30130  0.13287  1.0000
  C   C504      1.0  0.79854  0.31932  0.12154  1.0000
  C   C505      1.0  0.80390  0.34792  0.12015  1.0000
  C   C506      1.0  0.78865  0.35859  0.13053  1.0000
  H   H592      1.0  0.74474  0.29773  0.15166  1.0000
  H   H593      1.0  0.77266  0.27918  0.13407  1.0000
  H   H594      1.0  0.82057  0.36208  0.11157  1.0000
  H   H595      1.0  0.79376  0.38098  0.12987  1.0000
  C   C507      1.0  0.66991  0.31136  0.25038  1.0000
  C   C508      1.0  0.67131  0.33807  0.25446  1.0000
  C   C509      1.0  0.67375  0.34756  0.27221  1.0000
  C   C510      1.0  0.67480  0.33063  0.28627  1.0000
  C   C511      1.0  0.67334  0.30390  0.28221  1.0000
  C   C512      1.0  0.67075  0.29434  0.26446  1.0000
  H   H596      1.0  0.67019  0.35136  0.24398  1.0000
  H   H597      1.0  0.67462  0.36817  0.27508  1.0000
  H   H598      1.0  0.67426  0.29057  0.29270  1.0000
  H   H599      1.0  0.66961  0.27362  0.26159  1.0000
  C   C513      1.0  0.66635  0.44456  0.12837  1.0000
  C   C514      1.0  0.68083  0.43870  0.14213  1.0000
  C   C515      1.0  0.66920  0.41149  0.14989  1.0000
  C   C516      1.0  0.64259  0.39023  0.14428  1.0000
  C   C517      1.0  0.62827  0.39604  0.13041  1.0000
  C   C518      1.0  0.64031  0.42290  0.12227  1.0000
  H   H600      1.0  0.70098  0.45535  0.14693  1.0000
  H   H601      1.0  0.68028  0.40734  0.16068  1.0000
  H   H602      1.0  0.60760  0.37977  0.12606  1.0000
  H   H603      1.0  0.62893  0.42717  0.11170  1.0000
  C   C519      1.0  0.57005  0.13133  0.03184  1.0000
  C   C520      1.0  0.57645  0.11711  0.01829  1.0000
  N   N36       1.0  0.59792  0.24849  0.31733  1.0000
  C   C521      1.0  0.57672  0.16022  0.03018  1.0000
  H   H604      1.0  0.74066  0.38124  0.12260  1.0000
  C   C522      1.0  0.71896  0.42547  0.10220  1.0000
  H   H605      1.0  0.57198  0.17127  0.04076  1.0000
  C   C523      1.0  0.53939  0.19142  0.12049  1.0000
  C   C524      1.0  0.56173  0.18698  0.11372  1.0000
  C   C525      1.0  0.58902  0.20067  0.12160  1.0000
  C   C526      1.0  0.59438  0.21925  0.13613  1.0000
  C   C527      1.0  0.57204  0.22371  0.14290  1.0000
  C   C528      1.0  0.54466  0.20981  0.13512  1.0000
  H   H606      1.0  0.55788  0.17266  0.10257  1.0000
  H   H607      1.0  0.60610  0.19687  0.11638  1.0000
  H   H608      1.0  0.57581  0.23764  0.15425  1.0000
  H   H609      1.0  0.52745  0.21324  0.14050  1.0000
  C   C529      1.0  0.75776  0.40317  0.09825  1.0000
  H   H610      1.0  0.61427  0.30035  0.30123  1.0000
  C   C530      1.0  0.59184  0.41358  0.02874  1.0000
  C   C531      1.0  0.73693  0.43305  0.08760  1.0000
  N   N37       1.0  0.75154  0.36249  0.22493  1.0000
  C   C532      1.0  0.74548  0.34163  0.21019  1.0000
  C   C533      1.0  0.73183  0.37543  0.22286  1.0000
  C   C534      1.0  0.78121  0.38516  0.22296  1.0000
  C   C535      1.0  0.74818  0.34963  0.24261  1.0000
  C   C536      1.0  0.74120  0.32036  0.24515  1.0000
  C   C537      1.0  0.75235  0.36668  0.25803  1.0000
  C   C538      1.0  0.73871  0.30913  0.26207  1.0000
  C   C539      1.0  0.74932  0.35510  0.27487  1.0000
  C   C540      1.0  0.74267  0.32643  0.27688  1.0000
  H   H611      1.0  0.76045  0.33199  0.21024  1.0000
  H   H612      1.0  0.72325  0.32415  0.21076  1.0000
  H   H613      1.0  0.74763  0.35180  0.19706  1.0000
  H   H614      1.0  0.70928  0.35888  0.22409  1.0000
  H   H615      1.0  0.73407  0.38556  0.20976  1.0000
  H   H616      1.0  0.73550  0.39236  0.23282  1.0000
  H   H617      1.0  0.79673  0.37645  0.22512  1.0000
  H   H618      1.0  0.78488  0.39453  0.20952  1.0000
  H   H619      1.0  0.78657  0.40314  0.23247  1.0000
  H   H620      1.0  0.73684  0.30547  0.23431  1.0000
  H   H621      1.0  0.75761  0.38906  0.25723  1.0000
  H   H622      1.0  0.73276  0.28664  0.26370  1.0000
  H   H623      1.0  0.75159  0.36826  0.28645  1.0000
  H   H624      1.0  0.73985  0.31746  0.28996  1.0000
  N   N38       1.0  0.60421  0.29291  0.10512  1.0000
  C   C541      1.0  0.59842  0.29807  0.12357  1.0000
  H   H625      1.0  0.63270  0.25570  0.33499  1.0000
  C   C542      1.0  0.62960  0.28761  0.10498  1.0000
  C   C543      1.0  0.60984  0.31833  0.09436  1.0000
  C   C544      1.0  0.63166  0.34568  0.09946  1.0000
  H   H626      1.0  0.77839  0.19376  0.02160  1.0000
  H   H627      1.0  0.80999  0.46431  0.08506  1.0000
  H   H628      1.0  0.62644  0.26897  0.11329  1.0000
  H   H629      1.0  0.93655  0.41225  0.05143  1.0000
  H   H630      1.0  0.59257  0.27894  0.13190  1.0000
  H   H631      1.0  0.61730  0.31526  0.13016  1.0000
  H   H632      1.0  0.58088  0.30434  0.12427  1.0000
  H   H633      1.0  0.65293  0.16959  0.01355  1.0000
  H   H634      1.0  0.57152  0.13762  0.14167  1.0000
  N   N39       1.0  0.94530  0.43342  0.02624  1.0000
  H   H635      1.0  0.63449  0.28322  0.09139  1.0000
  H   H636      1.0  0.64894  0.30613  0.11027  1.0000
  H   H637      1.0  0.65381  0.39073  0.09391  1.0000
  H   H638      1.0  0.57749  0.29707  0.07360  1.0000
  C   C545      1.0  0.59044  0.17505  0.01502  1.0000
  H   H639      1.0  0.89834  0.44322  0.02324  1.0000
  C   C546      1.0  0.77272  0.44921  0.05739  1.0000
  C   C547      1.0  0.72021  0.40673  0.11469  1.0000
  H   H640      1.0  0.62605  0.38683  0.06675  1.0000
  C   C548      1.0  0.57944  0.26634  0.09879  1.0000
  C   C549      1.0  0.78918  0.50008  0.00576  1.0000
  S   S146      1.0  0.65393  0.48839  0.04181  1.0000
  C   C550      1.0  0.58251  0.23137  0.28572  1.0000
  C   C551      1.0  0.60408  0.28211  0.29243  1.0000
  C   C552      1.0  0.60259  0.28777  0.27460  1.0000
  C   C553      1.0  0.59154  0.26547  0.26231  1.0000
  H   H641      1.0  0.51077  0.21203  0.03880  1.0000
  H   H642      1.0  0.53360  0.34318  0.02269  1.0000
  C   C554      1.0  0.80668  0.44528  0.07693  1.0000
  H   H643      1.0  0.64024  0.28376  0.31955  1.0000
  C   C555      1.0  0.62170  0.36788  0.07431  1.0000
  H   H644      1.0  0.64434  0.34858  0.11128  1.0000
  H   H645      1.0  0.90526  0.40280  0.01476  1.0000
  Fe  Fe72      1.0  0.69242  0.48745  0.05412  1.0000
  H   H646      1.0  0.70636  0.40106  0.12603  1.0000
  N   N40       1.0  0.77692  0.43014  0.07021  1.0000
  H   H647      1.0  0.70420  0.43449  0.10395  1.0000
  H   H648      1.0  0.59141  0.27010  0.24841  1.0000
  C   C556      1.0  0.76734  0.48456  0.01762  1.0000
  C   C557      1.0  0.59491  0.43820  0.02005  1.0000
  N   N41       1.0  0.67107  0.17502  0.03975  1.0000
  C   C558      1.0  0.66748  0.18674  0.02271  1.0000
  C   C559      1.0  0.68552  0.15686  0.03652  1.0000
  C   C560      1.0  0.64213  0.15619  0.04645  1.0000
  C   C561      1.0  0.68869  0.19878  0.05198  1.0000
  C   C562      1.0  0.67918  0.20247  0.06888  1.0000
  C   C563      1.0  0.71658  0.21901  0.04716  1.0000
  C   C564      1.0  0.69675  0.22496  0.08015  1.0000
  H   H649      1.0  0.51268  0.35479  0.06770  1.0000
  H   H650      1.0  0.63902  0.25062  0.31234  1.0000
  H   H651      1.0  0.53317  0.26257  0.02911  1.0000
  C   C565      1.0  0.82027  0.39359  0.00830  1.0000
  H   H652      1.0  0.69782  0.44819  0.00646  1.0000
  S   S147      1.0  0.62770  0.48292  0.08225  1.0000
  H   H653      1.0  0.98907  0.45622  0.03504  1.0000
  C   C566      1.0  0.77264  0.20985  0.01681  1.0000
  H   H654      1.0  0.62958  0.16822  0.04866  1.0000
  H   H655      1.0  0.62955  0.13864  0.03690  1.0000
  H   H656      1.0  0.64300  0.14554  0.05889  1.0000
  H   H657      1.0  0.65833  0.18824  0.07376  1.0000
  C   C567      1.0  0.73390  0.24145  0.05846  1.0000
  H   H658      1.0  0.68924  0.22730  0.09306  1.0000
  C   C568      1.0  0.53167  0.13801  0.14700  1.0000
  C   C569      1.0  0.52759  0.33957  0.03683  1.0000
  H   H659      1.0  0.65827  0.20192  0.02462  1.0000
  C   C570      1.0  0.63736  0.37001  0.08958  1.0000
  H   H660      1.0  0.73475  0.44769  0.07848  1.0000
  C   C571      1.0  0.93393  0.42951  0.04443  1.0000
  C   C572      1.0  0.59413  0.25372  0.29857  1.0000
  C   C573      1.0  0.60032  0.34139  0.06882  1.0000
  C   C574      1.0  0.58581  0.26301  0.32899  1.0000
  H   H661      1.0  0.52409  0.31756  0.03985  1.0000
  C   C575      1.0  0.99692  0.38239  0.05072  1.0000
  C   C576      1.0  0.99924  0.35244  0.11046  1.0000
  H   H662      1.0  0.67315  0.13890  0.02718  1.0000
  H   H663      1.0  0.77265  0.39424  0.09746  1.0000
  H   H664      1.0  0.58282  0.26003  0.08532  1.0000
  H   H665      1.0  0.88609  0.31397  0.10108  1.0000
  H   H666      1.0  0.58733  0.37087  0.02563  1.0000
  N   N42       1.0  0.92157  0.30408  0.09830  1.0000
  C   C577      1.0  0.91343  0.28470  0.11363  1.0000
  C   C578      1.0  0.90987  0.32480  0.10068  1.0000
  C   C579      1.0  0.90762  0.28631  0.08243  1.0000
  C   C580      1.0  0.95304  0.31976  0.09706  1.0000
  C   C581      1.0  0.96956  0.33699  0.11140  1.0000
  C   C582      1.0  0.96814  0.31906  0.08172  1.0000
  H   H667      1.0  0.56291  0.25598  0.32581  1.0000
  H   H668      1.0  0.50827  0.15737  0.01298  1.0000
  C   C583      1.0  0.83337  0.44395  0.01119  1.0000
  H   H669      1.0  0.92045  0.29649  0.12637  1.0000
  H   H670      1.0  0.88984  0.27182  0.11450  1.0000
  H   H671      1.0  0.92288  0.26956  0.11271  1.0000
  H   H672      1.0  0.91727  0.33737  0.11313  1.0000
  H   H673      1.0  0.98397  0.43702  0.01428  1.0000
  H   H674      1.0  0.91646  0.34034  0.08969  1.0000
  H   H675      1.0  0.91535  0.27010  0.07987  1.0000
  H   H676      1.0  0.88405  0.27438  0.08387  1.0000
  H   H677      1.0  0.91138  0.29972  0.07048  1.0000
  H   H678      1.0  0.95956  0.33906  0.12334  1.0000
  H   H679      1.0  0.95752  0.30752  0.06987  1.0000
  C   C584      1.0  0.77326  0.40403  0.06043  1.0000
  H   H680      1.0  0.58828  0.34002  0.05689  1.0000
  H   H681      1.0  0.70686  0.16895  0.03059  1.0000
  H   H682      1.0  0.75061  0.39078  0.05641  1.0000
  H   H683      1.0  0.52873  0.13915  0.00763  1.0000
  H   H684      1.0  0.55938  0.26855  0.09896  1.0000
  H   H685      1.0  0.57113  0.09471  0.01954  1.0000
  H   H686      1.0  0.59717  0.28667  0.32795  1.0000
  C   C585      1.0  0.73955  0.39559  0.11272  1.0000
  C   C586      1.0  0.62878  0.26017  0.32121  1.0000
  H   H687      1.0  0.73769  0.26165  0.08378  1.0000
  C   C587      1.0  0.59436  0.31686  0.07861  1.0000
  H   H688      1.0  0.68867  0.14759  0.04899  1.0000
  C   C588      1.0  0.58135  0.23733  0.26787  1.0000
  C   C589      1.0  0.58423  0.21773  0.32205  1.0000
  H   H689      1.0  0.68786  0.19804  0.01557  1.0000
  C   C590      1.0  0.72405  0.24436  0.07497  1.0000
  H   H690      1.0  0.72533  0.21749  0.03462  1.0000
  S   S148      1.0  0.51937  0.16446  0.06093  1.0000
  H   H691      1.0  0.51729  0.38019  0.02276  1.0000
  H   H692      1.0  0.82230  0.45273  0.06599  1.0000
  H   H693      1.0  0.76160  0.46230  0.01984  1.0000
  C   C591      1.0  0.58886  0.38965  0.01899  1.0000
  H   H694      1.0  0.57299  0.22009  0.25819  1.0000
  H   H695      1.0  0.57577  0.24787  0.10731  1.0000
  H   H696      1.0  0.56093  0.20746  0.31915  1.0000
  H   H697      1.0  0.78633  0.40937  0.04828  1.0000
  C   C592      1.0  0.75702  0.42212  0.08522  1.0000
  H   H698      1.0  0.57468  0.20915  0.28904  1.0000
  C   C593      1.0  0.54856  0.12647  0.13990  1.0000
  H   H699      1.0  0.59412  0.20580  0.31505  1.0000
  H   H700      1.0  0.54632  0.35444  0.04486  1.0000
  S   S149      1.0  0.72412  0.47604  0.04011  1.0000
  H   H701      1.0  0.54924  0.09224  0.12458  1.0000
  H   H702      1.0  0.59636  0.19758  0.01388  1.0000
  C   C594      1.0  0.75246  0.49741  0.02622  1.0000
  H   H703      1.0  0.99283  0.37106  0.03823  1.0000
  Fe  Fe73      1.0  0.51809  0.12121  0.05860  1.0000
  H   H704      1.0  0.94498  0.44953  0.05239  1.0000
  H   H705      1.0  0.91072  0.42316  0.04474  1.0000
  C   C595      1.0  0.51404  0.24706  0.02253  1.0000
  C   C596      1.0  0.53595  0.10097  0.13026  1.0000
  C   C597      1.0  0.91741  0.45966  0.01749  1.0000
  H   H706      1.0  0.97533  0.41816  0.03440  1.0000
  H   H707      1.0  0.69785  0.49546  0.00539  1.0000
  H   H708      1.0  0.54166  0.15819  0.15418  1.0000
  H   H709      1.0  0.92844  0.38800  0.02159  1.0000
  C   C598      1.0  0.99783  0.33450  0.08097  1.0000
  H   H710      1.0  0.51434  0.50461  0.02233  1.0000
  C   C599      1.0  0.94360  0.45802  0.01787  1.0000
  C   C600      1.0  0.92799  0.40722  0.01572  1.0000
  C   C601      1.0  0.96707  0.48011  0.00920  1.0000
  C   C602      1.0  0.91504  0.48229  0.00940  1.0000
  H   H711      1.0  0.83457  0.46334  0.00574  1.0000
  H   H712      1.0  0.89482  0.48305  0.00937  1.0000
  C   C603      1.0  0.51042  0.37464  0.03664  1.0000
  H   H713      1.0  0.98770  0.48048  0.00842  1.0000
  Fe  Fe74      1.0  0.68062  0.33162  0.33743  1.0000
  H   H714      1.0  0.64013  0.50633  0.12302  1.0000
  H   H715      1.0  0.58682  0.21477  0.33640  1.0000
  H   H716      1.0  0.94756  0.48339  0.53138  1.0000
  S   S150      1.0  0.56659  0.41840  0.54939  1.0000
  S   S151      1.0  0.53764  0.33588  0.55455  1.0000
  Fe  Fe75      1.0  0.68854  0.16445  0.58912  1.0000
  S   S152      1.0  0.71790  0.15382  0.57262  1.0000
  S   S153      1.0  0.70374  0.18249  0.61658  1.0000
  Fe  Fe76      1.0  0.64627  0.15088  0.55889  1.0000
  S   S154      1.0  0.67249  0.13974  0.54006  1.0000
  S   S155      1.0  0.60623  0.15369  0.55184  1.0000
  Fe  Fe77      1.0  0.67747  0.11558  0.56327  1.0000
  S   S156      1.0  0.67461  0.07106  0.55928  1.0000
  Fe  Fe78      1.0  0.71002  0.17871  0.55099  1.0000
  S   S157      1.0  0.74090  0.22003  0.53764  1.0000
  S   S158      1.0  0.64887  0.12472  0.58135  1.0000
  S   S159      1.0  0.68298  0.19126  0.56835  1.0000
  S   S160      1.0  0.53155  0.16943  0.47074  1.0000
  S   S161      1.0  0.56515  0.11595  0.47387  1.0000
  Fe  Fe79      1.0  0.65484  0.28548  0.36573  1.0000
  S   S162      1.0  0.62407  0.23907  0.37089  1.0000
  Fe  Fe80      1.0  0.71865  0.32582  0.36656  1.0000
  S   S163      1.0  0.76008  0.32390  0.37233  1.0000
  Fe  Fe81      1.0  0.67615  0.34817  0.37629  1.0000
  S   S164      1.0  0.66520  0.36993  0.39914  1.0000
  S   S165      1.0  0.68464  0.31276  0.38687  1.0000
  S   S166      1.0  0.66894  0.47921  0.46598  1.0000
  H   H717      1.0  0.60021  0.46032  0.41636  1.0000
  S   S167      1.0  0.58695  0.45407  0.46970  1.0000
  H   H718      1.0  0.57550  0.43804  0.43203  1.0000
  S   S168      1.0  0.68088  0.33361  0.64224  1.0000
  S   S169      1.0  0.63501  0.37354  0.64867  1.0000
  S   S170      1.0  0.75904  0.37707  0.63782  1.0000
  S   S171      1.0  0.64865  0.25537  0.65279  1.0000
  H   H719      1.0  0.67350  0.44997  0.55543  1.0000
  S   S172      1.0  0.82295  0.43353  0.54345  1.0000
  H   H720      1.0  0.62471  0.22458  0.44885  1.0000
  Fe  Fe82      1.0  0.85881  0.30373  0.47215  1.0000
  S   S173      1.0  0.84299  0.33362  0.48277  1.0000
  S   S174      1.0  0.83025  0.25600  0.47491  1.0000
  Fe  Fe83      1.0  0.91275  0.35299  0.45700  1.0000
  S   S175      1.0  0.89954  0.38594  0.46613  1.0000
  S   S176      1.0  0.95472  0.36968  0.44209  1.0000
  Fe  Fe84      1.0  0.88843  0.36090  0.49102  1.0000
  S   S177      1.0  0.90565  0.38560  0.51617  1.0000
  Fe  Fe85      1.0  0.85539  0.35559  0.45683  1.0000
  S   S178      1.0  0.82318  0.36905  0.44601  1.0000
  S   S179      1.0  0.90375  0.32929  0.48251  1.0000
  S   S180      1.0  0.86898  0.32429  0.44542  1.0000
  C   C604      1.0  0.98951  0.38240  0.45147  1.0000
  H   H721      1.0  0.73938  0.50471  0.53855  1.0000
  N   N43       1.0  0.91171  0.27973  0.42681  1.0000
  H   H722      1.0  0.78264  0.48279  0.51317  1.0000
  H   H723      1.0  0.97663  0.35547  0.47424  1.0000
  C   C605      1.0  0.88243  0.39817  0.52448  1.0000
  C   C606      1.0  0.85380  0.38530  0.51923  1.0000
  C   C607      1.0  0.83547  0.39603  0.52530  1.0000
  C   C608      1.0  0.84586  0.41984  0.53653  1.0000
  C   C609      1.0  0.87446  0.43274  0.54195  1.0000
  C   C610      1.0  0.89268  0.42162  0.53610  1.0000
  H   H724      1.0  0.84559  0.36684  0.51071  1.0000
  H   H725      1.0  0.81333  0.38598  0.52117  1.0000
  H   H726      1.0  0.88252  0.45112  0.55070  1.0000
  H   H727      1.0  0.91469  0.43133  0.54044  1.0000
  C   C611      1.0  0.77896  0.41329  0.63172  1.0000
  C   C612      1.0  0.79605  0.41944  0.61669  1.0000
  C   C613      1.0  0.81207  0.44774  0.61112  1.0000
  C   C614      1.0  0.81197  0.47042  0.62084  1.0000
  C   C615      1.0  0.79509  0.46441  0.63601  1.0000
  C   C616      1.0  0.77837  0.43591  0.64134  1.0000
  H   H728      1.0  0.79706  0.40226  0.60931  1.0000
  H   H729      1.0  0.82492  0.45197  0.59944  1.0000
  H   H730      1.0  0.79491  0.48182  0.64365  1.0000
  C   C617      1.0  0.77784  0.33708  0.39267  1.0000
  C   C618      1.0  0.76898  0.35206  0.40441  1.0000
  C   C619      1.0  0.78344  0.36215  0.42058  1.0000
  C   C620      1.0  0.80661  0.35709  0.42521  1.0000
  C   C621      1.0  0.81538  0.34195  0.41353  1.0000
  C   C622      1.0  0.80108  0.33208  0.39728  1.0000
  H   H731      1.0  0.75114  0.35607  0.40095  1.0000
  H   H732      1.0  0.77653  0.37384  0.42954  1.0000
  H   H733      1.0  0.83330  0.33808  0.41693  1.0000
  H   H734      1.0  0.80803  0.32057  0.38820  1.0000
  C   C623      1.0  0.68045  0.40697  0.40413  1.0000
  C   C624      1.0  0.68143  0.41551  0.42182  1.0000
  C   C625      1.0  0.68824  0.44399  0.42628  1.0000
  C   C626      1.0  0.69358  0.46414  0.41308  1.0000
  C   C627      1.0  0.69414  0.45600  0.39545  1.0000
  C   C628      1.0  0.68762  0.42752  0.39096  1.0000
  H   H735      1.0  0.67625  0.39989  0.43212  1.0000
  H   H736      1.0  0.68857  0.45012  0.43993  1.0000
  H   H737      1.0  0.69867  0.47155  0.38514  1.0000
  H   H738      1.0  0.68681  0.42122  0.37728  1.0000
  C   C629      1.0  0.55397  0.21172  0.41265  1.0000
  C   C630      1.0  0.56530  0.19333  0.40754  1.0000
  C   C631      1.0  0.58703  0.20211  0.39489  1.0000
  C   C632      1.0  0.59820  0.22959  0.38764  1.0000
  C   C633      1.0  0.58745  0.24829  0.39313  1.0000
  C   C634      1.0  0.56511  0.23919  0.40535  1.0000
  H   H739      1.0  0.55676  0.17206  0.41294  1.0000
  H   H740      1.0  0.59507  0.18743  0.39061  1.0000
  H   H741      1.0  0.59570  0.26940  0.38753  1.0000
  H   H742      1.0  0.55619  0.25340  0.40902  1.0000
  C   C635      1.0  0.64672  0.03703  0.56532  1.0000
  C   C636      1.0  0.62740  0.03405  0.57872  1.0000
  C   C637      1.0  0.85833  0.25593  0.42983  1.0000
  H   H743      1.0  0.62776  0.05286  0.58487  1.0000
  H   H744      1.0  0.93839  0.29229  0.45024  1.0000
  C   C638      1.0  0.76637  0.22816  0.52069  1.0000
  C   C639      1.0  0.78759  0.25654  0.51942  1.0000
  C   C640      1.0  0.80769  0.26486  0.50584  1.0000
  C   C641      1.0  0.80641  0.24512  0.49296  1.0000
  C   C642      1.0  0.78517  0.21662  0.49416  1.0000
  C   C643      1.0  0.76528  0.20810  0.50803  1.0000
  H   H745      1.0  0.78878  0.27219  0.52917  1.0000
  H   H746      1.0  0.82431  0.28659  0.50550  1.0000
  H   H747      1.0  0.78405  0.20107  0.48434  1.0000
  H   H748      1.0  0.74900  0.18616  0.50882  1.0000
  C   C644      1.0  0.68856  0.20305  0.62639  1.0000
  C   C645      1.0  0.70354  0.22299  0.63981  1.0000
  C   C646      1.0  0.69199  0.23984  0.64766  1.0000
  C   C647      1.0  0.66505  0.23637  0.64243  1.0000
  C   C648      1.0  0.65001  0.21623  0.62914  1.0000
  C   C649      1.0  0.66185  0.19995  0.62097  1.0000
  H   H749      1.0  0.72413  0.22540  0.64415  1.0000
  H   H750      1.0  0.76430  0.29299  0.61966  1.0000
  H   H751      1.0  0.62901  0.21316  0.62516  1.0000
  H   H752      1.0  0.65002  0.18458  0.61072  1.0000
  C   C650      1.0  0.59179  0.13913  0.53114  1.0000
  C   C651      1.0  0.57086  0.14532  0.52370  1.0000
  C   C652      1.0  0.56180  0.13719  0.50626  1.0000
  C   C653      1.0  0.57391  0.12316  0.49620  1.0000
  C   C654      1.0  0.59387  0.11582  0.50385  1.0000
  C   C655      1.0  0.60251  0.12349  0.52141  1.0000
  H   H753      1.0  0.56215  0.15704  0.53128  1.0000
  H   H754      1.0  0.54597  0.14248  0.50055  1.0000
  H   H755      1.0  0.60288  0.10448  0.49618  1.0000
  H   H756      1.0  0.61761  0.11745  0.52732  1.0000
  C   C656      1.0  0.57220  0.42723  0.52707  1.0000
  C   C657      1.0  0.54980  0.41548  0.51479  1.0000
  C   C658      1.0  0.55440  0.42353  0.49709  1.0000
  C   C659      1.0  0.58154  0.44307  0.49163  1.0000
  C   C660      1.0  0.60407  0.45442  0.50383  1.0000
  C   C661      1.0  0.59930  0.44687  0.52159  1.0000
  H   H757      1.0  0.52885  0.40056  0.51888  1.0000
  H   H758      1.0  0.53695  0.41464  0.48767  1.0000
  H   H759      1.0  0.62527  0.46886  0.49964  1.0000
  H   H760      1.0  0.61675  0.45592  0.53101  1.0000
  C   C662      1.0  0.55654  0.32593  0.61278  1.0000
  C   C663      1.0  0.56684  0.35512  0.61645  1.0000
  C   C664      1.0  0.59128  0.36954  0.62716  1.0000
  C   C665      1.0  0.60610  0.35515  0.63387  1.0000
  C   C666      1.0  0.59658  0.32629  0.62952  1.0000
  C   C667      1.0  0.57154  0.31161  0.61934  1.0000
  H   H761      1.0  0.55531  0.36630  0.61162  1.0000
  H   H762      1.0  0.59844  0.39187  0.63047  1.0000
  H   H763      1.0  0.60807  0.31503  0.63432  1.0000
  H   H764      1.0  0.56372  0.28903  0.61653  1.0000
  Fe  Fe86      1.0  0.53051  0.37482  0.55387  1.0000
  C   C668      1.0  0.82784  0.26788  0.41123  1.0000
  C   C669      1.0  0.83137  0.50518  0.49496  1.0000
  N   N44       1.0  0.70356  0.42233  0.60734  1.0000
  C   C670      1.0  0.73329  0.43878  0.60109  1.0000
  C   C671      1.0  0.69878  0.39261  0.61057  1.0000
  H   H765      1.0  0.73925  0.46189  0.59961  1.0000
  H   H766      1.0  0.74900  0.43785  0.61058  1.0000
  H   H767      1.0  0.73662  0.43009  0.58836  1.0000
  H   H768      1.0  0.71758  0.43611  0.63409  1.0000
  H   H769      1.0  0.69849  0.38142  0.59801  1.0000
  C   C672      1.0  0.71655  0.26569  0.59999  1.0000
  C   C673      1.0  0.70124  0.43520  0.62435  1.0000
  H   H770      1.0  0.53773  0.49145  0.53989  1.0000
  N   N45       1.0  0.60088  0.41981  0.41987  1.0000
  C   C674      1.0  0.67205  0.01364  0.60801  1.0000
  C   C675      1.0  0.89150  0.48722  0.62798  1.0000
  C   C676      1.0  0.98752  0.41772  0.50834  1.0000
  C   C677      1.0  0.58066  0.38947  0.42290  1.0000
  C   C678      1.0  0.56279  0.38175  0.43789  1.0000
  C   C679      1.0  0.57893  0.36677  0.41176  1.0000
  C   C680      1.0  0.54402  0.35320  0.44132  1.0000
  C   C681      1.0  0.50728  0.45703  0.56686  1.0000
  H   H771      1.0  0.86064  0.44300  0.63024  1.0000
  H   H772      1.0  0.80897  0.47735  0.52502  1.0000
  N   N46       1.0  0.99298  0.44230  0.49683  1.0000
  H   H773      1.0  0.88476  0.42552  0.60895  1.0000
  S   S181      1.0  0.52366  0.30627  0.60159  1.0000
  H   H774      1.0  0.93616  0.32286  0.41762  1.0000
  H   H775      1.0  0.53063  0.34791  0.45287  1.0000
  C   C682      1.0  0.79492  0.47029  0.51309  1.0000
  C   C683      1.0  0.62186  0.43024  0.43456  1.0000
  H   H776      1.0  0.52400  0.45166  0.57228  1.0000
  H   H777      1.0  0.59218  0.37035  0.40031  1.0000
  H   H778      1.0  0.97177  0.45132  0.47514  1.0000
  H   H779      1.0  0.92904  0.45974  0.59454  1.0000
  H   H780      1.0  0.57144  0.28722  0.49576  1.0000
  N   N47       1.0  0.75694  0.27641  0.45554  1.0000
  C   C684      1.0  0.78432  0.27983  0.44816  1.0000
  C   C685      1.0  0.76059  0.30480  0.46170  1.0000
  C   C686      1.0  0.75087  0.25785  0.47122  1.0000
  C   C687      1.0  0.73432  0.26497  0.44177  1.0000
  C   C688      1.0  0.73745  0.28009  0.42587  1.0000
  C   C689      1.0  0.70875  0.23905  0.44362  1.0000
  C   C690      1.0  0.71639  0.27016  0.41270  1.0000
  C   C691      1.0  0.68770  0.22934  0.43037  1.0000
  C   C692      1.0  0.69146  0.24492  0.41498  1.0000
  H   H781      1.0  0.78212  0.25928  0.44255  1.0000
  H   H782      1.0  0.79241  0.29617  0.43768  1.0000
  H   H783      1.0  0.77773  0.31434  0.47193  1.0000
  H   H784      1.0  0.74050  0.30336  0.46726  1.0000
  H   H785      1.0  0.76695  0.32062  0.45091  1.0000
  H   H786      1.0  0.74937  0.23654  0.46770  1.0000
  H   H787      1.0  0.76822  0.26734  0.48131  1.0000
  H   H788      1.0  0.73096  0.25486  0.47782  1.0000
  H   H789      1.0  0.75628  0.29982  0.42346  1.0000
  H   H790      1.0  0.70447  0.22580  0.45511  1.0000
  H   H791      1.0  0.71952  0.28217  0.40062  1.0000
  H   H792      1.0  0.66834  0.20951  0.43197  1.0000
  H   H793      1.0  0.67513  0.23739  0.40472  1.0000
  N   N48       1.0  0.55604  0.26796  0.47014  1.0000
  C   C693      1.0  0.52836  0.25496  0.46057  1.0000
  C   C694      1.0  0.56631  0.24596  0.47205  1.0000
  C   C695      1.0  0.54261  0.33152  0.43003  1.0000
  C   C696      1.0  0.57662  0.29252  0.45994  1.0000
  C   C697      1.0  0.58733  0.28788  0.44374  1.0000
  C   C698      1.0  0.58566  0.32144  0.46524  1.0000
  C   C699      1.0  0.60652  0.31066  0.43374  1.0000
  C   C700      1.0  0.60491  0.34410  0.45514  1.0000
  C   C701      1.0  0.61538  0.33870  0.43947  1.0000
  H   H794      1.0  0.56844  0.42948  0.40896  1.0000
  Fe  Fe87      1.0  0.66138  0.35330  0.66027  1.0000
  H   H795      1.0  0.59453  0.31025  0.66461  1.0000
  H   H796      1.0  0.56491  0.23429  0.45948  1.0000
  H   H797      1.0  0.58718  0.50121  0.49052  1.0000
  H   H798      1.0  0.58873  0.25560  0.47695  1.0000
  C   C702      1.0  0.56006  0.33828  0.41532  1.0000
  H   H799      1.0  0.98703  0.39926  0.50071  1.0000
  H   H800      1.0  0.53989  0.28956  0.48805  1.0000
  H   H801      1.0  0.58069  0.26652  0.43857  1.0000
  H   H802      1.0  0.57809  0.32713  0.47711  1.0000
  H   H803      1.0  0.61451  0.30662  0.42140  1.0000
  H   H804      1.0  0.61159  0.36601  0.45941  1.0000
  H   H805      1.0  0.63012  0.35623  0.43157  1.0000
  H   H806      1.0  0.85968  0.24345  0.44074  1.0000
  C   C703      1.0  0.97004  0.43300  0.48320  1.0000
  C   C704      1.0  0.63137  0.40538  0.58673  1.0000
  H   H807      1.0  0.68886  0.12252  0.60773  1.0000
  C   C705      1.0  0.68459  0.04319  0.60562  1.0000
  S   S182      1.0  0.87639  0.48831  0.57901  1.0000
  H   H808      1.0  0.73079  0.25518  0.60042  1.0000
  H   H809      1.0  0.52815  0.30939  0.43274  1.0000
  H   H810      1.0  0.71069  0.45149  0.57510  1.0000
  H   H811      1.0  0.80677  0.26500  0.40748  1.0000
  H   H812      1.0  0.67467  0.08886  0.59630  1.0000
  H   H813      1.0  0.51311  0.23459  0.46667  1.0000
  H   H814      1.0  0.77962  0.44737  0.51489  1.0000
  H   H815      1.0  0.69756  0.10690  0.64289  1.0000
  H   H816      1.0  0.74194  0.44127  0.43950  1.0000
  H   H817      1.0  0.93454  0.25443  0.42824  1.0000
  H   H818      1.0  0.70551  0.26130  0.58696  1.0000
  H   H819      1.0  0.84902  0.30033  0.39203  1.0000
  Fe  Fe88      1.0  0.52925  0.12613  0.46758  1.0000
  C   C706      1.0  0.66771  0.43759  0.56744  1.0000
  H   H820      1.0  0.60017  0.18152  0.46719  1.0000
  C   C707      1.0  0.55112  0.27595  0.48820  1.0000
  H   H821      1.0  0.50956  0.41394  0.55085  1.0000
  H   H822      1.0  0.89650  0.30780  0.40008  1.0000
  H   H823      1.0  0.89785  0.23553  0.43384  1.0000
  C   C708      1.0  0.65238  0.40596  0.59834  1.0000
  C   C709      1.0  0.85170  0.28774  0.40249  1.0000
  C   C710      1.0  0.91295  0.25215  0.42494  1.0000
  H   H824      1.0  0.54833  0.46438  0.54562  1.0000
  H   H825      1.0  0.71572  0.39209  0.61926  1.0000
  C   C711      1.0  0.71513  0.11150  0.63341  1.0000
  C   C712      1.0  0.88317  0.27596  0.42121  1.0000
  H   H826      1.0  0.73346  0.28918  0.63168  1.0000
  H   H827      1.0  0.60252  0.41743  0.39150  1.0000
  C   C713      1.0  0.64573  0.01212  0.55758  1.0000
  H   H828      1.0  0.60898  0.39264  0.58973  1.0000
  H   H829      1.0  0.84352  0.46704  0.51088  1.0000
  H   H830      1.0  0.95662  0.30417  0.42117  1.0000
  H   H831      1.0  0.93356  0.29521  0.40223  1.0000
  H   H832      1.0  0.53064  0.24953  0.44667  1.0000
  H   H833      1.0  0.94840  0.42272  0.48897  1.0000
  H   H834      1.0  0.66064  0.01406  0.54732  1.0000
  H   H835      1.0  0.53718  0.25681  0.49597  1.0000
  C   C714      1.0  0.61700  0.42456  0.40320  1.0000
  N   N49       1.0  0.73211  0.29687  0.60392  1.0000
  H   H836      1.0  0.90760  0.24366  0.41120  1.0000
  S   S183      1.0  0.52559  0.20121  0.42777  1.0000
  C   C715      1.0  0.71033  0.30724  0.60638  1.0000
  C   C716      1.0  0.75242  0.31320  0.58998  1.0000
  C   C717      1.0  0.76578  0.34357  0.59027  1.0000
  C   C718      1.0  0.76058  0.29975  0.57630  1.0000
  C   C719      1.0  0.78528  0.35946  0.57736  1.0000
  C   C720      1.0  0.78027  0.31587  0.56354  1.0000
  C   C721      1.0  0.79250  0.34563  0.56403  1.0000
  H   H837      1.0  0.61186  0.43018  0.44738  1.0000
  H   H838      1.0  0.69357  0.29377  0.61588  1.0000
  C   C722      1.0  0.96737  0.48566  0.52571  1.0000
  C   C723      1.0  0.99322  0.46601  0.50770  1.0000
  H   H839      1.0  0.64538  0.39366  0.61022  1.0000
  H   H840      1.0  0.77353  0.41884  0.44532  1.0000
  H   H841      1.0  0.69949  0.30695  0.59371  1.0000
  C   C724      1.0  0.93542  0.30134  0.41642  1.0000
  H   H842      1.0  0.71948  0.32922  0.61208  1.0000
  H   H843      1.0  0.76158  0.35527  0.60068  1.0000
  H   H844      1.0  0.75231  0.27680  0.57524  1.0000
  H   H845      1.0  0.79513  0.38267  0.57774  1.0000
  H   H846      1.0  0.78632  0.30518  0.55330  1.0000
  H   H847      1.0  0.80789  0.35807  0.55418  1.0000
  N   N50       1.0  0.70469  0.09373  0.61711  1.0000
  C   C725      1.0  0.72873  0.10368  0.60455  1.0000
  C   C726      1.0  0.68173  0.09923  0.60947  1.0000
  C   C727      1.0  0.67688  0.02096  0.63949  1.0000
  C   C728      1.0  0.69336  0.06263  0.62011  1.0000
  H   H848      1.0  0.96664  0.40983  0.51508  1.0000
  C   C729      1.0  0.74796  0.30087  0.62074  1.0000
  H   H849      1.0  0.52327  0.06844  0.49341  1.0000
  H   H850      1.0  0.81269  0.23671  0.43185  1.0000
  C   C730      1.0  0.87902  0.29179  0.40729  1.0000
  H   H851      1.0  0.72180  0.09475  0.59101  1.0000
  H   H852      1.0  0.73892  0.12734  0.60302  1.0000
  H   H853      1.0  0.74540  0.09760  0.60900  1.0000
  H   H854      1.0  0.66264  0.09097  0.61804  1.0000
  H   H855      1.0  0.51831  0.26959  0.46031  1.0000
  S   S184      1.0  0.69798  0.49901  0.41804  1.0000
  C   C731      1.0  0.75564  0.44747  0.45112  1.0000
  H   H856      1.0  0.54664  0.05607  0.46760  1.0000
  H   H857      1.0  0.68673  0.05065  0.59224  1.0000
  H   H858      1.0  0.69505  0.06362  0.64906  1.0000
  H   H859      1.0  0.69980  0.25442  0.60986  1.0000
  H   H860      1.0  0.70350  0.25487  0.65812  1.0000
  C   C732      1.0  0.68894  0.43822  0.57893  1.0000
  H   H861      1.0  0.73241  0.10827  0.63995  1.0000
  N   N51       1.0  0.81162  0.47433  0.49677  1.0000
  C   C733      1.0  0.91703  0.28905  0.44556  1.0000
  C   C734      1.0  0.89380  0.44814  0.61212  1.0000
  C   C735      1.0  0.53425  0.03341  0.47173  1.0000
  C   C736      1.0  0.79217  0.46435  0.48126  1.0000
  C   C737      1.0  0.79148  0.44303  0.46927  1.0000
  C   C738      1.0  0.77357  0.47660  0.47751  1.0000
  C   C739      1.0  0.77347  0.43488  0.45443  1.0000
  C   C740      1.0  0.82927  0.45905  0.49907  1.0000
  H   H862      1.0  0.55310  0.22901  0.48147  1.0000
  Fe  Fe89      1.0  0.51084  0.32602  0.57886  1.0000
  C   C741      1.0  0.75562  0.46822  0.46267  1.0000
  C   C742      1.0  0.99443  0.37143  0.46716  1.0000
  H   H863      1.0  0.84339  0.46203  0.48762  1.0000
  H   H864      1.0  0.00422  0.42363  0.51880  1.0000
  S   S185      1.0  0.68965  0.29554  0.34586  1.0000
  H   H865      1.0  0.88004  0.49363  0.63734  1.0000
  C   C743      1.0  0.68923  0.05062  0.63722  1.0000
  H   H866      1.0  0.63204  0.44762  0.40133  1.0000
  H   H867      1.0  0.80476  0.43242  0.47092  1.0000
  H   H868      1.0  0.97064  0.41659  0.47402  1.0000
  H   H869      1.0  0.53492  0.47420  0.49218  1.0000
  H   H870      1.0  0.55926  0.32131  0.40672  1.0000
  C   C744      1.0  0.54466  0.49719  0.49059  1.0000
  N   N52       1.0  0.66411  0.22079  0.51428  1.0000
  C   C745      1.0  0.64203  0.21798  0.52723  1.0000
  C   C746      1.0  0.66942  0.19541  0.51557  1.0000
  C   C747      1.0  0.69098  0.24615  0.51957  1.0000
  C   C748      1.0  0.65392  0.22242  0.49628  1.0000
  C   C749      1.0  0.66754  0.24686  0.48544  1.0000
  C   C750      1.0  0.62930  0.19907  0.48915  1.0000
  C   C751      1.0  0.65701  0.24752  0.46853  1.0000
  C   C752      1.0  0.61900  0.19990  0.47227  1.0000
  C   C753      1.0  0.63281  0.22409  0.46196  1.0000
  H   H871      1.0  0.63750  0.23672  0.52695  1.0000
  H   H872      1.0  0.62148  0.19868  0.52471  1.0000
  H   H873      1.0  0.64843  0.21572  0.54094  1.0000
  H   H874      1.0  0.68478  0.19572  0.50546  1.0000
  H   H875      1.0  0.64964  0.17495  0.51409  1.0000
  H   H876      1.0  0.67852  0.19447  0.52866  1.0000
  H   H877      1.0  0.68839  0.26603  0.51984  1.0000
  H   H878      1.0  0.69800  0.24379  0.53311  1.0000
  H   H879      1.0  0.70886  0.24890  0.51077  1.0000
  H   H880      1.0  0.68623  0.26574  0.48976  1.0000
  H   H881      1.0  0.61769  0.17988  0.49664  1.0000
  H   H882      1.0  0.66764  0.26628  0.46040  1.0000
  Fe  Fe90      1.0  0.72182  0.35957  0.65685  1.0000
  H   H883      1.0  0.76548  0.43149  0.65304  1.0000
  S   S186      1.0  0.64364  0.31954  0.35621  1.0000
  Fe  Fe91      1.0  0.84858  0.47709  0.55501  1.0000
  H   H884      1.0  0.80149  0.28696  0.45839  1.0000
  H   H885      1.0  0.91648  0.30980  0.44742  1.0000
  C   C754      1.0  0.53123  0.46811  0.53916  1.0000
  H   H886      1.0  0.72391  0.13479  0.63055  1.0000
  H   H887      1.0  0.62258  0.42072  0.56239  1.0000
  H   H888      1.0  0.63048  0.41326  0.40314  1.0000
  H   H889      1.0  0.55831  0.28429  0.66049  1.0000
  C   C755      1.0  0.83116  0.25198  0.42486  1.0000
  H   H890      1.0  0.70401  0.45734  0.62254  1.0000
  S   S187      1.0  0.71249  0.36325  0.35704  1.0000
  H   H891      1.0  0.90104  0.27350  0.45458  1.0000
  C   C756      1.0  0.68183  0.42219  0.59476  1.0000
  H   H892      1.0  0.68016  0.42270  0.63062  1.0000
  H   H893      1.0  0.75917  0.32376  0.62491  1.0000
  H   H894      1.0  0.94770  0.44459  0.51354  1.0000
  C   C757      1.0  0.63900  0.42116  0.57131  1.0000
  H   H895      1.0  0.67833  0.37965  0.61740  1.0000
  H   H896      1.0  0.63270  0.41649  0.43609  1.0000
  C   C758      1.0  0.51161  0.04507  0.49591  1.0000
  C   C759      1.0  0.88025  0.45801  0.62409  1.0000
  H   H897      1.0  0.81580  0.43576  0.50117  1.0000
  Fe  Fe92      1.0  0.63167  0.48879  0.46700  1.0000
  H   H898      1.0  0.56349  0.39779  0.44721  1.0000
  H   H899      1.0  0.77294  0.49301  0.48596  1.0000
  C   C760      1.0  0.91876  0.46744  0.60406  1.0000
  C   C761      1.0  0.58550  0.43754  0.41926  1.0000
  S   S188      1.0  0.51129  0.11916  0.44026  1.0000
  H   H900      1.0  0.58749  0.25840  0.34317  1.0000
  C   C762      1.0  0.93015  0.49675  0.60777  1.0000
  C   C763      1.0  0.96767  0.46366  0.51533  1.0000
  H   H901      1.0  0.53128  0.46207  0.52512  1.0000
  H   H902      1.0  0.63842  0.45262  0.43241  1.0000
  Fe  Fe93      1.0  0.50983  0.16094  0.44434  1.0000
  H   H903      1.0  0.54824  0.02958  0.48122  1.0000
  Fe  Fe94      1.0  0.67189  0.30096  0.66316  1.0000
  H   H904      1.0  0.74178  0.47807  0.46000  1.0000
  H   H905      1.0  0.53117  0.01960  0.45990  1.0000
  H   H906      1.0  0.57555  0.34522  0.66332  1.0000
  S   S189      1.0  0.82271  0.49839  0.56396  1.0000
  H   H907      1.0  0.53961  0.31925  0.66241  1.0000
  H   H908      1.0  0.52466  0.04020  0.50562  1.0000
  H   H909      1.0  0.51399  0.47994  0.57007  1.0000
  S   S190      1.0  0.83307  0.50628  0.61437  1.0000
  H   H910      1.0  0.67371  0.01217  0.65262  1.0000
  H   H911      1.0  0.75446  0.30863  0.80864  1.0000
  C   C764      1.0  0.57093  0.23641  0.97783  1.0000
  C   C765      1.0  0.66129  0.45432  0.98516  1.0000
  S   S191      1.0  0.80970  0.48291  0.95894  1.0000
  H   H912      1.0  0.56255  0.10542  0.96282  1.0000
  S   S192      1.0  0.81704  0.42006  0.97816  1.0000
  Fe  Fe95      1.0  0.63896  0.15576  0.97242  1.0000
  S   S193      1.0  0.64886  0.12522  0.98803  1.0000
  S   S194      1.0  0.61607  0.17946  0.98329  1.0000
  Fe  Fe96      1.0  0.67316  0.15392  0.94111  1.0000
  S   S195      1.0  0.68569  0.12250  0.95408  1.0000
  S   S196      1.0  0.69093  0.17715  0.91556  1.0000
  Fe  Fe97      1.0  0.63961  0.09927  0.96280  1.0000
  S   S197      1.0  0.60402  0.05270  0.96344  1.0000
  Fe  Fe98      1.0  0.69344  0.15070  0.97829  1.0000
  S   S198      1.0  0.86452  0.47589  0.94353  1.0000
  S   S199      1.0  0.62696  0.12904  0.94782  1.0000
  S   S200      1.0  0.68388  0.18288  0.96465  1.0000
  Fe  Fe99      1.0  0.50904  0.32694  0.94062  1.0000
  Fe  Fe100     1.0  0.69212  0.34563  0.69320  1.0000
  H   H913      1.0  0.71547  0.24973  0.95658  1.0000
  S   S201      1.0  0.70035  0.35969  0.72263  1.0000
  H   H914      1.0  0.59750  0.21820  0.96817  1.0000
  Fe  Fe101     1.0  0.83860  0.46507  0.96814  1.0000
  H   H915      1.0  0.64195  0.39454  0.70603  1.0000
  H   H916      1.0  0.72701  0.47817  0.91511  1.0000
  Fe  Fe102     1.0  0.65225  0.34762  0.86286  1.0000
  S   S202      1.0  0.67651  0.33448  0.88203  1.0000
  S   S203      1.0  0.63144  0.37237  0.87595  1.0000
  Fe  Fe103     1.0  0.66925  0.32235  0.83080  1.0000
  S   S204      1.0  0.69372  0.30631  0.84841  1.0000
  S   S205      1.0  0.66600  0.30979  0.80114  1.0000
  Fe  Fe104     1.0  0.65753  0.29269  0.86736  1.0000
  S   S206      1.0  0.63627  0.25400  0.88501  1.0000
  Fe  Fe105     1.0  0.71076  0.34939  0.86185  1.0000
  S   S207      1.0  0.75719  0.37011  0.87043  1.0000
  S   S208      1.0  0.63111  0.30494  0.84902  1.0000
  S   S209      1.0  0.68851  0.36641  0.84347  1.0000
  H   H917      1.0  0.78205  0.40036  0.78894  1.0000
  C   C766      1.0  0.68882  0.34525  0.74419  1.0000
  C   C767      1.0  0.67355  0.31586  0.74726  1.0000
  C   C768      1.0  0.66658  0.30560  0.76468  1.0000
  C   C769      1.0  0.67444  0.32441  0.77936  1.0000
  C   C770      1.0  0.68919  0.35384  0.77624  1.0000
  C   C771      1.0  0.69636  0.36408  0.75884  1.0000
  H   H918      1.0  0.66761  0.30097  0.73627  1.0000
  H   H919      1.0  0.65515  0.28281  0.76680  1.0000
  H   H920      1.0  0.69526  0.36876  0.78721  1.0000
  H   H921      1.0  0.70815  0.38684  0.75675  1.0000
  H   H922      1.0  0.65007  0.37594  0.96690  1.0000
  H   H923      1.0  0.74793  0.26845  0.91282  1.0000
  H   H924      1.0  0.77691  0.23543  0.94648  1.0000
  C   C772      1.0  0.74326  0.32987  0.77749  1.0000
  H   H925      1.0  0.58151  0.29022  0.71100  1.0000
  C   C773      1.0  0.67597  0.19886  0.90725  1.0000
  C   C774      1.0  0.65143  0.19824  0.91464  1.0000
  C   C775      1.0  0.63972  0.21545  0.90773  1.0000
  C   C776      1.0  0.65277  0.23394  0.89367  1.0000
  C   C777      1.0  0.67783  0.23526  0.88663  1.0000
  C   C778      1.0  0.68922  0.21754  0.89330  1.0000
  H   H926      1.0  0.64114  0.18406  0.92544  1.0000
  H   H927      1.0  0.62028  0.21419  0.91320  1.0000
  H   H928      1.0  0.68790  0.24924  0.87570  1.0000
  H   H929      1.0  0.70814  0.21806  0.88746  1.0000
  H   H930      1.0  0.54654  0.27525  0.95414  1.0000
  H   H931      1.0  0.78415  0.26903  0.97061  1.0000
  H   H932      1.0  0.75887  0.30822  0.92805  1.0000
  S   S210      1.0  0.86888  0.50479  0.98279  1.0000
  C   C779      1.0  0.77154  0.38110  0.78104  1.0000
  H   H933      1.0  0.73431  0.38282  0.91015  1.0000
  C   C780      1.0  0.59331  0.26329  0.91305  1.0000
  C   C781      1.0  0.79873  0.45744  0.89872  1.0000
  C   C782      1.0  0.77490  0.45023  0.88764  1.0000
  C   C783      1.0  0.76142  0.42320  0.87931  1.0000
  C   C784      1.0  0.77239  0.40361  0.88145  1.0000
  C   C785      1.0  0.79631  0.41088  0.89244  1.0000
  C   C786      1.0  0.80915  0.43749  0.90128  1.0000
  H   H934      1.0  0.76673  0.46557  0.88558  1.0000
  H   H935      1.0  0.74304  0.41785  0.87083  1.0000
  H   H936      1.0  0.80496  0.39586  0.89412  1.0000
  H   H937      1.0  0.82755  0.44285  0.90971  1.0000
  C   C787      1.0  0.62786  0.37189  0.70728  1.0000
  S   S211      1.0  0.81494  0.49145  0.90914  1.0000
  C   C788      1.0  0.63230  0.35679  0.72094  1.0000
  H   H938      1.0  0.71473  0.26486  0.93550  1.0000
  H   H939      1.0  0.74798  0.22816  0.96151  1.0000
  H   H940      1.0  0.74344  0.23315  0.91459  1.0000
  H   H941      1.0  0.77838  0.26245  0.91777  1.0000
  C   C789      1.0  0.53797  0.29222  0.69163  1.0000
  C   C790      1.0  0.54482  0.32616  0.90333  1.0000
  C   C791      1.0  0.55087  0.31362  0.88855  1.0000
  C   C792      1.0  0.57758  0.32719  0.88031  1.0000
  C   C793      1.0  0.59797  0.35410  0.88627  1.0000
  C   C794      1.0  0.59144  0.36711  0.90061  1.0000
  C   C795      1.0  0.56527  0.35297  0.90934  1.0000
  H   H942      1.0  0.53492  0.29323  0.88353  1.0000
  H   H943      1.0  0.58212  0.31722  0.86904  1.0000
  H   H944      1.0  0.60667  0.38823  0.90503  1.0000
  H   H945      1.0  0.56074  0.36308  0.92053  1.0000
  H   H946      1.0  0.70516  0.22775  0.93708  1.0000
  H   H947      1.0  0.74090  0.21068  0.94073  1.0000
  N   N53       1.0  0.73556  0.39587  0.93751  1.0000
  C   C796      1.0  0.74657  0.38992  0.95427  1.0000
  C   C797      1.0  0.73872  0.37747  0.92359  1.0000
  C   C798      1.0  0.75385  0.42621  0.93319  1.0000
  C   C799      1.0  0.70553  0.39087  0.93836  1.0000
  C   C800      1.0  0.69128  0.39310  0.92294  1.0000
  C   C801      1.0  0.68993  0.38471  0.95434  1.0000
  C   C802      1.0  0.66308  0.38875  0.92338  1.0000
  C   C803      1.0  0.53572  0.12263  0.97375  1.0000
  H   H948      1.0  0.64423  0.02800  0.95915  1.0000
  H   H949      1.0  0.73357  0.36747  0.95850  1.0000
  H   H950      1.0  0.76894  0.39317  0.95296  1.0000
  H   H951      1.0  0.74747  0.40479  0.96508  1.0000
  H   H952      1.0  0.76088  0.37998  0.92308  1.0000
  H   H953      1.0  0.72398  0.35450  0.92573  1.0000
  H   H954      1.0  0.75200  0.44071  0.94329  1.0000
  H   H955      1.0  0.77677  0.43118  0.93255  1.0000
  C   C804      1.0  0.73988  0.48756  0.94230  1.0000
  H   H956      1.0  0.70184  0.39842  0.91035  1.0000
  H   H957      1.0  0.69904  0.38293  0.96676  1.0000
  H   H958      1.0  0.79870  0.38819  0.81309  1.0000
  C   C805      1.0  0.56179  0.13841  0.94659  1.0000
  N   N54       1.0  0.75020  0.25533  0.93966  1.0000
  C   C806      1.0  0.75535  0.25505  0.92044  1.0000
  C   C807      1.0  0.75436  0.23156  0.94748  1.0000
  C   C808      1.0  0.72014  0.24925  0.94232  1.0000
  C   C809      1.0  0.76892  0.28369  0.94759  1.0000
  C   C810      1.0  0.77062  0.30904  0.93994  1.0000
  C   C811      1.0  0.78435  0.28697  0.96362  1.0000
  C   C812      1.0  0.78722  0.33596  0.94763  1.0000
  C   C813      1.0  0.80049  0.31394  0.97134  1.0000
  H   H959      1.0  0.54468  0.25698  0.98378  1.0000
  C   C814      1.0  0.78769  0.36477  0.81527  1.0000
  H   H960      1.0  0.81466  0.35928  0.96934  1.0000
  C   C815      1.0  0.58751  0.32801  0.69607  1.0000
  H   H961      1.0  0.57617  0.13694  0.93693  1.0000
  S   S212      1.0  0.71436  0.32527  0.67689  1.0000
  H   H962      1.0  0.67553  0.45277  0.92179  1.0000
  C   C816      1.0  0.93841  0.50366  0.00111  1.0000
  H   H963      1.0  0.57290  0.30845  0.93351  1.0000
  C   C817      1.0  0.59482  0.43885  0.00160  1.0000
  S   S213      1.0  0.58802  0.41413  0.96899  1.0000
  C   C818      1.0  0.74264  0.22296  0.99869  1.0000
  H   H964      1.0  0.74735  0.49397  0.96989  1.0000
  C   C819      1.0  0.59111  0.41464  0.99190  1.0000
  H   H965      1.0  0.75233  0.38907  0.81341  1.0000
  H   H966      1.0  0.62645  0.37952  0.93942  1.0000
  H   H967      1.0  0.65276  0.39038  0.91133  1.0000
  H   H968      1.0  0.74580  0.31987  0.82905  1.0000
  C   C820      1.0  0.60592  0.35786  0.69495  1.0000
  S   S214      1.0  0.51379  0.37162  0.94402  1.0000
  H   H969      1.0  0.78847  0.36211  0.82981  1.0000
  H   H970      1.0  0.74214  0.36432  0.83111  1.0000
  H   H971      1.0  0.72100  0.31025  0.81114  1.0000
  C   C821      1.0  0.74423  0.32114  0.81448  1.0000
  H   H972      1.0  0.58495  0.23990  0.91068  1.0000
  C   C822      1.0  0.66171  0.38065  0.95463  1.0000
  H   H973      1.0  0.80044  0.35522  0.80891  1.0000
  C   C823      1.0  0.64830  0.38260  0.93917  1.0000
  H   H974      1.0  0.78156  0.40518  0.75696  1.0000
  C   C824      1.0  0.74251  0.36593  0.81648  1.0000
  C   C825      1.0  0.75767  0.35382  0.78899  1.0000
  C   C826      1.0  0.58805  0.24130  0.94787  1.0000
  N   N55       1.0  0.75793  0.35123  0.80841  1.0000
  H   H975      1.0  0.73086  0.30844  0.78225  1.0000
  H   H976      1.0  0.78859  0.35510  0.94148  1.0000
  H   H977      1.0  0.72002  0.35638  0.81166  1.0000
  H   H978      1.0  0.58494  0.37118  0.99306  1.0000
  H   H979      1.0  0.53567  0.23423  0.91772  1.0000
  C   C827      1.0  0.59327  0.31314  0.70986  1.0000
  C   C828      1.0  0.77143  0.38413  0.76276  1.0000
  S   S215      1.0  0.54421  0.33246  0.95931  1.0000
  H   H980      1.0  0.53228  0.26529  0.92495  1.0000
  Fe  Fe106     1.0  0.51036  0.31601  0.97990  1.0000
  C   C829      1.0  0.54624  0.25801  0.91776  1.0000
  Fe  Fe107     1.0  0.54653  0.37534  0.96415  1.0000
  C   C830      1.0  0.55664  0.25240  0.97371  1.0000
  H   H981      1.0  0.59413  0.27276  0.89982  1.0000
  C   C831      1.0  0.75752  0.36020  0.75187  1.0000
  H   H982      1.0  0.60064  0.23625  0.93859  1.0000
  H   H983      1.0  0.54657  0.26482  0.90390  1.0000
  H   H984      1.0  0.64957  0.36771  0.73033  1.0000
  H   H985      1.0  0.61949  0.31571  0.73251  1.0000
  N   N56       1.0  0.57536  0.26986  0.92550  1.0000
  H   H986      1.0  0.53175  0.30346  0.70196  1.0000
  S   S216      1.0  0.73100  0.16585  0.99748  1.0000
  H   H987      1.0  0.59136  0.31143  0.91357  1.0000
  H   H988      1.0  0.75660  0.36266  0.73774  1.0000
  C   C832      1.0  0.57394  0.25795  0.94329  1.0000
  H   H989      1.0  0.60818  0.31093  0.93405  1.0000
  C   C833      1.0  0.58744  0.30146  0.92680  1.0000
  C   C834      1.0  0.74349  0.33317  0.75923  1.0000
  C   C835      1.0  0.58645  0.23075  0.96492  1.0000
  H   H990      1.0  0.72485  0.21723  0.98978  1.0000
  C   C836      1.0  0.61519  0.32745  0.72217  1.0000
  S   S217      1.0  0.64901  0.31889  0.68060  1.0000
  H   H991      1.0  0.73166  0.31478  0.75071  1.0000
  H   H992      1.0  0.81168  0.31584  0.98374  1.0000
  C   C837      1.0  0.55798  0.26294  0.95670  1.0000
  H   H993      1.0  0.53109  0.10896  0.98509  1.0000
  H   H994      1.0  0.74810  0.43206  0.92026  1.0000
  C   C838      1.0  0.60022  0.01704  0.96372  1.0000
  C   C839      1.0  0.80205  0.33839  0.96332  1.0000
  H   H995      1.0  0.65085  0.43190  0.98008  1.0000
  C   C840      1.0  0.73094  0.48478  0.95980  1.0000
  C   C841      1.0  0.55394  0.12055  0.96113  1.0000
  N   N57       1.0  0.56468  0.31233  0.68288  1.0000
  C   C842      1.0  0.52447  0.14251  0.97205  1.0000
  C   C843      1.0  0.70444  0.49672  0.99135  1.0000
  C   C844      1.0  0.58965  0.13176  0.00307  1.0000
  H   H996      1.0  0.60434  0.37082  0.68444  1.0000
  H   H997      1.0  0.61584  0.27223  0.91772  1.0000
  C   C845      1.0  0.58803  0.39001  0.00057  1.0000
  C   C846      1.0  0.70375  0.45045  0.99227  1.0000
  S   S218      1.0  0.51220  0.30745  0.91451  1.0000
  Fe  Fe108     1.0  0.83768  0.49688  0.93535  1.0000
  H   H998      1.0  0.80039  0.48988  0.99918  1.0000
  H   H999      1.0  0.93595  0.40922  0.00199  1.0000
  H   H1000     1.0  0.55142  0.34545  0.68001  1.0000
  S   S219      1.0  0.70299  0.38179  0.67377  1.0000
  H   H1001     1.0  0.52660  0.17710  0.95496  1.0000
  H   H1002     1.0  0.72736  0.46009  0.99191  1.0000
  C   C847      1.0  0.68176  0.45898  0.94992  1.0000
  H   H1003     1.0  0.69521  0.42863  0.98638  1.0000
  C   C848      1.0  0.71996  0.47596  0.92867  1.0000
  H   H1004     1.0  0.53981  0.27405  0.69788  1.0000
  H   H1005     1.0  0.55822  0.17264  0.93344  1.0000
  H   H1006     1.0  0.59666  0.45771  0.99489  1.0000
  S   S220      1.0  0.51568  0.36003  0.98620  1.0000
  H   H1007     1.0  0.81208  0.37412  0.00049  1.0000
  C   C849      1.0  0.82372  0.41915  0.00075  1.0000
  H   H1008     1.0  0.65898  0.44776  0.95187  1.0000
  H   H1009     1.0  0.59392  0.12047  0.99245  1.0000
  C   C850      1.0  0.70154  0.47066  0.96416  1.0000
  C   C851      1.0  0.55160  0.15852  0.94465  1.0000
  S   S221      1.0  0.51918  0.29218  0.00237  1.0000
  C   C852      1.0  0.69100  0.46169  0.93247  1.0000
  H   H1010     1.0  0.75260  0.26760  0.99949  1.0000
  C   C853      1.0  0.52144  0.15453  0.00246  1.0000
  H   H1011     1.0  0.54062  0.17538  0.00079  1.0000
  C   C854      1.0  0.53328  0.16073  0.95717  1.0000
  H   H1012     1.0  0.51011  0.18686  0.98064  1.0000
  N   N58       1.0  0.69268  0.46801  0.98282  1.0000
  H   H1013     1.0  0.76245  0.49880  0.93929  1.0000
  H   H1014     1.0  0.65136  0.46644  0.97844  1.0000
  C   C855      1.0  0.96432  0.50251  0.00093  1.0000
  C   C856      1.0  0.62310  0.01075  0.96112  1.0000
  H   H1015     1.0  0.57014  0.22853  0.99107  1.0000
  C   C857      1.0  0.59702  0.16077  0.00154  1.0000
  H   H1016     1.0  0.65545  0.45322  0.99934  1.0000
  H   H1017     1.0  0.51987  0.28220  0.68207  1.0000
  H   H1018     1.0  0.57839  0.27974  0.67840  1.0000
  C   C858      1.0  0.55751  0.33147  0.67179  1.0000
  C   C859      1.0  0.75829  0.25152  0.00436  1.0000
  C   C860      1.0  0.57424  0.29581  0.67111  1.0000
  C   C861      1.0  0.67122  0.55845  0.13907  1.0000
  H   H1019     1.0  0.61802  0.51876  0.13395  1.0000
  H   H1020     1.0  0.52578  0.51514  0.05101  1.0000
  C   C862      1.0  0.52591  0.73774  0.03755  1.0000
  S   S222      1.0  0.69711  0.52022  0.07490  1.0000
  N   N59       1.0  0.65557  0.55219  0.12201  1.0000
  S   S223      1.0  0.64976  0.55784  0.05873  1.0000
  C   C863      1.0  0.67555  0.55299  0.10805  1.0000
  C   C864      1.0  0.62303  0.57336  0.13081  1.0000
  S   S224      1.0  0.55248  0.70361  0.03060  1.0000
  Fe  Fe109     1.0  0.53648  0.62455  0.07494  1.0000
  H   H1021     1.0  0.52208  0.53505  0.06888  1.0000
  S   S225      1.0  0.55425  0.59374  0.08383  1.0000
  H   H1022     1.0  0.74871  0.53632  0.02974  1.0000
  H   H1023     1.0  0.65719  0.55627  0.15043  1.0000
  S   S226      1.0  0.55045  0.67166  0.08040  1.0000
  C   C865      1.0  0.51049  0.52156  0.05727  1.0000
  H   H1024     1.0  0.53964  0.55366  0.03029  1.0000
  C   C866      1.0  0.54203  0.73059  0.02574  1.0000
  H   H1025     1.0  0.52943  0.98753  0.02997  1.0000
  H   H1026     1.0  0.51890  0.57273  0.02746  1.0000
  C   C867      1.0  0.54205  0.76670  0.00545  1.0000
  H   H1027     1.0  0.61835  0.51792  0.11033  1.0000
  C   C868      1.0  0.62142  0.56593  0.06468  1.0000
  C   C869      1.0  0.60075  0.54977  0.07694  1.0000
  C   C870      1.0  0.58030  0.55851  0.08248  1.0000
  C   C871      1.0  0.57973  0.58310  0.07556  1.0000
  C   C872      1.0  0.59971  0.59864  0.06280  1.0000
  C   C873      1.0  0.62057  0.59024  0.05756  1.0000
  S   S227      1.0  0.51657  0.80180  0.01321  1.0000
  H   H1028     1.0  0.56512  0.54642  0.09245  1.0000
  H   H1029     1.0  0.59974  0.61767  0.05740  1.0000
  H   H1030     1.0  0.63648  0.60298  0.04810  1.0000
  H   H1031     1.0  0.66496  0.54816  0.09484  1.0000
  H   H1032     1.0  0.60966  0.62463  0.11175  1.0000
  Fe  Fe110     1.0  0.65576  0.51797  0.06416  1.0000
  H   H1033     1.0  0.68067  0.54351  0.14141  1.0000
  H   H1034     1.0  0.78781  0.56407  0.00894  1.0000
  C   C874      1.0  0.52637  0.77418  0.01742  1.0000
  H   H1035     1.0  0.68890  0.58065  0.13941  1.0000
  C   C875      1.0  0.61097  0.59195  0.12815  1.0000
  C   C876      1.0  0.64060  0.61141  0.10280  1.0000
  C   C877      1.0  0.64390  0.57282  0.11925  1.0000
  H   H1036     1.0  0.68356  0.53691  0.11034  1.0000
  Fe  Fe111     1.0  0.53311  0.67266  0.05318  1.0000
  C   C878      1.0  0.65260  0.59272  0.10521  1.0000
  C   C879      1.0  0.51800  0.96524  0.02594  1.0000
  C   C880      1.0  0.54990  0.74506  0.00964  1.0000
  H   H1037     1.0  0.69472  0.57415  0.10756  1.0000
  H   H1038     1.0  0.53912  0.57687  0.04736  1.0000
  H   H1039     1.0  0.60107  0.53107  0.08256  1.0000
  C   C881      1.0  0.61963  0.61082  0.11411  1.0000
  C   C882      1.0  0.63199  0.52260  0.12236  1.0000
  C   C883      1.0  0.52174  0.95714  0.00900  1.0000
  S   S228      1.0  0.52273  0.62680  0.04713  1.0000
  H   H1040     1.0  0.66799  0.59379  0.09552  1.0000
  H   H1041     1.0  0.59453  0.59154  0.13684  1.0000
  C   C884      1.0  0.75995  0.52617  0.02313  1.0000
  H   H1042     1.0  0.51997  0.72702  0.05007  1.0000
  H   H1043     1.0  0.64687  0.62576  0.09168  1.0000
  C   C885      1.0  0.52556  0.56107  0.03718  1.0000
  H   H1044     1.0  0.61562  0.55915  0.14189  1.0000
  C   C886      1.0  0.51832  0.75954  0.03345  1.0000
  C   C887      1.0  0.78205  0.54182  0.01133  1.0000
  H   H1045     1.0  0.50819  0.57273  0.46186  1.0000
  H   H1046     1.0  0.52253  0.99473  0.49996  1.0000
  Fe  Fe112     1.0  0.66707  0.55304  0.46296  1.0000
  H   H1047     1.0  0.54205  0.57342  0.45873  1.0000
  S   S229      1.0  0.66533  0.59519  0.46848  1.0000
  H   H1048     1.0  0.97054  0.55341  0.61335  1.0000
  H   H1049     1.0  0.80873  0.63180  0.55712  1.0000
  S   S230      1.0  0.70806  0.54890  0.46097  1.0000
  Fe  Fe113     1.0  0.85543  0.53664  0.55028  1.0000
  S   S231      1.0  0.84262  0.56030  0.52991  1.0000
  Fe  Fe114     1.0  0.90612  0.52822  0.56463  1.0000
  H   H1050     1.0  0.74478  0.57548  0.52137  1.0000
  S   S232      1.0  0.95343  0.53765  0.56448  1.0000
  C   C888      1.0  0.76342  0.64541  0.53106  1.0000
  C   C889      1.0  0.78494  0.65003  0.54346  1.0000
  H   H1051     1.0  0.79651  0.67083  0.54976  1.0000
  S   S233      1.0  0.88393  0.55371  0.57445  1.0000
  Fe  Fe115     1.0  0.54907  0.65681  0.45942  1.0000
  S   S234      1.0  0.87970  0.51409  0.53965  1.0000
  S   S235      1.0  0.56957  0.63213  0.44526  1.0000
  Fe  Fe116     1.0  0.54223  0.70811  0.47425  1.0000
  S   S236      1.0  0.55520  0.75558  0.47714  1.0000
  H   H1052     1.0  0.51961  0.92341  0.63866  1.0000
  S   S237      1.0  0.56247  0.68148  0.48509  1.0000
  S   S238      1.0  0.53247  0.68614  0.44749  1.0000
  Fe  Fe117     1.0  0.56397  0.90535  0.57065  1.0000
  C   C890      1.0  0.78467  0.52850  0.53474  1.0000
  S   S239      1.0  0.58511  0.94761  0.58625  1.0000
  Fe  Fe118     1.0  0.55836  0.84796  0.55623  1.0000
  S   S240      1.0  0.57145  0.81258  0.55344  1.0000
  H   H1053     1.0  0.73862  0.65634  0.50094  1.0000
  H   H1054     1.0  0.94899  0.56626  0.64637  1.0000
  H   H1055     1.0  0.53097  0.89010  0.62169  1.0000
  S   S241      1.0  0.57676  0.89247  0.54502  1.0000
  S   S242      1.0  0.54961  0.86157  0.58286  1.0000
  C   C891      1.0  0.55972  0.77099  0.49847  1.0000
  C   C892      1.0  0.56169  0.79847  0.50044  1.0000
  C   C893      1.0  0.56469  0.81111  0.51725  1.0000
  C   C894      1.0  0.56702  0.79686  0.53219  1.0000
  C   C895      1.0  0.56586  0.76969  0.53019  1.0000
  C   C896      1.0  0.56162  0.75654  0.51344  1.0000
  S   S243      1.0  0.51799  0.88805  0.51049  1.0000
  H   H1056     1.0  0.95904  0.58029  0.61545  1.0000
  H   H1057     1.0  0.56840  0.75880  0.54158  1.0000
  H   H1058     1.0  0.56063  0.73557  0.51204  1.0000
  C   C897      1.0  0.98633  0.56934  0.56731  1.0000
  C   C898      1.0  0.74805  0.61835  0.52255  1.0000
  C   C899      1.0  0.98771  0.59651  0.56906  1.0000
  C   C900      1.0  0.75549  0.59649  0.52731  1.0000
  H   H1059     1.0  0.96827  0.59877  0.56886  1.0000
  C   C901      1.0  0.63768  0.60424  0.46239  1.0000
  C   C902      1.0  0.63526  0.62655  0.47148  1.0000
  C   C903      1.0  0.61415  0.63494  0.46675  1.0000
  C   C904      1.0  0.59567  0.62161  0.45252  1.0000
  C   C905      1.0  0.59807  0.59925  0.44349  1.0000
  C   C906      1.0  0.61863  0.59033  0.44853  1.0000
  H   H1060     1.0  0.64993  0.63759  0.48217  1.0000
  H   H1061     1.0  0.61274  0.65229  0.47376  1.0000
  H   H1062     1.0  0.58403  0.58887  0.43241  1.0000
  H   H1063     1.0  0.62028  0.57328  0.44133  1.0000
  C   C907      1.0  0.74849  0.52631  0.51366  1.0000
  H   H1064     1.0  0.88916  0.53833  0.63355  1.0000
  H   H1065     1.0  0.84645  0.51361  0.50636  1.0000
  C   C908      1.0  0.80630  0.54690  0.52377  1.0000
  C   C909      1.0  0.79887  0.55503  0.50768  1.0000
  C   C910      1.0  0.77006  0.54449  0.50252  1.0000
  H   H1066     1.0  0.98777  0.53428  0.48397  1.0000
  H   H1067     1.0  0.51688  0.78866  0.47342  1.0000
  H   H1068     1.0  0.81549  0.56950  0.49918  1.0000
  H   H1069     1.0  0.56613  0.83227  0.51859  1.0000
  H   H1070     1.0  0.00129  0.57281  0.50539  1.0000
  C   C911      1.0  0.60736  0.98166  0.57699  1.0000
  C   C912      1.0  0.62593  0.98465  0.56316  1.0000
  Fe  Fe119     1.0  0.69137  0.51807  0.48332  1.0000
  H   H1071     1.0  0.62580  0.96581  0.55717  1.0000
  H   H1072     1.0  0.75668  0.62385  0.48804  1.0000
  H   H1073     1.0  0.72034  0.60309  0.48096  1.0000
  H   H1074     1.0  0.60995  0.55315  0.48506  1.0000
  C   C913      1.0  0.53660  0.58551  0.49265  1.0000
  H   H1075     1.0  0.73828  0.58630  0.49251  1.0000
  H   H1076     1.0  0.55566  0.60120  0.48557  1.0000
  H   H1077     1.0  0.69186  0.59107  0.52701  1.0000
  H   H1078     1.0  0.76456  0.55097  0.49016  1.0000
  H   H1079     1.0  0.70267  0.63222  0.49563  1.0000
  H   H1080     1.0  0.58133  0.57840  0.48177  1.0000
  C   C914      1.0  0.58700  0.54157  0.48649  1.0000
  H   H1081     1.0  0.89404  0.54136  0.61027  1.0000
  C   C915      1.0  0.57035  0.55593  0.48478  1.0000
  C   C916      1.0  0.51705  0.89085  0.61086  1.0000
  H   H1082     1.0  0.81997  0.51851  0.49444  1.0000
  Fe  Fe120     1.0  0.53150  0.87964  0.53688  1.0000
  C   C917      1.0  0.54025  0.54147  0.48639  1.0000
  H   H1083     1.0  0.65814  0.97956  0.62667  1.0000
  N   N60       1.0  0.72598  0.61280  0.50881  1.0000
  H   H1084     1.0  0.75937  0.66340  0.52831  1.0000
  H   H1085     1.0  0.68139  0.58430  0.50417  1.0000
  Fe  Fe121     1.0  0.85252  0.51245  0.58713  1.0000
  C   C918      1.0  0.69889  0.58790  0.51374  1.0000
  C   C919      1.0  0.71967  0.63733  0.50586  1.0000
  C   C920      1.0  0.90547  0.54773  0.62315  1.0000
  H   H1086     1.0  0.53384  0.78368  0.58634  1.0000
  H   H1087     1.0  0.56125  0.81021  0.48892  1.0000
  H   H1088     1.0  0.78265  0.58432  0.54276  1.0000
  C   C921      1.0  0.79185  0.62809  0.54766  1.0000
  S   S244      1.0  0.51958  0.89489  0.56155  1.0000
  C   C922      1.0  0.77712  0.60136  0.53961  1.0000
  H   H1089     1.0  0.70061  0.56754  0.51391  1.0000
  H   H1090     1.0  0.71188  0.64324  0.51807  1.0000
  H   H1091     1.0  0.52063  0.84211  0.46030  1.0000
  S   S245      1.0  0.64350  0.51719  0.44352  1.0000
  Fe  Fe122     1.0  0.68275  0.51006  0.44364  1.0000
  H   H1092     1.0  0.53455  0.84233  0.48161  1.0000
  S   S246      1.0  0.65237  0.52466  0.48644  1.0000
  H   H1093     1.0  0.53129  0.90768  0.60170  1.0000
  H   H1094     1.0  0.52216  0.59568  0.49322  1.0000
  C   C923      1.0  0.51353  0.73685  0.56674  1.0000
  C   C924      1.0  0.66816  0.00253  0.62491  1.0000
  H   H1095     1.0  0.91397  0.57130  0.62461  1.0000
  C   C925      1.0  0.73576  0.60622  0.49188  1.0000
  H   H1096     1.0  0.78997  0.52265  0.54732  1.0000
  C   C926      1.0  0.75595  0.51842  0.52975  1.0000
  H   H1097     1.0  0.54285  0.58400  0.50649  1.0000
  C   C927      1.0  0.51467  0.83875  0.47439  1.0000
  H   H1098     1.0  0.94393  0.55394  0.59836  1.0000
  C   C928      1.0  0.91659  0.50761  0.61974  1.0000
  H   H1099     1.0  0.52617  0.72765  0.57361  1.0000
  C   C929      1.0  0.95143  0.55719  0.61232  1.0000
  H   H1100     1.0  0.52657  0.75396  0.60061  1.0000
  C   C930      1.0  0.52778  0.51144  0.48909  1.0000
  N   N61       1.0  0.92824  0.53845  0.62420  1.0000
  H   H1101     1.0  0.84411  0.50925  0.48274  1.0000
  C   C931      1.0  0.93980  0.54329  0.64243  1.0000
  S   S247      1.0  0.51435  0.83453  0.54588  1.0000
  H   H1102     1.0  0.51991  0.94220  0.61921  1.0000
  N   N62       1.0  0.52295  0.55692  0.48380  1.0000
  C   C932      1.0  0.57419  0.51230  0.48948  1.0000
  S   S248      1.0  0.71199  0.51481  0.50897  1.0000
  H   H1103     1.0  0.95689  0.53644  0.64378  1.0000
  C   C933      1.0  0.52073  0.56091  0.46467  1.0000
  Fe  Fe123     1.0  0.51803  0.65219  0.49350  1.0000
  H   H1104     1.0  0.50832  0.86997  0.60372  1.0000
  H   H1105     1.0  0.99203  0.52726  0.53721  1.0000
  C   C934      1.0  0.99251  0.51038  0.52911  1.0000
  H   H1106     1.0  0.66484  0.99930  0.59665  1.0000
  H   H1107     1.0  0.52947  0.75597  0.55983  1.0000
  H   H1108     1.0  0.51167  0.80878  0.50220  1.0000
  C   C935      1.0  0.51643  0.76461  0.59260  1.0000
  H   H1109     1.0  0.50739  0.87817  0.64798  1.0000
  H   H1110     1.0  0.59420  0.00463  0.59550  1.0000
  H   H1111     1.0  0.92302  0.53099  0.65214  1.0000
  H   H1112     1.0  0.51047  0.54008  0.45746  1.0000
  S   S249      1.0  0.50846  0.62927  0.51926  1.0000
  H   H1113     1.0  0.50930  0.85603  0.47872  1.0000
  H   H1114     1.0  0.94917  0.51044  0.60072  1.0000
  C   C936      1.0  0.60826  0.00657  0.58472  1.0000
  C   C937      1.0  0.59556  0.94342  0.91476  1.0000
  H   H1115     1.0  0.56407  0.96507  0.92856  1.0000
  H   H1116     1.0  0.52992  0.93946  0.92033  1.0000
  H   H1117     1.0  0.54918  0.92846  0.93540  1.0000
  S   S250      1.0  0.94090  0.52930  0.95627  1.0000
  C   C938      1.0  0.79664  0.52878  0.00255  1.0000
  C   C939      1.0  0.54902  0.90485  0.90443  1.0000
  S   S251      1.0  0.86783  0.53970  0.94716  1.0000
  Fe  Fe124     1.0  0.89318  0.51767  0.95740  1.0000
  Fe  Fe125     1.0  0.54691  0.87996  0.96485  1.0000
  H   H1118     1.0  0.58118  0.97676  0.89687  1.0000
  S   S252      1.0  0.58669  0.92328  0.96209  1.0000
  S   S253      1.0  0.50942  0.86393  0.94594  1.0000
  H   H1119     1.0  0.59633  0.93200  0.92685  1.0000
  C   C940      1.0  0.97563  0.54770  0.91279  1.0000
  H   H1120     1.0  0.57604  0.94764  0.88218  1.0000
  S   S254      1.0  0.54966  0.83791  0.96438  1.0000
  C   C941      1.0  0.57291  0.99416  0.96625  1.0000
  C   C942      1.0  0.55925  0.88432  0.90731  1.0000
  H   H1121     1.0  0.93085  0.57091  0.93548  1.0000
  C   C943      1.0  0.97731  0.58794  0.96045  1.0000
  C   C944      1.0  0.56848  0.96549  0.96627  1.0000
  C   C945      1.0  0.59131  0.95919  0.96349  1.0000
  C   C946      1.0  0.61861  0.98204  0.96093  1.0000
  H   H1122     1.0  0.54736  0.94826  0.96815  1.0000
  H   H1123     1.0  0.63649  0.97753  0.95880  1.0000
  C   C947      1.0  0.97459  0.56020  0.95884  1.0000
  C   C948      1.0  0.91697  0.53460  0.90826  1.0000
  H   H1124     1.0  0.92081  0.52246  0.89740  1.0000
  H   H1125     1.0  0.95848  0.59117  0.96123  1.0000
  C   C949      1.0  0.96794  0.57033  0.91114  1.0000
  H   H1126     1.0  0.57978  0.88978  0.91325  1.0000
  S   S255      1.0  0.82371  0.54846  0.98743  1.0000
  H   H1127     1.0  0.98645  0.61700  0.91100  1.0000
  H   H1128     1.0  0.72809  0.50774  0.99162  1.0000
  C   C950      1.0  0.52096  0.89447  0.89739  1.0000
  C   C951      1.0  0.99050  0.59865  0.91202  1.0000
  H   H1129     1.0  0.94380  0.60317  0.92312  1.0000
  H   H1130     1.0  0.50932  0.71589  0.96097  1.0000
  H   H1131     1.0  0.94890  0.60083  0.89065  1.0000
  C   C952      1.0  0.56728  0.95367  0.89393  1.0000
  H   H1132     1.0  0.54616  0.95201  0.89018  1.0000
  C   C953      1.0  0.93577  0.57724  0.89105  1.0000
  N   N63       1.0  0.93813  0.56533  0.90829  1.0000
  C   C954      1.0  0.55160  0.94249  0.92394  1.0000
  H   H1133     1.0  0.98222  0.51899  0.99411  1.0000
  H   H1134     1.0  0.60745  0.93869  0.90422  1.0000
  H   H1135     1.0  0.56237  0.73969  0.00042  1.0000
  H   H1136     1.0  0.94295  0.56775  0.88018  1.0000
  H   H1137     1.0  0.91339  0.57288  0.88807  1.0000
  C   C955      1.0  0.99956  0.55667  0.95854  1.0000
  H   H1138     1.0  0.69714  0.51084  0.98436  1.0000
  H   H1139     1.0  0.60765  0.96658  0.91824  1.0000
  H   H1140     1.0  0.51124  0.90850  0.89552  1.0000
  N   N64       1.0  0.56576  0.93551  0.90919  1.0000
  H   H1141     1.0  0.91740  0.52440  0.92101  1.0000
  H   H1142     1.0  0.54851  0.77789  0.99311  1.0000
  H   H1143     1.0  0.55501  0.99869  0.96820  1.0000
  S   S256      1.0  0.52042  0.86824  0.98927  1.0000
  H   H1144     1.0  0.90772  0.57686  0.92041  1.0000
  Fe  Fe126     1.0  0.84144  0.52351  0.97166  1.0000
  H   H1145     1.0  0.96003  0.52550  0.91283  1.0000
  C   C956      1.0  0.92986  0.57977  0.92238  1.0000
  Fe  Fe127     1.0  0.51978  0.82501  0.98741  1.0000
  H   H1146     1.0  0.50988  0.92226  0.99050  1.0000
  H   H1147     1.0  0.93633  0.52096  0.99459  1.0000
  C   C957      1.0  0.54258  0.85546  0.90292  1.0000
  C   C958      1.0  0.51546  0.84619  0.89563  1.0000
  H   H1148     1.0  0.55039  0.83993  0.90556  1.0000
  Fe  Fe128     1.0  0.50981  0.82119  0.94738  1.0000
  H   H1149     1.0  0.89471  0.53157  0.90650  1.0000
  H   H1150     1.0  0.53610  0.97299  0.99998  1.0000
  C   C959      1.0  0.00409  0.55330  0.91513  1.0000
  H   H1151     1.0  0.99783  0.53538  0.95739  1.0000
  C   C960      1.0  0.00460  0.61176  0.96078  1.0000
  H   H1152     1.0  0.00641  0.63311  0.96158  1.0000
