data_image0
_chemical_formula_structural       NH2C2HC2H2NHC2HS2H2C3HC2HCHFeCHCH3S2C2HC3HC2H5SCH2NH6CSH4CHCHC3HSC2SHFeS2HCHCFeSCHSHFeS3FeSCSFe2SHS2CHC4FeH2C4HCFeC6H5CH3C2H2C7H3C8H4CH3SH2C3HC2HC2HCH3CFeC2NCH3CHCH2FeH2CHSH5FeH4CH4FeC5SNCH5CHC4H3C2HCH3CHC2HCNHC2HCH2NCHCHNCH2CH2CHCH2CH3C2H2FeSCH2CHCNC7HCH14CNC6H5C2NH2CHCHCH2CFeH2CH2FeCH2FeS2H2SHCHSHSFeNHCHC3SCH2FeC2SHSHC2HC2HCHCH3SCH5CH2CH3CSNCHCH3CHCHCSC3H3CSCHC3H7CHCS2HCH2SC4SCSH2CSHCFeCSC2SC2H2CHCHFeHS2H4CHSHCHCH3NCHFeSNH3C3HC2H2CH2C4HC7H2C2HC7H3CSNHSH4CH3C2H4FeCH2FeHCHC2HCHCNHSHC2HCHFeHCH2S2CSHCHSHCH3C4H2NC6SH9CH5C3NHSH2C2HC3SC2H3SH2C3HC2NHCH5NCH4C2H2SC2H7C4H4CH2CHCH5SH4CHSCH3SH5CH2CHCHCH3C2H2C2FeSHCSCHSCHC8H4C2H8C3HNC2H3C3H2C2SH6NCH2CH2CSNH3CH2CFeS2FeSCFe2S3CH3S2H3FeS2FeSFeHS2HFeCHC4SH4CFeC6H4C6H4SFeS3HCHSHCH5FeC2HCH4C2HCSC3NC2SCHFeC5H3SCHCFeC2NCH2C3FeHCHSHNCHCHCHC4H5NH2SH6CH2CHCH2NHCHFeH2CHCSCH2CNH2SH2C2SCH2CS2FeSCHSFeSHSCFeS2FeS2CFeS3FeS2FeS2FeSFeS2FeS2FeS2FeSCSHFeCFeS2FeS2FeHFeS3FeS2FeS2HFeSHSHCH2FeCFeS2C6H4C7H2CHC6H3SC6H5SH2FeC6H4C6H4C6H4CHSH2CH4C6H2CHC6H9CNC9H11CH2C2H4CHC2NHFeC2FeC2HNC9H13SH3C2H2C2HC2HCNHSC3H2FeNFeH4FeCH2CH3CHC7H4C2HFeC2FeCSHC2HNHNH7NC9H13CH2CH4CH2CH3C3HSHSCH3SC2H2C3H2SH2C2H2CH2NH3CH6CH3SC2H3NH2C2H2SH3CH4CH2CHCH2C2SC2H3CH2C2HCHCH2CHCH2CHCNFeSC2FeSFeCHCHSH2SHCFeSCH3FeS2FeH2FeS3CFeCSFeS3FeCSFeHSNHS2HCSH3FeSCHNHSCNCFeCH3C3HC4H2C6H2SHCHC4H3C5H3CHC2HSHCHCH3C3HSC2FeHC6HC2H2CHC2H3C3SH5C2HNHC2HCSH3NHC2FeSHCH2CHCSH2CH3C2SHSCFeHSHCHCH2C3SH3C3H2SHC4H2CFeC3H4CNC9H6CH4SHFeCHSH2FeH3C2H2CH4CHSCFeCH3C2H2CSNCHC2H2CHC2H3C2HNHC2HC4H2CHC2H2CH2CHCH2FeS2FeSFeS3FeS2NHC3SC2H2CH2SCH3CHC3H4CHC3H2C6H4C6HCSFeHC2H3CHCH2C2FeCH5CH5NHCHC3HC2H3SHC3HCSCHNHCH2CH3CH3CH2C4H2CSHFeH2CHCHCHC3H3C2H2C2HSCNHSC2SFeHSFeSHSHC4H5SC3FeCHC8H4FeH2C2H2C6HCH3SCNHCH2FeC2H6CFeH3NHFeSHS2FeSFeS3C2SFeS2FeS2CFeS3HSC2SHFeS2FeS2FeS2FeSCSH3FeHSFeHSH4SH3FeS2FeS2FeSFeS2C2H2C4NH6CHCH3C6H4C6H4FeHCHC2H4C6H4C6H4C2HC3HCH2C6H4CHC3HCHC2NH5CH2CH2CH2CH2SHCHC3HC2HCH2NH3CHCHC3HCH2C2HCH2C2HFeNH2CHC2FeHC2H4C2HNCH2C2H3CH3C2H2C3NHC3H2CH2FeH4N2C2H3C3HC5H3C2H2NCHCH2C3HNCH2CH3C2SFeH4CHC3NCHCHC2HCHCH2C2HSH3CH2CH3C3HCH5CHCH2C2HC3H2CSFeCH2CH5C4H4C2HCH2CH2CH2SCHFeSH3S2FeSHCSH4CH2FeS2FeSC4HCH5CH3SCH2SHCHCSH3CHFeC3H3C6H4CHCHC6HFeH3C6H7CSHC6H4C2H4CHCHCHC2N2C3HC3S3CHCSCH4CHC2FeC2SH2CH5CH6CHNCSH3CHCSH2C2HC3H2NHCSHC4HNC2HCHCH4C2H5CHCHCFeCFeHSCHSHFeHC2HCH4SCHC2H2NHC6H3CHSC2H4CHC3HCSH2FeC3NHCNC8SH11CHC2HCHC2SH2CHCSHC3SHSH2FeHSC2SHCHFeS2Fe2S2FeS2FeS2HFeS3H2SH4C2S2H2C8H4C6H3C7H2NC3FeHSHCH2CH2C2H4C2H4NH4C2H5CNHCHFeCH4C2HCH2FeH12C2H3C2H2CH2CSHFeSHFeS2FeSNFeHFeS3FeSCFeS2FeSFeS3FeS2FeSFeHS2HS2FeS2FeCFeSHSFeS2FeS2FeSFeS3FeS2FeS2FeSFeS3C6H5SC2FeHC6H4C6H4C3HCH2CH2C5SH5SC2NCH2C6H4C6H8CH3C6H4C6HCH9CNC9H15CH3CH5CH3CSC3HC2H4CNC6HCHSH8CHCH5CHSC3HCHSH3C2HCH4CHNH4C2HC3HC2HCSH2SCH2FeHCHC2H2C2H2CHC7SCHC2H3CN2CHC2HCH5CH4FeCH2NC2HCH8CNHC3H2C5H2SCH4CH2CHC2H2SCH4CNCHCH2CH4CHC2HCH3C2HCH3C4H2CHC2HC2HCHC4H2CH2C2HCSH2C2NCS3FeS2FeS3C4FeHC7H4C2SCHCH6SH2CHCSH2CH3CSCH2FeC2H2FeC7HFeH2NCH7CSH4CH2C2HCH4SHC2SHC2H3SC5H4NHNHCH3SHC3HCHCH2CHFeCHCNHCH2CH3CHCHFeCFeH3NFeCHC2HS2CHCHFeCFeC2H2FeH2C3H2C2HC2HCH4S2CHFeHCHCHCH3CHCHNHSC2H8CH2SCH3SC2H3SHCS2FeS2HNH3CFeHSC4HC7H5NC10H11C2H2SCH2CSFeCHC2H5CHC3H2FeH2CH2C2HCHCH2CH2CHCH4SCHC3H3CSH2CHCHFeH
_chemical_formula_sum              "N96 H1728 C1440 S384 Fe192"
_cell_length_a       75.8849
_cell_length_b       75.6673
_cell_length_c       75.6963
_cell_angle_alpha    80.7401
_cell_angle_beta     81.126
_cell_angle_gamma    81.0853

_space_group_name_H-M_alt    "P 1"
_space_group_IT_number       1

loop_
  _space_group_symop_operation_xyz
  'x, y, z'

loop_
  _atom_site_type_symbol
  _atom_site_label
  _atom_site_symmetry_multiplicity
  _atom_site_fract_x
  _atom_site_fract_y
  _atom_site_fract_z
  _atom_site_occupancy
  N   N1        1.0  0.45572  0.39309  0.24780  1.0000
  H   H1        1.0  0.45714  0.44359  0.04919  1.0000
  H   H2        1.0  0.42922  0.38657  0.24735  1.0000
  C   C1        1.0  0.44382  0.48553  0.23397  1.0000
  C   C2        1.0  0.40601  0.48574  0.10478  1.0000
  H   H3        1.0  0.48922  0.43774  0.13713  1.0000
  C   C3        1.0  0.42567  0.49247  0.23309  1.0000
  C   C4        1.0  0.45177  0.47049  0.22543  1.0000
  H   H4        1.0  0.46619  0.46852  0.07404  1.0000
  H   H5        1.0  0.46588  0.46550  0.22585  1.0000
  N   N2        1.0  0.43912  0.48775  0.16080  1.0000
  H   H6        1.0  0.45972  0.48887  0.05952  1.0000
  C   C5        1.0  0.44714  0.44758  0.06077  1.0000
  C   C6        1.0  0.46099  0.47395  0.06099  1.0000
  H   H7        1.0  0.47586  0.44068  0.10852  1.0000
  S   S1        1.0  0.49106  0.43582  0.07205  1.0000
  S   S2        1.0  0.49733  0.43222  0.22545  1.0000
  H   H8        1.0  0.41492  0.46180  0.20956  1.0000
  H   H9        1.0  0.47469  0.47551  0.10687  1.0000
  C   C7        1.0  0.49766  0.43477  0.12480  1.0000
  C   C8        1.0  0.42475  0.49208  0.07624  1.0000
  C   C9        1.0  0.42314  0.46855  0.21608  1.0000
  H   H10       1.0  0.46961  0.40757  0.22426  1.0000
  C   C10       1.0  0.41539  0.48403  0.22397  1.0000
  C   C11       1.0  0.44141  0.46189  0.21654  1.0000
  H   H11       1.0  0.45309  0.44077  0.07306  1.0000
  C   C12       1.0  0.44501  0.49237  0.14122  1.0000
  H   H12       1.0  0.42705  0.44667  0.09100  1.0000
  Fe  Fe1       1.0  0.48137  0.43662  0.20217  1.0000
  C   C13       1.0  0.41136  0.46729  0.10458  1.0000
  H   H13       1.0  0.42280  0.46858  0.15600  1.0000
  C   C14       1.0  0.43045  0.47341  0.07550  1.0000
  H   H14       1.0  0.43786  0.40084  0.22745  1.0000
  H   H15       1.0  0.40605  0.45770  0.11558  1.0000
  H   H16       1.0  0.43464  0.44186  0.06012  1.0000
  S   S3        1.0  0.49042  0.45006  0.01972  1.0000
  S   S4        1.0  0.45102  0.44329  0.20527  1.0000
  C   C15       1.0  0.49016  0.43653  0.10854  1.0000
  C   C16       1.0  0.43332  0.46950  0.16443  1.0000
  H   H17       1.0  0.42367  0.47177  0.04219  1.0000
  C   C17       1.0  0.42344  0.46112  0.09023  1.0000
  C   C18       1.0  0.45864  0.48071  0.13207  1.0000
  C   C19       1.0  0.45438  0.48768  0.17093  1.0000
  H   H18       1.0  0.46568  0.47691  0.16780  1.0000
  C   C20       1.0  0.41274  0.49808  0.09064  1.0000
  C   C21       1.0  0.43725  0.47532  0.04278  1.0000
  H   H19       1.0  0.44462  0.45856  0.16198  1.0000
  H   H20       1.0  0.44612  0.37732  0.23073  1.0000
  H   H21       1.0  0.44653  0.42182  0.24378  1.0000
  H   H22       1.0  0.39656  0.49051  0.11583  1.0000
  H   H23       1.0  0.43635  0.49028  0.04019  1.0000
  S   S5        1.0  0.49465  0.41132  0.19092  1.0000
  C   C22       1.0  0.47210  0.39572  0.23477  1.0000
  H   H24       1.0  0.41946  0.49648  0.18273  1.0000
  H   H25       1.0  0.42764  0.46607  0.17880  1.0000
  N   N3        1.0  0.44366  0.46752  0.06033  1.0000
  H   H26       1.0  0.47154  0.46964  0.05000  1.0000
  H   H27       1.0  0.44657  0.47039  0.03117  1.0000
  H   H28       1.0  0.40133  0.48914  0.22341  1.0000
  H   H29       1.0  0.45182  0.49194  0.24110  1.0000
  H   H30       1.0  0.47716  0.38395  0.22744  1.0000
  H   H31       1.0  0.46507  0.46845  0.13921  1.0000
  C   C23       1.0  0.46433  0.48467  0.11356  1.0000
  S   S6        1.0  0.49959  0.45428  0.18375  1.0000
  H   H32       1.0  0.48326  0.39792  0.24179  1.0000
  H   H33       1.0  0.45030  0.48515  0.18579  1.0000
  H   H34       1.0  0.45976  0.50087  0.16786  1.0000
  H   H35       1.0  0.46920  0.35796  0.24326  1.0000
  C   C24       1.0  0.44161  0.38926  0.23793  1.0000
  H   H36       1.0  0.41178  0.50123  0.16113  1.0000
  C   C25       1.0  0.45677  0.50040  0.10368  1.0000
  H   H37       1.0  0.42965  0.50224  0.06569  1.0000
  C   C26       1.0  0.42383  0.50055  0.16807  1.0000
  C   C27       1.0  0.50102  0.43299  0.09231  1.0000
  C   C28       1.0  0.38888  0.01401  0.42708  1.0000
  H   H38       1.0  0.34322  0.26226  0.47561  1.0000
  S   S7        1.0  0.41045  0.11478  0.47578  1.0000
  C   C29       1.0  0.01820  0.43931  0.45642  1.0000
  C   C30       1.0  0.36646  0.01137  0.49246  1.0000
  S   S8        1.0  0.39969  0.07400  0.47457  1.0000
  H   H39       1.0  0.05006  0.44828  0.39502  1.0000
  Fe  Fe2       1.0  0.39664  0.10143  0.45831  1.0000
  S   S9        1.0  0.40423  0.10236  0.42856  1.0000
  S   S10       1.0  0.36875  0.11033  0.47122  1.0000
  H   H40       1.0  0.03329  0.43068  0.38163  1.0000
  C   C31       1.0  0.21225  0.47726  0.37109  1.0000
  H   H41       1.0  0.43649  0.40988  0.26424  1.0000
  C   C32       1.0  0.31888  0.24913  0.45999  1.0000
  Fe  Fe3       1.0  0.06298  0.43972  0.47257  1.0000
  S   S11       1.0  0.06476  0.45876  0.44672  1.0000
  C   C33       1.0  0.43157  0.04928  0.43090  1.0000
  H   H42       1.0  0.46302  0.05401  0.45008  1.0000
  S   S12       1.0  0.10746  0.45907  0.45093  1.0000
  H   H43       1.0  0.14177  0.44743  0.41100  1.0000
  Fe  Fe4       1.0  0.09130  0.44200  0.43996  1.0000
  S   S13       1.0  0.09935  0.43338  0.41253  1.0000
  S   S14       1.0  0.08878  0.42160  0.46508  1.0000
  S   S15       1.0  0.45731  0.28201  0.36850  1.0000
  Fe  Fe5       1.0  0.40351  0.28986  0.46264  1.0000
  S   S16       1.0  0.42092  0.30777  0.44289  1.0000
  C   C34       1.0  0.38092  0.16915  0.49222  1.0000
  S   S17       1.0  0.37997  0.27842  0.45658  1.0000
  Fe  Fe6       1.0  0.37282  0.08343  0.48892  1.0000
  Fe  Fe7       1.0  0.26276  0.42410  0.45673  1.0000
  S   S18       1.0  0.27478  0.43476  0.42862  1.0000
  H   H44       1.0  0.16995  0.48515  0.39292  1.0000
  S   S19       1.0  0.25742  0.39528  0.46340  1.0000
  S   S20       1.0  0.23562  0.43540  0.46929  1.0000
  C   C35       1.0  0.29746  0.34417  0.48343  1.0000
  H   H45       1.0  0.34721  0.26471  0.44374  1.0000
  C   C36       1.0  0.25764  0.46815  0.43526  1.0000
  C   C37       1.0  0.26643  0.45757  0.42219  1.0000
  C   C38       1.0  0.26797  0.46509  0.40389  1.0000
  C   C39       1.0  0.26037  0.48303  0.39869  1.0000
  Fe  Fe8       1.0  0.10316  0.44017  0.47665  1.0000
  H   H46       1.0  0.25690  0.46268  0.44941  1.0000
  H   H47       1.0  0.27482  0.45696  0.39372  1.0000
  C   C40       1.0  0.34046  0.36052  0.45266  1.0000
  C   C41       1.0  0.18314  0.41114  0.47709  1.0000
  C   C42       1.0  0.49905  0.28004  0.47519  1.0000
  C   C43       1.0  0.46171  0.04085  0.37352  1.0000
  H   H48       1.0  0.03476  0.44715  0.41571  1.0000
  C   C44       1.0  0.47463  0.02597  0.45205  1.0000
  Fe  Fe9       1.0  0.23092  0.40675  0.47807  1.0000
  C   C45       1.0  0.44722  0.28940  0.38906  1.0000
  C   C46       1.0  0.43479  0.27937  0.40048  1.0000
  C   C47       1.0  0.42658  0.28487  0.41703  1.0000
  C   C48       1.0  0.43044  0.30071  0.42203  1.0000
  C   C49       1.0  0.44257  0.31095  0.41044  1.0000
  C   C50       1.0  0.45114  0.30520  0.39411  1.0000
  H   H49       1.0  0.43163  0.26720  0.39656  1.0000
  H   H50       1.0  0.41721  0.27692  0.42586  1.0000
  H   H51       1.0  0.44546  0.32330  0.41420  1.0000
  H   H52       1.0  0.46048  0.31315  0.38525  1.0000
  H   H53       1.0  0.17812  0.46992  0.37630  1.0000
  C   C51       1.0  0.38858  0.20398  0.47553  1.0000
  H   H54       1.0  0.21175  0.46680  0.48649  1.0000
  H   H55       1.0  0.47148  0.13275  0.44384  1.0000
  H   H56       1.0  0.45253  0.39206  0.28567  1.0000
  C   C52       1.0  0.45984  0.37768  0.26198  1.0000
  C   C53       1.0  0.16893  0.40785  0.46868  1.0000
  H   H57       1.0  0.14031  0.41291  0.46716  1.0000
  H   H58       1.0  0.17158  0.39851  0.45886  1.0000
  C   C54       1.0  0.07477  0.47380  0.36851  1.0000
  C   C55       1.0  0.07471  0.47878  0.38556  1.0000
  C   C56       1.0  0.08284  0.46666  0.39895  1.0000
  C   C57       1.0  0.09080  0.44941  0.39542  1.0000
  C   C58       1.0  0.09109  0.44452  0.37831  1.0000
  C   C59       1.0  0.08298  0.45664  0.36492  1.0000
  C   C60       1.0  0.32522  0.39619  0.46612  1.0000
  H   H59       1.0  0.08292  0.47069  0.41198  1.0000
  H   H60       1.0  0.09736  0.43124  0.37549  1.0000
  H   H61       1.0  0.08314  0.45278  0.35173  1.0000
  C   C61       1.0  0.18806  0.45300  0.40997  1.0000
  C   C62       1.0  0.19149  0.43801  0.42307  1.0000
  C   C63       1.0  0.42765  0.10134  0.42461  1.0000
  C   C64       1.0  0.43627  0.10650  0.40728  1.0000
  C   C65       1.0  0.45503  0.10596  0.40430  1.0000
  C   C66       1.0  0.46517  0.10018  0.41860  1.0000
  C   C67       1.0  0.45655  0.09476  0.43587  1.0000
  C   C68       1.0  0.43783  0.09528  0.43887  1.0000
  H   H62       1.0  0.42843  0.11116  0.39623  1.0000
  H   H63       1.0  0.46153  0.11004  0.39095  1.0000
  H   H64       1.0  0.46434  0.09020  0.44698  1.0000
  H   H65       1.0  0.43133  0.09083  0.45219  1.0000
  C   C69       1.0  0.12521  0.47732  0.37725  1.0000
  H   H66       1.0  0.44702  0.09900  0.47825  1.0000
  H   H67       1.0  0.32399  0.38394  0.47632  1.0000
  H   H68       1.0  0.47637  0.33246  0.26630  1.0000
  S   S21       1.0  0.41493  0.26369  0.47769  1.0000
  H   H69       1.0  0.42421  0.05974  0.43850  1.0000
  H   H70       1.0  0.26142  0.48875  0.38457  1.0000
  C   C70       1.0  0.44457  0.22709  0.50274  1.0000
  C   C71       1.0  0.42820  0.03145  0.43584  1.0000
  C   C72       1.0  0.13688  0.46035  0.40368  1.0000
  H   H71       1.0  0.03064  0.44321  0.44900  1.0000
  C   C73       1.0  0.46663  0.36026  0.25721  1.0000
  C   C74       1.0  0.35371  0.19223  0.45436  1.0000
  H   H72       1.0  0.06015  0.39822  0.39619  1.0000
  C   C75       1.0  0.14747  0.42733  0.48672  1.0000
  C   C76       1.0  0.12594  0.49273  0.40330  1.0000
  H   H73       1.0  0.34316  0.32657  0.50166  1.0000
  C   C77       1.0  0.00328  0.43950  0.44734  1.0000
  H   H74       1.0  0.45876  0.07338  0.38371  1.0000
  H   H75       1.0  0.33449  0.24371  0.48991  1.0000
  H   H76       1.0  0.50017  0.18669  0.38408  1.0000
  C   C78       1.0  0.33033  0.21180  0.47867  1.0000
  Fe  Fe10      1.0  0.38998  0.25289  0.47402  1.0000
  C   C79       1.0  0.48529  0.03350  0.39268  1.0000
  C   C80       1.0  0.15120  0.41603  0.47333  1.0000
  N   N4        1.0  0.33794  0.24153  0.46132  1.0000
  C   C81       1.0  0.05325  0.40828  0.43724  1.0000
  H   H77       1.0  0.46855  0.15559  0.43327  1.0000
  H   H78       1.0  0.06414  0.41960  0.38293  1.0000
  H   H79       1.0  0.45688  0.01181  0.40356  1.0000
  C   C82       1.0  0.48201  0.28722  0.48259  1.0000
  H   H80       1.0  0.19038  0.42576  0.49643  1.0000
  C   C83       1.0  0.04960  0.39917  0.45472  1.0000
  H   H81       1.0  0.45999  0.36605  0.30783  1.0000
  H   H82       1.0  0.47067  0.04535  0.36105  1.0000
  Fe  Fe11      1.0  0.50083  0.10979  0.38738  1.0000
  H   H83       1.0  0.44502  0.22683  0.48800  1.0000
  H   H84       1.0  0.03268  0.47878  0.46885  1.0000
  C   C84       1.0  0.33996  0.22153  0.46357  1.0000
  H   H85       1.0  0.19657  0.45130  0.46682  1.0000
  S   S22       1.0  0.07708  0.45611  0.48673  1.0000
  H   H86       1.0  0.49449  0.23696  0.34062  1.0000
  H   H87       1.0  0.07317  0.41278  0.40362  1.0000
  H   H88       1.0  0.37393  0.21339  0.49969  1.0000
  H   H89       1.0  0.46174  0.02183  0.45779  1.0000
  H   H90       1.0  0.36314  0.18456  0.44521  1.0000
  Fe  Fe12      1.0  0.26895  0.39522  0.48905  1.0000
  H   H91       1.0  0.49617  0.03723  0.38169  1.0000
  H   H92       1.0  0.03023  0.38605  0.47411  1.0000
  H   H93       1.0  0.18057  0.46450  0.45321  1.0000
  H   H94       1.0  0.18181  0.46200  0.49457  1.0000
  C   C85       1.0  0.49366  0.20809  0.34562  1.0000
  H   H95       1.0  0.06810  0.49185  0.38857  1.0000
  H   H96       1.0  0.21081  0.49630  0.44077  1.0000
  H   H97       1.0  0.37962  0.03560  0.48596  1.0000
  H   H98       1.0  0.49015  0.15760  0.27220  1.0000
  Fe  Fe13      1.0  0.39835  0.27383  0.50206  1.0000
  C   C86       1.0  0.46152  0.36450  0.29366  1.0000
  C   C87       1.0  0.47109  0.06403  0.38678  1.0000
  C   C88       1.0  0.47800  0.27008  0.42170  1.0000
  C   C89       1.0  0.34904  0.24967  0.44499  1.0000
  C   C90       1.0  0.32544  0.50006  0.31704  1.0000
  S   S23       1.0  0.03623  0.43126  0.48655  1.0000
  N   N5        1.0  0.19081  0.47945  0.47040  1.0000
  C   C91       1.0  0.48722  0.04172  0.31878  1.0000
  H   H99       1.0  0.34517  0.02556  0.45926  1.0000
  H   H100      1.0  0.32544  0.18574  0.49341  1.0000
  H   H101      1.0  0.32130  0.21875  0.48859  1.0000
  H   H102      1.0  0.46033  0.29391  0.44582  1.0000
  H   H103      1.0  0.31361  0.41990  0.43861  1.0000
  C   C92       1.0  0.45498  0.09771  0.48914  1.0000
  H   H104      1.0  0.47602  0.06787  0.39857  1.0000
  C   C93       1.0  0.10239  0.49803  0.48353  1.0000
  C   C94       1.0  0.36947  0.35086  0.43642  1.0000
  C   C95       1.0  0.13268  0.46106  0.38629  1.0000
  C   C96       1.0  0.48209  0.15564  0.28580  1.0000
  H   H105      1.0  0.48476  0.01889  0.39274  1.0000
  H   H106      1.0  0.42703  0.16026  0.49280  1.0000
  H   H107      1.0  0.31845  0.48826  0.32040  1.0000
  C   C97       1.0  0.47906  0.10684  0.50183  1.0000
  C   C98       1.0  0.48856  0.28199  0.44568  1.0000
  H   H108      1.0  0.48597  0.16664  0.45321  1.0000
  C   C99       1.0  0.02406  0.40370  0.43088  1.0000
  H   H109      1.0  0.32537  0.40786  0.42095  1.0000
  H   H110      1.0  0.21197  0.46427  0.36607  1.0000
  H   H111      1.0  0.46419  0.27742  0.42377  1.0000
  C   C100      1.0  0.48269  0.14750  0.31785  1.0000
  H   H112      1.0  0.49882  0.11681  0.44887  1.0000
  C   C101      1.0  0.02987  0.42284  0.39519  1.0000
  C   C102      1.0  0.49054  0.29821  0.41541  1.0000
  H   H113      1.0  0.01701  0.43002  0.40137  1.0000
  C   C103      1.0  0.17725  0.47496  0.48626  1.0000
  N   N6        1.0  0.49395  0.14892  0.29997  1.0000
  H   H114      1.0  0.31384  0.40650  0.47027  1.0000
  C   C104      1.0  0.30748  0.38616  0.44674  1.0000
  C   C105      1.0  0.17955  0.42316  0.48983  1.0000
  H   H115      1.0  0.46151  0.02615  0.37364  1.0000
  C   C106      1.0  0.25136  0.49346  0.41185  1.0000
  H   H116      1.0  0.18087  0.42999  0.42926  1.0000
  H   H117      1.0  0.38076  0.34039  0.43405  1.0000
  N   N7        1.0  0.32491  0.39244  0.44754  1.0000
  C   C107      1.0  0.06114  0.41260  0.39694  1.0000
  H   H118      1.0  0.22626  0.47769  0.37350  1.0000
  C   C108      1.0  0.18071  0.48198  0.38171  1.0000
  H   H119      1.0  0.06601  0.41352  0.43368  1.0000
  N   N8        1.0  0.49175  0.28002  0.42623  1.0000
  C   C109      1.0  0.02056  0.39467  0.44843  1.0000
  H   H120      1.0  0.31708  0.26421  0.45798  1.0000
  H   H121      1.0  0.33755  0.41619  0.43609  1.0000
  C   C110      1.0  0.34008  0.37829  0.44309  1.0000
  H   H122      1.0  0.35615  0.39481  0.42197  1.0000
  H   H123      1.0  0.17476  0.48552  0.49539  1.0000
  C   C111      1.0  0.19312  0.46485  0.45897  1.0000
  H   H124      1.0  0.47733  0.30642  0.41866  1.0000
  C   C112      1.0  0.49431  0.02831  0.33175  1.0000
  H   H125      1.0  0.13690  0.47433  0.42571  1.0000
  H   H126      1.0  0.39405  0.49937  0.28483  1.0000
  C   C113      1.0  0.01720  0.43341  0.47498  1.0000
  H   H127      1.0  0.39559  0.15977  0.46808  1.0000
  H   H128      1.0  0.36368  0.24523  0.44552  1.0000
  H   H129      1.0  0.13445  0.44881  0.38013  1.0000
  C   C114      1.0  0.36725  0.03016  0.49145  1.0000
  C   C115      1.0  0.25021  0.48603  0.43011  1.0000
  H   H130      1.0  0.47911  0.20951  0.34799  1.0000
  H   H131      1.0  0.40233  0.19023  0.45346  1.0000
  Fe  Fe14      1.0  0.36540  0.28806  0.48232  1.0000
  S   S24       1.0  0.27597  0.42367  0.48128  1.0000
  C   C116      1.0  0.35490  0.34705  0.44935  1.0000
  H   H132      1.0  0.47901  0.13767  0.42030  1.0000
  H   H133      1.0  0.12125  0.47770  0.36399  1.0000
  C   C117      1.0  0.46820  0.29191  0.47185  1.0000
  H   H134      1.0  0.21968  0.48039  0.46644  1.0000
  C   C118      1.0  0.13378  0.47595  0.41207  1.0000
  N   N9        1.0  0.35820  0.05665  0.43858  1.0000
  C   C119      1.0  0.35640  0.06556  0.41986  1.0000
  C   C120      1.0  0.34018  0.05957  0.44944  1.0000
  C   C121      1.0  0.37064  0.06578  0.44615  1.0000
  C   C122      1.0  0.36555  0.03731  0.43861  1.0000
  C   C123      1.0  0.38181  0.03219  0.42746  1.0000
  C   C124      1.0  0.35722  0.02311  0.44983  1.0000
  C   C125      1.0  0.49125  0.05115  0.44027  1.0000
  H   H135      1.0  0.24372  0.49421  0.44036  1.0000
  C   C126      1.0  0.35043  0.00421  0.49986  1.0000
  H   H136      1.0  0.34979  0.07981  0.41958  1.0000
  H   H137      1.0  0.36962  0.06635  0.41131  1.0000
  H   H138      1.0  0.34823  0.05823  0.41318  1.0000
  H   H139      1.0  0.33486  0.07419  0.44897  1.0000
  H   H140      1.0  0.34068  0.05446  0.46400  1.0000
  H   H141      1.0  0.33015  0.05288  0.44457  1.0000
  H   H142      1.0  0.37237  0.05935  0.46017  1.0000
  H   H143      1.0  0.38419  0.06536  0.43805  1.0000
  H   H144      1.0  0.36549  0.08032  0.44676  1.0000
  H   H145      1.0  0.38922  0.04222  0.41898  1.0000
  H   H146      1.0  0.47244  0.14603  0.28547  1.0000
  H   H147      1.0  0.44793  0.04792  0.37189  1.0000
  H   H148      1.0  0.47961  0.28939  0.49664  1.0000
  H   H149      1.0  0.00435  0.44357  0.43291  1.0000
  C   C127      1.0  0.44927  0.41051  0.25487  1.0000
  N   N10       1.0  0.04441  0.42139  0.40664  1.0000
  C   C128      1.0  0.20191  0.46347  0.40152  1.0000
  C   C129      1.0  0.21909  0.45825  0.40738  1.0000
  C   C130      1.0  0.22240  0.44316  0.42033  1.0000
  C   C131      1.0  0.20866  0.43302  0.42809  1.0000
  C   C132      1.0  0.32553  0.40979  0.43519  1.0000
  C   C133      1.0  0.02406  0.48584  0.45903  1.0000
  H   H150      1.0  0.02749  0.40927  0.39291  1.0000
  H   H151      1.0  0.37669  0.48612  0.29458  1.0000
  H   H152      1.0  0.23018  0.46571  0.40187  1.0000
  H   H153      1.0  0.23576  0.43918  0.42429  1.0000
  H   H154      1.0  0.21137  0.42120  0.43798  1.0000
  C   C134      1.0  0.49044  0.01335  0.44926  1.0000
  C   C135      1.0  0.35191  0.04173  0.49755  1.0000
  N   N11       1.0  0.49604  0.14513  0.43742  1.0000
  H   H155      1.0  0.21502  0.49537  0.39794  1.0000
  H   H156      1.0  0.47144  0.11792  0.47563  1.0000
  C   C136      1.0  0.35513  0.38173  0.42989  1.0000
  H   H157      1.0  0.41308  0.22163  0.49486  1.0000
  C   C137      1.0  0.32408  0.32118  0.48559  1.0000
  H   H158      1.0  0.04539  0.49877  0.44219  1.0000
  C   C138      1.0  0.34424  0.18315  0.46943  1.0000
  H   H159      1.0  0.48961  0.03509  0.40566  1.0000
  H   H160      1.0  0.30233  0.31992  0.47074  1.0000
  C   C139      1.0  0.45738  0.37938  0.28069  1.0000
  Fe  Fe15      1.0  0.48500  0.28848  0.35602  1.0000
  H   H161      1.0  0.34542  0.24618  0.43240  1.0000
  H   H162      1.0  0.30431  0.37504  0.45773  1.0000
  C   C140      1.0  0.30748  0.32768  0.47914  1.0000
  H   H163      1.0  0.48414  0.06986  0.30778  1.0000
  H   H164      1.0  0.28475  0.34893  0.47835  1.0000
  Fe  Fe16      1.0  0.41061  0.08799  0.49341  1.0000
  C   C141      1.0  0.20122  0.49587  0.39449  1.0000
  H   H165      1.0  0.32966  0.35697  0.46301  1.0000
  H   H166      1.0  0.30739  0.38136  0.43361  1.0000
  Fe  Fe17      1.0  0.24828  0.43260  0.49472  1.0000
  S   S25       1.0  0.49498  0.12149  0.50120  1.0000
  S   S26       1.0  0.39320  0.22548  0.46401  1.0000
  H   H167      1.0  0.41537  0.19053  0.49888  1.0000
  H   H168      1.0  0.48032  0.26806  0.40720  1.0000
  S   S27       1.0  0.20487  0.39923  0.47193  1.0000
  H   H169      1.0  0.45959  0.41450  0.26192  1.0000
  C   C142      1.0  0.46893  0.10830  0.48758  1.0000
  H   H170      1.0  0.29597  0.39713  0.44833  1.0000
  S   S28       1.0  0.38856  0.30109  0.48739  1.0000
  H   H171      1.0  0.47434  0.16047  0.32050  1.0000
  S   S29       1.0  0.33607  0.30021  0.47980  1.0000
  Fe  Fe18      1.0  0.08070  0.47375  0.46043  1.0000
  N   N12       1.0  0.46782  0.04481  0.39000  1.0000
  H   H172      1.0  0.17456  0.45595  0.40655  1.0000
  C   C143      1.0  0.47140  0.28950  0.45365  1.0000
  H   H173      1.0  0.38098  0.37099  0.41665  1.0000
  C   C144      1.0  0.45423  0.04053  0.40579  1.0000
  C   C145      1.0  0.44441  0.05382  0.41614  1.0000
  C   C146      1.0  0.45022  0.02257  0.41103  1.0000
  S   S30       1.0  0.06454  0.48881  0.35168  1.0000
  C   C147      1.0  0.43751  0.01812  0.42591  1.0000
  H   H174      1.0  0.05925  0.39777  0.46420  1.0000
  H   H175      1.0  0.47338  0.13717  0.31939  1.0000
  Fe  Fe19      1.0  0.38280  0.12154  0.49035  1.0000
  C   C148      1.0  0.04697  0.44003  0.40842  1.0000
  C   C149      1.0  0.38094  0.49963  0.29389  1.0000
  S   S31       1.0  0.49185  0.17158  0.35104  1.0000
  H   H176      1.0  0.49129  0.14362  0.32882  1.0000
  S   S32       1.0  0.49744  0.31336  0.35609  1.0000
  H   H177      1.0  0.35733  0.24091  0.47923  1.0000
  C   C150      1.0  0.03325  0.39250  0.46034  1.0000
  C   C151      1.0  0.18573  0.49707  0.45944  1.0000
  H   H178      1.0  0.44639  0.06785  0.41311  1.0000
  C   C152      1.0  0.36955  0.36813  0.42667  1.0000
  C   C153      1.0  0.45256  0.16002  0.50193  1.0000
  H   H179      1.0  0.45765  0.14636  0.49928  1.0000
  C   C154      1.0  0.39098  0.17135  0.47510  1.0000
  H   H180      1.0  0.41827  0.02797  0.44732  1.0000
  C   C155      1.0  0.39476  0.18866  0.46683  1.0000
  H   H181      1.0  0.33801  0.40108  0.46734  1.0000
  H   H182      1.0  0.45496  0.29773  0.47758  1.0000
  H   H183      1.0  0.40112  0.01033  0.41822  1.0000
  S   S33       1.0  0.37514  0.14772  0.50283  1.0000
  C   C156      1.0  0.47070  0.34551  0.27029  1.0000
  H   H184      1.0  0.20958  0.48844  0.35986  1.0000
  H   H185      1.0  0.35485  0.33361  0.45702  1.0000
  H   H186      1.0  0.09840  0.48475  0.48782  1.0000
  H   H187      1.0  0.05833  0.44023  0.41601  1.0000
  H   H188      1.0  0.47984  0.03808  0.30906  1.0000
  C   C157      1.0  0.04050  0.41101  0.42482  1.0000
  H   H189      1.0  0.43484  0.00422  0.42964  1.0000
  H   H190      1.0  0.36008  0.21721  0.43989  1.0000
  C   C158      1.0  0.32032  0.34769  0.50105  1.0000
  H   H191      1.0  0.47180  0.33625  0.29855  1.0000
  H   H192      1.0  0.48324  0.16799  0.40734  1.0000
  H   H193      1.0  0.01337  0.40529  0.42263  1.0000
  C   C159      1.0  0.35176  0.21113  0.45144  1.0000
  S   S34       1.0  0.49509  0.28664  0.32668  1.0000
  N   N13       1.0  0.19892  0.47930  0.38746  1.0000
  C   C160      1.0  0.37882  0.20176  0.49283  1.0000
  H   H194      1.0  0.17913  0.49355  0.37068  1.0000
  C   C161      1.0  0.47799  0.14278  0.43349  1.0000
  H   H195      1.0  0.31406  0.24467  0.44848  1.0000
  H   H196      1.0  0.38351  0.50112  0.30763  1.0000
  H   H197      1.0  0.49162  0.06556  0.43704  1.0000
  C   C162      1.0  0.36453  0.00500  0.44949  1.0000
  H   H198      1.0  0.47793  0.25658  0.43007  1.0000
  C   C163      1.0  0.30379  0.35427  0.49449  1.0000
  H   H199      1.0  0.50108  0.30589  0.41792  1.0000
  C   C164      1.0  0.00580  0.48381  0.46157  1.0000
  S   S35       1.0  0.48675  0.12055  0.36323  1.0000
  C   C165      1.0  0.37504  0.18441  0.50112  1.0000
  C   C166      1.0  0.49721  0.16794  0.40865  1.0000
  C   C167      1.0  0.47515  0.04458  0.44763  1.0000
  H   H200      1.0  0.30976  0.24503  0.47244  1.0000
  H   H201      1.0  0.16421  0.47325  0.48212  1.0000
  H   H202      1.0  0.48153  0.06675  0.37493  1.0000
  C   C168      1.0  0.33255  0.19290  0.48154  1.0000
  S   S36       1.0  0.48862  0.09915  0.41527  1.0000
  C   C169      1.0  0.49913  0.06502  0.33039  1.0000
  H   H203      1.0  0.47384  0.16878  0.28800  1.0000
  C   C170      1.0  0.43536  0.16781  0.49840  1.0000
  C   C171      1.0  0.12171  0.49287  0.38566  1.0000
  C   C172      1.0  0.48964  0.05981  0.31807  1.0000
  H   H204      1.0  0.12433  0.49747  0.44011  1.0000
  H   H205      1.0  0.49237  0.29743  0.40064  1.0000
  H   H206      1.0  0.20419  0.46642  0.44759  1.0000
  H   H207      1.0  0.19160  0.49795  0.40684  1.0000
  H   H208      1.0  0.20736  0.49093  0.48511  1.0000
  H   H209      1.0  0.35787  0.49842  0.27027  1.0000
  H   H210      1.0  0.48676  0.18478  0.30465  1.0000
  C   C173      1.0  0.46813  0.34762  0.28848  1.0000
  H   H211      1.0  0.48640  0.14429  0.46584  1.0000
  C   C174      1.0  0.16176  0.43115  0.49467  1.0000
  S   S37       1.0  0.35081  0.06554  0.49582  1.0000
  S   S38       1.0  0.12508  0.43574  0.49487  1.0000
  H   H212      1.0  0.49230  0.12102  0.29774  1.0000
  C   C175      1.0  0.49367  0.15283  0.45456  1.0000
  H   H213      1.0  0.34632  0.16849  0.47197  1.0000
  H   H214      1.0  0.09686  0.49790  0.42678  1.0000
  S   S39       1.0  0.37386  0.26149  0.49937  1.0000
  C   C176      1.0  0.33049  0.33137  0.49650  1.0000
  C   C177      1.0  0.34345  0.24733  0.47721  1.0000
  C   C178      1.0  0.42876  0.18537  0.50200  1.0000
  C   C179      1.0  0.20808  0.47948  0.47734  1.0000
  S   S40       1.0  0.29195  0.37530  0.50026  1.0000
  C   C180      1.0  0.03128  0.49692  0.44397  1.0000
  S   S41       1.0  0.49034  0.00582  0.33140  1.0000
  H   H215      1.0  0.34646  0.48733  0.29953  1.0000
  H   H216      1.0  0.00764  0.38988  0.45303  1.0000
  C   C181      1.0  0.34145  0.49972  0.30506  1.0000
  S   S42       1.0  0.50171  0.08829  0.32798  1.0000
  H   H217      1.0  0.12093  0.49487  0.50309  1.0000
  C   C182      1.0  0.50093  0.17998  0.30181  1.0000
  Fe  Fe20      1.0  0.47687  0.11097  0.56678  1.0000
  C   C183      1.0  0.45491  0.27524  0.62632  1.0000
  S   S43       1.0  0.45690  0.09228  0.58115  1.0000
  C   C184      1.0  0.49145  0.22046  0.58707  1.0000
  C   C185      1.0  0.43929  0.19571  0.50933  1.0000
  S   S44       1.0  0.46878  0.13294  0.54471  1.0000
  C   C186      1.0  0.03227  0.47361  0.51736  1.0000
  C   C187      1.0  0.38190  0.00570  0.53164  1.0000
  H   H218      1.0  0.19519  0.43422  0.58583  1.0000
  H   H219      1.0  0.40124  0.18208  0.54231  1.0000
  C   C188      1.0  0.46878  0.05827  0.56955  1.0000
  H   H220      1.0  0.07734  0.41888  0.53729  1.0000
  C   C189      1.0  0.19200  0.42269  0.54314  1.0000
  H   H221      1.0  0.43493  0.06833  0.60288  1.0000
  Fe  Fe21      1.0  0.49374  0.29499  0.55815  1.0000
  H   H222      1.0  0.43002  0.04687  0.54194  1.0000
  S   S45       1.0  0.47762  0.30487  0.53493  1.0000
  S   S46       1.0  0.48143  0.28831  0.58682  1.0000
  H   H223      1.0  0.14266  0.44598  0.55035  1.0000
  H   H224      1.0  0.46787  0.29655  0.65842  1.0000
  H   H225      1.0  0.43144  0.26928  0.58530  1.0000
  H   H226      1.0  0.32501  0.47729  0.63326  1.0000
  C   C190      1.0  0.01948  0.50161  0.56127  1.0000
  H   H227      1.0  0.43315  0.12456  0.56989  1.0000
  S   S47       1.0  0.41086  0.26630  0.52799  1.0000
  H   H228      1.0  0.49200  0.01132  0.58768  1.0000
  C   C191      1.0  0.22053  0.43558  0.55589  1.0000
  H   H229      1.0  0.15895  0.44006  0.50485  1.0000
  C   C192      1.0  0.15643  0.43938  0.54845  1.0000
  H   H230      1.0  0.33643  0.42262  0.61954  1.0000
  H   H231      1.0  0.46510  0.24957  0.65429  1.0000
  H   H232      1.0  0.35784  0.41524  0.64113  1.0000
  N   N14       1.0  0.42699  0.02190  0.53295  1.0000
  C   C193      1.0  0.40702  0.15341  0.54163  1.0000
  H   H233      1.0  0.41067  0.04810  0.53124  1.0000
  Fe  Fe22      1.0  0.49010  0.41901  0.70036  1.0000
  S   S48       1.0  0.46083  0.42857  0.70930  1.0000
  N   N15       1.0  0.20238  0.44626  0.55840  1.0000
  H   H234      1.0  0.38642  0.12665  0.53821  1.0000
  H   H235      1.0  0.44954  0.02139  0.54756  1.0000
  H   H236      1.0  0.49214  0.27543  0.64648  1.0000
  C   C194      1.0  0.45202  0.45090  0.70172  1.0000
  C   C195      1.0  0.43758  0.45967  0.71241  1.0000
  C   C196      1.0  0.43054  0.47766  0.70690  1.0000
  H   H237      1.0  0.40945  0.23476  0.51293  1.0000
  C   C197      1.0  0.45189  0.47795  0.67961  1.0000
  C   C198      1.0  0.45915  0.46005  0.68527  1.0000
  H   H238      1.0  0.38927  0.03069  0.53476  1.0000
  H   H239      1.0  0.47012  0.45326  0.67686  1.0000
  C   C199      1.0  0.46791  0.03946  0.57085  1.0000
  H   H240      1.0  0.32101  0.48378  0.60335  1.0000
  H   H241      1.0  0.32582  0.43654  0.59301  1.0000
  C   C200      1.0  0.03388  0.45531  0.52420  1.0000
  C   C201      1.0  0.33194  0.46364  0.63454  1.0000
  C   C202      1.0  0.42609  0.13670  0.56324  1.0000
  C   C203      1.0  0.44343  0.04190  0.59523  1.0000
  H   H242      1.0  0.22539  0.43471  0.54137  1.0000
  C   C204      1.0  0.29728  0.46251  0.62050  1.0000
  C   C205      1.0  0.45904  0.29401  0.53339  1.0000
  C   C206      1.0  0.45469  0.27887  0.54562  1.0000
  C   C207      1.0  0.43990  0.27043  0.54384  1.0000
  C   C208      1.0  0.42948  0.27699  0.52977  1.0000
  C   C209      1.0  0.43395  0.29198  0.51745  1.0000
  C   C210      1.0  0.44857  0.30055  0.51937  1.0000
  H   H243      1.0  0.46271  0.27371  0.55644  1.0000
  H   H244      1.0  0.43655  0.25877  0.55335  1.0000
  C   C211      1.0  0.41321  0.01027  0.53207  1.0000
  C   C212      1.0  0.19765  0.44756  0.57798  1.0000
  H   H245      1.0  0.48827  0.28483  0.62401  1.0000
  C   C213      1.0  0.26908  0.46823  0.55415  1.0000
  C   C214      1.0  0.25588  0.48122  0.54695  1.0000
  C   C215      1.0  0.24725  0.47773  0.53297  1.0000
  C   C216      1.0  0.25165  0.46121  0.52611  1.0000
  C   C217      1.0  0.26483  0.44819  0.53327  1.0000
  C   C218      1.0  0.27348  0.45169  0.54728  1.0000
  C   C219      1.0  0.49206  0.35053  0.63619  1.0000
  H   H246      1.0  0.23706  0.48786  0.52750  1.0000
  H   H247      1.0  0.26828  0.43537  0.52812  1.0000
  H   H248      1.0  0.28365  0.44155  0.55278  1.0000
  C   C220      1.0  0.19709  0.49919  0.58191  1.0000
  S   S49       1.0  0.47233  0.18151  0.55533  1.0000
  N   N16       1.0  0.31523  0.45624  0.61101  1.0000
  H   H249      1.0  0.37550  0.49787  0.67108  1.0000
  S   S50       1.0  0.23946  0.45694  0.50951  1.0000
  H   H250      1.0  0.30799  0.42981  0.61065  1.0000
  H   H251      1.0  0.30300  0.44583  0.59154  1.0000
  H   H252      1.0  0.43404  0.12499  0.51844  1.0000
  H   H253      1.0  0.41988  0.18150  0.56675  1.0000
  C   C221      1.0  0.48443  0.47901  0.71333  1.0000
  H   H254      1.0  0.36722  0.18285  0.51436  1.0000
  H   H255      1.0  0.42595  0.29846  0.59715  1.0000
  H   H256      1.0  0.41670  0.49236  0.65679  1.0000
  C   C222      1.0  0.17823  0.41558  0.53741  1.0000
  C   C223      1.0  0.43768  0.27082  0.59683  1.0000
  H   H257      1.0  0.43362  0.03576  0.60534  1.0000
  H   H258      1.0  0.08766  0.43016  0.51640  1.0000
  H   H259      1.0  0.44538  0.26459  0.66121  1.0000
  H   H260      1.0  0.20170  0.48561  0.57910  1.0000
  Fe  Fe23      1.0  0.27507  0.49973  0.58112  1.0000
  C   C224      1.0  0.41994  0.12188  0.52197  1.0000
  H   H261      1.0  0.36770  0.01101  0.53236  1.0000
  H   H262      1.0  0.45183  0.24381  0.59919  1.0000
  Fe  Fe24      1.0  0.48268  0.15144  0.55677  1.0000
  H   H263      1.0  0.47864  0.06458  0.55968  1.0000
  C   C225      1.0  0.47575  0.09423  0.51719  1.0000
  H   H264      1.0  0.14992  0.41832  0.53551  1.0000
  C   C226      1.0  0.34441  0.45905  0.64688  1.0000
  C   C227      1.0  0.43631  0.02663  0.51449  1.0000
  H   H265      1.0  0.45951  0.07390  0.53070  1.0000
  C   C228      1.0  0.49333  0.20179  0.59320  1.0000
  H   H266      1.0  0.47709  0.03140  0.56193  1.0000
  C   C229      1.0  0.35060  0.42880  0.63921  1.0000
  N   N17       1.0  0.43272  0.21428  0.51350  1.0000
  H   H267      1.0  0.34675  0.46905  0.65474  1.0000
  S   S51       1.0  0.16445  0.49382  0.57361  1.0000
  H   H268      1.0  0.41143  0.03602  0.55397  1.0000
  C   C230      1.0  0.41872  0.16914  0.56178  1.0000
  C   C231      1.0  0.47850  0.21480  0.56136  1.0000
  H   H269      1.0  0.36324  0.43808  0.65894  1.0000
  C   C232      1.0  0.45691  0.06878  0.58123  1.0000
  H   H270      1.0  0.47860  0.35476  0.63272  1.0000
  Fe  Fe25      1.0  0.49579  0.12417  0.53015  1.0000
  H   H271      1.0  0.42500  0.09132  0.54369  1.0000
  C   C233      1.0  0.03776  0.49401  0.56034  1.0000
  H   H272      1.0  0.45738  0.48499  0.66683  1.0000
  H   H273      1.0  0.20854  0.45234  0.58355  1.0000
  S   S52       1.0  0.28005  0.47208  0.57191  1.0000
  S   S53       1.0  0.24181  0.40434  0.50460  1.0000
  C   C234      1.0  0.42594  0.10357  0.54975  1.0000
  S   S54       1.0  0.49312  0.32378  0.61477  1.0000
  H   H274      1.0  0.39057  0.11610  0.56049  1.0000
  C   C235      1.0  0.31303  0.44136  0.60121  1.0000
  H   H275      1.0  0.31214  0.47497  0.58664  1.0000
  S   S55       1.0  0.38392  0.09533  0.50946  1.0000
  H   H276      1.0  0.22273  0.50288  0.58891  1.0000
  C   C236      1.0  0.45681  0.18738  0.51256  1.0000
  H   H277      1.0  0.16624  0.45875  0.56054  1.0000
  H   H278      1.0  0.44671  0.21142  0.53694  1.0000
  H   H279      1.0  0.48940  0.17533  0.58831  1.0000
  C   C237      1.0  0.40626  0.49203  0.64800  1.0000
  C   C238      1.0  0.17006  0.44660  0.55425  1.0000
  C   C239      1.0  0.44909  0.25650  0.60469  1.0000
  C   C240      1.0  0.42753  0.15282  0.56937  1.0000
  H   H280      1.0  0.43563  0.15264  0.58005  1.0000
  H   H281      1.0  0.10945  0.44925  0.53631  1.0000
  N   N18       1.0  0.08117  0.44672  0.53778  1.0000
  C   C241      1.0  0.08669  0.42883  0.53135  1.0000
  C   C242      1.0  0.09672  0.45710  0.53224  1.0000
  C   C243      1.0  0.07766  0.44382  0.55775  1.0000
  C   C244      1.0  0.06451  0.45611  0.53068  1.0000
  C   C245      1.0  0.06221  0.47492  0.52403  1.0000
  C   C246      1.0  0.04963  0.44670  0.53097  1.0000
  S   S56       1.0  0.26227  0.50309  0.60937  1.0000
  H   H282      1.0  0.48151  0.48558  0.72579  1.0000
  H   H283      1.0  0.47263  0.22001  0.54911  1.0000
  H   H284      1.0  0.07331  0.45689  0.56315  1.0000
  H   H285      1.0  0.42595  0.29719  0.50662  1.0000
  H   H286      1.0  0.02001  0.48024  0.51220  1.0000
  H   H287      1.0  0.09906  0.46082  0.51730  1.0000
  H   H288      1.0  0.39998  0.47962  0.65362  1.0000
  H   H289      1.0  0.09485  0.46960  0.53866  1.0000
  H   H290      1.0  0.04148  0.48012  0.55804  1.0000
  C   C247      1.0  0.46214  0.08341  0.51860  1.0000
  H   H291      1.0  0.06670  0.43533  0.56276  1.0000
  H   H292      1.0  0.07244  0.48338  0.52394  1.0000
  H   H293      1.0  0.04995  0.43258  0.53638  1.0000
  H   H294      1.0  0.47166  0.47954  0.70773  1.0000
  H   H295      1.0  0.43396  0.00595  0.55774  1.0000
  C   C248      1.0  0.46327  0.16981  0.50895  1.0000
  C   C249      1.0  0.36406  0.49504  0.61599  1.0000
  C   C250      1.0  0.39452  0.01689  0.53304  1.0000
  N   N19       1.0  0.46464  0.27727  0.64128  1.0000
  H   H296      1.0  0.02292  0.44768  0.52409  1.0000
  S   S57       1.0  0.12586  0.49666  0.54415  1.0000
  H   H297      1.0  0.18137  0.40369  0.53057  1.0000
  H   H298      1.0  0.49241  0.01090  0.61960  1.0000
  C   C251      1.0  0.43459  0.28727  0.60356  1.0000
  C   C252      1.0  0.44302  0.28955  0.61809  1.0000
  H   H299      1.0  0.48884  0.46441  0.71744  1.0000
  C   C253      1.0  0.48434  0.27441  0.63546  1.0000
  C   C254      1.0  0.43297  0.21498  0.53294  1.0000
  C   C255      1.0  0.48802  0.18965  0.58335  1.0000
  S   S58       1.0  0.48787  0.13041  0.58063  1.0000
  C   C256      1.0  0.16048  0.42381  0.54019  1.0000
  C   C257      1.0  0.32116  0.47125  0.59734  1.0000
  H   H300      1.0  0.44043  0.10545  0.54737  1.0000
  H   H301      1.0  0.46390  0.30628  0.63620  1.0000
  H   H302      1.0  0.44036  0.30280  0.62226  1.0000
  S   S59       1.0  0.45349  0.00769  0.58758  1.0000
  H   H303      1.0  0.10015  0.42244  0.53492  1.0000
  H   H304      1.0  0.46560  0.19433  0.51816  1.0000
  C   C258      1.0  0.40836  0.16943  0.54802  1.0000
  C   C259      1.0  0.39555  0.11625  0.54585  1.0000
  C   C260      1.0  0.45528  0.03120  0.58395  1.0000
  H   H305      1.0  0.08986  0.43716  0.56386  1.0000
  C   C261      1.0  0.20367  0.46464  0.54841  1.0000
  C   C262      1.0  0.33540  0.01589  0.50598  1.0000
  N   N20       1.0  0.49817  0.48758  0.69992  1.0000
  H   H306      1.0  0.20543  0.41568  0.54042  1.0000
  C   C263      1.0  0.41614  0.13657  0.54883  1.0000
  H   H307      1.0  0.39862  0.15427  0.53110  1.0000
  H   H308      1.0  0.29719  0.47492  0.62665  1.0000
  H   H309      1.0  0.28691  0.46599  0.61108  1.0000
  H   H310      1.0  0.33500  0.46751  0.59053  1.0000
  H   H311      1.0  0.42191  0.10020  0.56456  1.0000
  N   N21       1.0  0.41453  0.11979  0.54181  1.0000
  C   C264      1.0  0.35370  0.44165  0.64924  1.0000
  H   H312      1.0  0.46650  0.26534  0.66896  1.0000
  H   H313      1.0  0.48907  0.26098  0.63096  1.0000
  H   H314      1.0  0.18537  0.45733  0.58089  1.0000
  H   H315      1.0  0.19098  0.47398  0.55068  1.0000
  C   C265      1.0  0.44418  0.06044  0.59384  1.0000
  C   C266      1.0  0.18826  0.43837  0.55197  1.0000
  H   H316      1.0  0.41107  0.13267  0.51455  1.0000
  H   H317      1.0  0.21438  0.47093  0.55263  1.0000
  S   S60       1.0  0.07416  0.49412  0.56044  1.0000
  C   C267      1.0  0.45748  0.25858  0.61928  1.0000
  C   C268      1.0  0.43775  0.48685  0.69051  1.0000
  H   H318      1.0  0.45858  0.22405  0.50605  1.0000
  H   H319      1.0  0.49077  0.06981  0.59609  1.0000
  H   H320      1.0  0.49892  0.19669  0.60563  1.0000
  H   H321      1.0  0.32302  0.01055  0.51179  1.0000
  H   H322      1.0  0.41957  0.48442  0.71535  1.0000
  H   H323      1.0  0.44565  0.29831  0.65241  1.0000
  H   H324      1.0  0.42439  0.20547  0.54155  1.0000
  C   C269      1.0  0.32838  0.45090  0.62412  1.0000
  C   C270      1.0  0.48034  0.19613  0.56750  1.0000
  C   C271      1.0  0.33816  0.43326  0.62680  1.0000
  C   C272      1.0  0.46020  0.26361  0.65710  1.0000
  H   H325      1.0  0.29263  0.45195  0.63150  1.0000
  H   H326      1.0  0.46648  0.24714  0.62462  1.0000
  H   H327      1.0  0.43191  0.45258  0.72508  1.0000
  H   H328      1.0  0.23084  0.44192  0.56081  1.0000
  C   C273      1.0  0.46021  0.29537  0.64732  1.0000
  H   H329      1.0  0.20688  0.46427  0.53361  1.0000
  H   H330      1.0  0.39394  0.10296  0.54226  1.0000
  C   C274      1.0  0.41931  0.03890  0.54039  1.0000
  H   H331      1.0  0.48357  0.09278  0.52812  1.0000
  C   C275      1.0  0.04635  0.48340  0.51736  1.0000
  H   H332      1.0  0.22066  0.42165  0.56337  1.0000
  H   H333      1.0  0.41922  0.10933  0.51640  1.0000
  H   H334      1.0  0.42794  0.22877  0.53654  1.0000
  H   H335      1.0  0.48875  0.48171  0.67638  1.0000
  H   H336      1.0  0.47661  0.16366  0.51182  1.0000
  S   S61       1.0  0.50004  0.38989  0.70923  1.0000
  H   H337      1.0  0.38645  0.48161  0.62853  1.0000
  H   H338      1.0  0.25226  0.49392  0.55220  1.0000
  H   H339      1.0  0.44285  0.01437  0.50844  1.0000
  H   H340      1.0  0.49067  0.37197  0.65252  1.0000
  C   C276      1.0  0.48421  0.22688  0.57096  1.0000
  H   H341      1.0  0.47721  0.43107  0.74012  1.0000
  S   S62       1.0  0.49827  0.23529  0.59985  1.0000
  C   C277      1.0  0.50084  0.47858  0.68352  1.0000
  H   H342      1.0  0.41352  0.49062  0.63425  1.0000
  H   H343      1.0  0.32416  0.04314  0.50938  1.0000
  H   H344      1.0  0.40426  0.21219  0.51745  1.0000
  S   S63       1.0  0.43315  0.07337  0.50797  1.0000
  H   H345      1.0  0.36300  0.48350  0.60960  1.0000
  H   H346      1.0  0.48268  0.24122  0.56608  1.0000
  H   H347      1.0  0.00942  0.49361  0.55950  1.0000
  H   H348      1.0  0.32536  0.35532  0.50966  1.0000
  H   H349      1.0  0.46967  0.40086  0.74112  1.0000
  C   C278      1.0  0.49888  0.36035  0.64749  1.0000
  H   H350      1.0  0.45180  0.31232  0.50994  1.0000
  H   H351      1.0  0.44587  0.42281  0.74878  1.0000
  C   C279      1.0  0.37752  0.49416  0.62698  1.0000
  H   H352      1.0  0.48879  0.03746  0.60129  1.0000
  C   C280      1.0  0.44056  0.01225  0.54455  1.0000
  H   H353      1.0  0.44707  0.03512  0.51452  1.0000
  C   C281      1.0  0.41407  0.22088  0.50949  1.0000
  H   H354      1.0  0.04487  0.49769  0.51233  1.0000
  H   H355      1.0  0.43973  0.24126  0.50534  1.0000
  H   H356      1.0  0.32523  0.49581  0.66047  1.0000
  C   C282      1.0  0.45147  0.08546  0.50479  1.0000
  C   C283      1.0  0.33608  0.03441  0.50468  1.0000
  H   H357      1.0  0.42674  0.03439  0.50538  1.0000
  H   H358      1.0  0.41310  0.48566  0.80943  1.0000
  C   C284      1.0  0.47251  0.39801  0.75539  1.0000
  C   C285      1.0  0.44828  0.49007  0.83065  1.0000
  Fe  Fe26      1.0  0.48845  0.43981  0.85870  1.0000
  S   S64       1.0  0.46194  0.42990  0.86029  1.0000
  H   H359      1.0  0.48084  0.49752  0.96286  1.0000
  C   C286      1.0  0.36675  0.46582  0.93981  1.0000
  S   S65       1.0  0.39464  0.48090  0.89188  1.0000
  C   C287      1.0  0.42317  0.49201  0.81393  1.0000
  H   H360      1.0  0.43976  0.41197  0.77140  1.0000
  S   S66       1.0  0.49583  0.45363  0.88004  1.0000
  C   C288      1.0  0.49274  0.49520  0.92817  1.0000
  H   H361      1.0  0.49581  0.47899  0.97253  1.0000
  C   C289      1.0  0.48400  0.46704  0.94694  1.0000
  C   C290      1.0  0.44874  0.42133  0.76301  1.0000
  C   C291      1.0  0.44360  0.44435  0.86927  1.0000
  C   C292      1.0  0.44559  0.46163  0.87245  1.0000
  C   C293      1.0  0.43052  0.47314  0.87911  1.0000
  C   C294      1.0  0.41361  0.46712  0.88306  1.0000
  C   C295      1.0  0.41174  0.44977  0.88015  1.0000
  C   C296      1.0  0.42666  0.43849  0.87306  1.0000
  H   H362      1.0  0.45870  0.46610  0.86972  1.0000
  H   H363      1.0  0.43200  0.48650  0.88153  1.0000
  H   H364      1.0  0.39869  0.44510  0.88318  1.0000
  H   H365      1.0  0.42510  0.42514  0.87065  1.0000
  C   C297      1.0  0.35220  0.47560  0.96807  1.0000
  C   C298      1.0  0.36076  0.44369  0.96608  1.0000
  H   H366      1.0  0.37246  0.46833  0.92576  1.0000
  H   H367      1.0  0.38494  0.49449  0.92528  1.0000
  H   H368      1.0  0.44464  0.43490  0.76726  1.0000
  H   H369      1.0  0.36150  0.42972  0.97237  1.0000
  H   H370      1.0  0.34789  0.45425  0.99023  1.0000
  H   H371      1.0  0.37373  0.43708  0.94018  1.0000
  H   H372      1.0  0.47959  0.40404  0.83440  1.0000
  H   H373      1.0  0.48466  0.38321  0.78453  1.0000
  C   C299      1.0  0.47965  0.39444  0.79191  1.0000
  C   C300      1.0  0.47100  0.41112  0.78374  1.0000
  C   C301      1.0  0.46584  0.42513  0.79471  1.0000
  H   H374      1.0  0.46484  0.43334  0.82093  1.0000
  N   N22       1.0  0.49630  0.48106  0.94365  1.0000
  C   C302      1.0  0.48259  0.39197  0.81001  1.0000
  C   C303      1.0  0.47720  0.40595  0.82040  1.0000
  H   H375      1.0  0.48847  0.42063  0.94795  1.0000
  H   H376      1.0  0.35705  0.49415  0.91350  1.0000
  H   H377      1.0  0.45962  0.43832  0.78937  1.0000
  C   C304      1.0  0.49430  0.48939  0.96043  1.0000
  C   C305      1.0  0.46887  0.42250  0.81276  1.0000
  C   C306      1.0  0.36760  0.44783  0.94797  1.0000
  H   H378      1.0  0.33575  0.49725  0.92761  1.0000
  H   H379      1.0  0.46465  0.38705  0.76235  1.0000
  C   C307      1.0  0.43542  0.48181  0.82476  1.0000
  C   C308      1.0  0.35896  0.48027  0.94957  1.0000
  S   S67       1.0  0.49685  0.46060  0.83563  1.0000
  H   H380      1.0  0.43491  0.46744  0.82876  1.0000
  H   H381      1.0  0.37712  0.50286  0.80416  1.0000
  H   H382      1.0  0.45779  0.48144  0.83852  1.0000
  H   H383      1.0  0.48551  0.45942  0.93525  1.0000
  H   H384      1.0  0.48693  0.45674  0.95880  1.0000
  H   H385      1.0  0.48441  0.49855  0.82399  1.0000
  N   N23       1.0  0.46795  0.41441  0.76455  1.0000
  C   C309      1.0  0.34930  0.50173  0.92429  1.0000
  H   H386      1.0  0.47119  0.48403  0.91896  1.0000
  H   H387      1.0  0.48939  0.37923  0.81594  1.0000
  C   C310      1.0  0.47940  0.49480  0.91697  1.0000
  H   H388      1.0  0.46969  0.47302  0.94984  1.0000
  H   H389      1.0  0.34627  0.48564  0.97667  1.0000
  C   C311      1.0  0.35309  0.45753  0.97610  1.0000
  S   S68       1.0  0.49873  0.49969  0.00178  1.0000
  N   N24       1.0  0.35855  0.49920  0.94062  1.0000
  H   H390      1.0  0.49377  0.42319  0.75520  1.0000
  H   H391      1.0  0.47613  0.44108  0.76017  1.0000
  H   H392      1.0  0.47011  0.49637  0.85479  1.0000
  C   C312      1.0  0.37723  0.50325  0.93506  1.0000
  H   H393      1.0  0.38475  0.50132  0.94689  1.0000
  H   H394      1.0  0.48710  0.39277  0.75466  1.0000
  C   C313      1.0  0.47922  0.42808  0.75459  1.0000
  Fe  Fe27      1.0  0.38257  0.56271  0.06459  1.0000
  S   S69       1.0  0.40873  0.57392  0.06087  1.0000
  S   S70       1.0  0.36452  0.56868  0.09050  1.0000
  Fe  Fe28      1.0  0.39168  0.54718  0.02846  1.0000
  S   S71       1.0  0.41856  0.55703  0.02291  1.0000
  C   C314      1.0  0.47122  0.57541  0.05649  1.0000
  Fe  Fe29      1.0  0.42072  0.54743  0.05214  1.0000
  Fe  Fe30      1.0  0.40395  0.58244  0.03210  1.0000
  S   S72       1.0  0.41352  0.60721  0.01545  1.0000
  S   S73       1.0  0.39501  0.53534  0.05743  1.0000
  S   S74       1.0  0.37658  0.57359  0.03601  1.0000
  C   C315      1.0  0.48975  0.55363  0.22845  1.0000
  H   H395      1.0  0.49525  0.60721  0.24306  1.0000
  H   H396      1.0  0.42816  0.62131  0.16707  1.0000
  H   H397      1.0  0.38035  0.60044  0.15253  1.0000
  S   S75       1.0  0.43047  0.65298  0.07172  1.0000
  S   S76       1.0  0.47202  0.67990  0.06445  1.0000
  H   H398      1.0  0.42834  0.67955  0.03683  1.0000
  H   H399      1.0  0.38571  0.59426  0.10495  1.0000
  H   H400      1.0  0.41498  0.58180  0.23908  1.0000
  Fe  Fe31      1.0  0.37810  0.54280  0.19542  1.0000
  S   S77       1.0  0.37021  0.52625  0.22249  1.0000
  S   S78       1.0  0.38221  0.53124  0.16873  1.0000
  Fe  Fe32      1.0  0.39127  0.57132  0.21277  1.0000
  S   S79       1.0  0.40264  0.59797  0.20469  1.0000
  Fe  Fe33      1.0  0.39656  0.53151  0.22908  1.0000
  H   H401      1.0  0.42944  0.75459  0.21907  1.0000
  S   S80       1.0  0.40518  0.54628  0.20185  1.0000
  S   S81       1.0  0.36442  0.56903  0.20482  1.0000
  H   H402      1.0  0.40830  0.60193  0.15987  1.0000
  Fe  Fe34      1.0  0.48973  0.66547  0.08513  1.0000
  C   C316      1.0  0.49064  0.51086  0.03503  1.0000
  H   H403      1.0  0.48391  0.52081  0.06072  1.0000
  C   C317      1.0  0.42130  0.59382  0.23413  1.0000
  C   C318      1.0  0.41768  0.60405  0.21767  1.0000
  C   C319      1.0  0.42598  0.61967  0.21144  1.0000
  C   C320      1.0  0.43783  0.62502  0.22156  1.0000
  S   S82       1.0  0.46054  0.68796  0.18528  1.0000
  H   H404      1.0  0.46405  0.67127  0.12443  1.0000
  H   H405      1.0  0.44406  0.63713  0.21666  1.0000
  H   H406      1.0  0.40866  0.51243  0.09080  1.0000
  H   H407      1.0  0.47679  0.55891  0.22419  1.0000
  C   C321      1.0  0.47394  0.74868  0.24343  1.0000
  Fe  Fe35      1.0  0.35881  0.55281  0.23266  1.0000
  C   C322      1.0  0.41737  0.62095  0.03052  1.0000
  C   C323      1.0  0.40675  0.62108  0.04734  1.0000
  C   C324      1.0  0.41052  0.63135  0.05980  1.0000
  C   C325      1.0  0.42514  0.64117  0.05559  1.0000
  C   C326      1.0  0.43548  0.64132  0.03860  1.0000
  C   C327      1.0  0.43164  0.63119  0.02608  1.0000
  H   H408      1.0  0.39549  0.61340  0.05068  1.0000
  H   H409      1.0  0.40224  0.63153  0.07274  1.0000
  H   H410      1.0  0.44617  0.64959  0.03486  1.0000
  H   H411      1.0  0.43981  0.63118  0.01303  1.0000
  C   C328      1.0  0.36960  0.55822  0.11217  1.0000
  C   C329      1.0  0.36001  0.56494  0.12766  1.0000
  C   C330      1.0  0.36404  0.55723  0.14508  1.0000
  C   C331      1.0  0.37726  0.54224  0.14717  1.0000
  C   C332      1.0  0.38657  0.53528  0.13167  1.0000
  C   C333      1.0  0.38303  0.54343  0.11426  1.0000
  H   H412      1.0  0.34937  0.57618  0.12617  1.0000
  H   H413      1.0  0.35651  0.56251  0.15688  1.0000
  H   H414      1.0  0.39647  0.52344  0.13313  1.0000
  H   H415      1.0  0.39037  0.53809  0.10244  1.0000
  S   S83       1.0  0.38801  0.53004  0.00750  1.0000
  Fe  Fe36      1.0  0.47103  0.64521  0.24029  1.0000
  S   S84       1.0  0.45582  0.62134  0.25137  1.0000
  S   S85       1.0  0.45861  0.67417  0.23694  1.0000
  S   S86       1.0  0.44608  0.53431  0.06331  1.0000
  H   H416      1.0  0.47056  0.56063  0.05995  1.0000
  C   C334      1.0  0.48952  0.68736  0.15846  1.0000
  H   H417      1.0  0.44188  0.64360  0.14330  1.0000
  S   S87       1.0  0.38510  0.55691  0.24074  1.0000
  H   H418      1.0  0.32937  0.62724  0.24197  1.0000
  C   C335      1.0  0.44358  0.51228  0.11226  1.0000
  H   H419      1.0  0.34693  0.64068  0.23335  1.0000
  H   H420      1.0  0.47480  0.71575  0.23084  1.0000
  H   H421      1.0  0.44037  0.52523  0.02946  1.0000
  H   H422      1.0  0.36990  0.59649  0.13430  1.0000
  H   H423      1.0  0.48303  0.57836  0.06202  1.0000
  Fe  Fe37      1.0  0.46017  0.65388  0.06892  1.0000
  C   C336      1.0  0.43297  0.59929  0.24435  1.0000
  C   C337      1.0  0.42542  0.62241  0.15326  1.0000
  H   H424      1.0  0.48384  0.52635  0.23011  1.0000
  C   C338      1.0  0.46622  0.51444  0.01703  1.0000
  H   H425      1.0  0.43652  0.71330  0.23074  1.0000
  H   H426      1.0  0.48775  0.60250  0.03724  1.0000
  H   H427      1.0  0.44880  0.67561  0.15535  1.0000
  H   H428      1.0  0.42762  0.51830  0.13656  1.0000
  C   C339      1.0  0.40516  0.58145  0.13168  1.0000
  C   C340      1.0  0.49783  0.68565  0.14078  1.0000
  H   H429      1.0  0.41912  0.57855  0.12475  1.0000
  C   C341      1.0  0.47119  0.67572  0.13386  1.0000
  S   S88       1.0  0.48558  0.64664  0.21222  1.0000
  C   C342      1.0  0.48707  0.56981  0.02708  1.0000
  C   C343      1.0  0.46261  0.67810  0.15140  1.0000
  C   C344      1.0  0.41815  0.62534  0.11774  1.0000
  N   N25       1.0  0.39774  0.60067  0.12694  1.0000
  C   C345      1.0  0.45597  0.74757  0.24087  1.0000
  C   C346      1.0  0.46086  0.52453  0.04640  1.0000
  S   S89       1.0  0.47622  0.64039  0.09112  1.0000
  C   C347      1.0  0.47180  0.68381  0.16379  1.0000
  H   H430      1.0  0.45918  0.58253  0.06408  1.0000
  Fe  Fe38      1.0  0.48310  0.68069  0.24711  1.0000
  C   C348      1.0  0.48137  0.59193  0.22028  1.0000
  C   C349      1.0  0.42950  0.63638  0.12222  1.0000
  C   C350      1.0  0.44123  0.61493  0.23814  1.0000
  C   C351      1.0  0.42576  0.69357  0.02973  1.0000
  C   C352      1.0  0.41403  0.61132  0.14896  1.0000
  H   H431      1.0  0.37438  0.61886  0.13541  1.0000
  H   H432      1.0  0.43782  0.52454  0.10444  1.0000
  H   H433      1.0  0.43951  0.73856  0.20427  1.0000
  S   S90       1.0  0.50033  0.67716  0.10660  1.0000
  C   C353      1.0  0.49912  0.54917  0.00483  1.0000
  H   H434      1.0  0.34888  0.60012  0.22925  1.0000
  C   C354      1.0  0.43925  0.72314  0.23914  1.0000
  Fe  Fe39      1.0  0.49199  0.66639  0.04384  1.0000
  C   C355      1.0  0.47516  0.60028  0.03259  1.0000
  C   C356      1.0  0.37987  0.60427  0.13778  1.0000
  N   N26       1.0  0.45153  0.73577  0.22879  1.0000
  C   C357      1.0  0.39494  0.60341  0.10761  1.0000
  H   H435      1.0  0.36502  0.61529  0.22033  1.0000
  H   H436      1.0  0.45103  0.56579  0.03464  1.0000
  C   C358      1.0  0.47894  0.51890  0.04861  1.0000
  C   C359      1.0  0.44247  0.74699  0.21398  1.0000
  C   C360      1.0  0.45419  0.57993  0.03165  1.0000
  Fe  Fe40      1.0  0.47482  0.67600  0.20942  1.0000
  H   H437      1.0  0.41594  0.62731  0.10375  1.0000
  C   C361      1.0  0.34201  0.63109  0.24514  1.0000
  H   H438      1.0  0.48106  0.58728  0.20715  1.0000
  S   S91       1.0  0.47891  0.64154  0.04697  1.0000
  H   H439      1.0  0.44317  0.58826  0.03936  1.0000
  N   N27       1.0  0.47209  0.58110  0.03669  1.0000
  C   C362      1.0  0.41002  0.61245  0.13105  1.0000
  H   H440      1.0  0.42832  0.70258  0.03908  1.0000
  C   C363      1.0  0.48428  0.50893  0.01914  1.0000
  H   H441      1.0  0.46400  0.60917  0.03946  1.0000
  C   C364      1.0  0.46754  0.72467  0.22035  1.0000
  H   H442      1.0  0.38865  0.61742  0.10328  1.0000
  C   C365      1.0  0.49361  0.53480  0.23184  1.0000
  C   C366      1.0  0.45446  0.52192  0.03081  1.0000
  C   C367      1.0  0.43776  0.50844  0.13077  1.0000
  C   C368      1.0  0.43313  0.63493  0.13992  1.0000
  H   H443      1.0  0.45110  0.75702  0.20625  1.0000
  H   H444      1.0  0.42314  0.62778  0.19883  1.0000
  H   H445      1.0  0.41121  0.69673  0.02817  1.0000
  H   H446      1.0  0.39694  0.57219  0.12764  1.0000
  H   H447      1.0  0.40544  0.57752  0.14645  1.0000
  N   N28       1.0  0.49861  0.58499  0.22757  1.0000
  H   H448      1.0  0.40779  0.60049  0.09861  1.0000
  H   H449      1.0  0.43543  0.64621  0.11183  1.0000
  S   S92       1.0  0.41582  0.51108  0.24422  1.0000
  H   H450      1.0  0.41287  0.67058  0.01607  1.0000
  H   H451      1.0  0.47706  0.73320  0.21158  1.0000
  H   H452      1.0  0.42598  0.73018  0.24431  1.0000
  H   H453      1.0  0.42744  0.51444  0.16695  1.0000
  H   H454      1.0  0.42809  0.75849  0.24917  1.0000
  H   H455      1.0  0.48545  0.74063  0.23709  1.0000
  C   C369      1.0  0.48465  0.55994  0.01333  1.0000
  H   H456      1.0  0.44522  0.71519  0.25101  1.0000
  H   H457      1.0  0.46380  0.71565  0.21162  1.0000
  C   C370      1.0  0.48881  0.67966  0.12845  1.0000
  H   H458      1.0  0.37162  0.59481  0.23433  1.0000
  C   C371      1.0  0.44205  0.75854  0.25048  1.0000
  H   H459      1.0  0.45328  0.58505  0.01715  1.0000
  H   H460      1.0  0.46125  0.51266  0.00486  1.0000
  N   N29       1.0  0.43738  0.69606  0.01204  1.0000
  H   H461      1.0  0.47612  0.60508  0.01782  1.0000
  C   C372      1.0  0.49771  0.59215  0.24486  1.0000
  H   H462      1.0  0.37772  0.63804  0.22815  1.0000
  Fe  Fe41      1.0  0.49623  0.63063  0.06859  1.0000
  H   H463      1.0  0.43495  0.72466  0.01324  1.0000
  H   H464      1.0  0.45874  0.70031  0.02624  1.0000
  C   C373      1.0  0.36040  0.60599  0.23251  1.0000
  H   H465      1.0  0.46042  0.67801  0.02032  1.0000
  C   C374      1.0  0.45636  0.69260  0.01568  1.0000
  S   S93       1.0  0.49837  0.68473  0.21889  1.0000
  C   C375      1.0  0.39689  0.63870  0.24564  1.0000
  H   H466      1.0  0.47902  0.60698  0.21805  1.0000
  H   H467      1.0  0.46966  0.58773  0.22996  1.0000
  C   C376      1.0  0.38160  0.63298  0.24137  1.0000
  N   N30       1.0  0.35550  0.61501  0.24892  1.0000
  H   H468      1.0  0.40437  0.64786  0.23587  1.0000
  H   H469      1.0  0.47166  0.55991  0.00918  1.0000
  S   S94       1.0  0.49440  0.65106  0.25261  1.0000
  H   H470      1.0  0.49659  0.69212  0.16776  1.0000
  H   H471      1.0  0.46116  0.50351  0.08933  1.0000
  C   C377      1.0  0.37179  0.62067  0.25373  1.0000
  C   C378      1.0  0.43342  0.71519  0.00390  1.0000
  S   S95       1.0  0.35320  0.78246  0.48962  1.0000
  C   C379      1.0  0.49719  0.74216  0.29621  1.0000
  H   H472      1.0  0.35374  0.52235  0.26368  1.0000
  H   H473      1.0  0.02075  0.52101  0.47065  1.0000
  C   C380      1.0  0.33876  0.88779  0.43755  1.0000
  S   S96       1.0  0.46623  0.97402  0.41645  1.0000
  S   S97       1.0  0.47141  0.96645  0.36520  1.0000
  Fe  Fe42      1.0  0.36512  0.91781  0.48524  1.0000
  S   S98       1.0  0.39224  0.91661  0.46878  1.0000
  C   C381      1.0  0.46772  0.75415  0.44326  1.0000
  H   H474      1.0  0.06781  0.54868  0.47824  1.0000
  S   S99       1.0  0.39169  0.95935  0.47429  1.0000
  Fe  Fe43      1.0  0.38209  0.94400  0.45543  1.0000
  S   S100      1.0  0.38916  0.95009  0.42548  1.0000
  H   H475      1.0  0.47833  0.74240  0.44556  1.0000
  S   S101      1.0  0.35412  0.94435  0.47015  1.0000
  C   C382      1.0  0.16467  0.52465  0.45262  1.0000
  Fe  Fe44      1.0  0.03657  0.55253  0.35632  1.0000
  S   S102      1.0  0.03609  0.52732  0.37626  1.0000
  S   S103      1.0  0.00986  0.56832  0.34934  1.0000
  Fe  Fe45      1.0  0.07836  0.55110  0.35397  1.0000
  S   S104      1.0  0.08025  0.52570  0.37357  1.0000
  S   S105      1.0  0.10353  0.56502  0.34468  1.0000
  C   C383      1.0  0.40304  0.63216  0.26217  1.0000
  Fe  Fe46      1.0  0.05549  0.53891  0.38902  1.0000
  S   S106      1.0  0.05224  0.54045  0.41854  1.0000
  S   S107      1.0  0.06031  0.54146  0.33740  1.0000
  S   S108      1.0  0.05448  0.56502  0.37044  1.0000
  Fe  Fe47      1.0  0.06949  0.64206  0.44863  1.0000
  S   S109      1.0  0.06678  0.61269  0.45273  1.0000
  S   S110      1.0  0.04617  0.65829  0.43529  1.0000
  Fe  Fe48      1.0  0.10427  0.63568  0.46667  1.0000
  S   S111      1.0  0.10297  0.60585  0.47255  1.0000
  S   S112      1.0  0.12786  0.64052  0.47982  1.0000
  Fe  Fe49      1.0  0.09655  0.60859  0.44448  1.0000
  S   S113      1.0  0.11050  0.58849  0.42649  1.0000
  Fe  Fe50      1.0  0.07345  0.61312  0.48029  1.0000
  S   S114      1.0  0.09925  0.63804  0.43770  1.0000
  S   S115      1.0  0.07479  0.64276  0.47696  1.0000
  Fe  Fe51      1.0  0.22727  0.66156  0.45859  1.0000
  S   S116      1.0  0.23017  0.63177  0.46715  1.0000
  S   S117      1.0  0.20068  0.67310  0.44828  1.0000
  Fe  Fe52      1.0  0.26619  0.66490  0.46440  1.0000
  S   S118      1.0  0.27129  0.63462  0.47269  1.0000
  S   S119      1.0  0.29178  0.67749  0.46656  1.0000
  Fe  Fe53      1.0  0.25679  0.63164  0.44981  1.0000
  S   S120      1.0  0.26532  0.60812  0.43388  1.0000
  C   C384      1.0  0.48743  0.89476  0.35267  1.0000
  S   S121      1.0  0.25367  0.66141  0.43992  1.0000
  H   H476      1.0  0.14892  0.61782  0.36044  1.0000
  Fe  Fe54      1.0  0.50104  0.81439  0.33928  1.0000
  C   C385      1.0  0.03073  0.63054  0.40494  1.0000
  Fe  Fe55      1.0  0.23166  0.56834  0.36050  1.0000
  S   S122      1.0  0.25757  0.54949  0.36196  1.0000
  S   S123      1.0  0.22643  0.59647  0.36865  1.0000
  Fe  Fe56      1.0  0.21068  0.53961  0.35228  1.0000
  S   S124      1.0  0.23532  0.51872  0.35307  1.0000
  S   S125      1.0  0.18421  0.52824  0.35302  1.0000
  Fe  Fe57      1.0  0.23990  0.52945  0.37762  1.0000
  H   H477      1.0  0.43501  0.77759  0.26964  1.0000
  Fe  Fe58      1.0  0.25124  0.54042  0.33682  1.0000
  S   S126      1.0  0.27251  0.53096  0.31358  1.0000
  S   S127      1.0  0.21457  0.54897  0.37772  1.0000
  S   S128      1.0  0.22599  0.56066  0.33437  1.0000
  Fe  Fe59      1.0  0.36985  0.79494  0.46489  1.0000
  S   S129      1.0  0.39607  0.77987  0.47241  1.0000
  S   S130      1.0  0.37235  0.82404  0.45250  1.0000
  Fe  Fe60      1.0  0.35089  0.76023  0.47342  1.0000
  S   S131      1.0  0.37600  0.74301  0.48191  1.0000
  S   S132      1.0  0.32382  0.75053  0.47150  1.0000
  H   H478      1.0  0.44051  0.98170  0.49226  1.0000
  Fe  Fe61      1.0  0.39052  0.75853  0.45755  1.0000
  S   S133      1.0  0.41247  0.74526  0.43843  1.0000
  H   H479      1.0  0.06983  0.51867  0.49836  1.0000
  S   S134      1.0  0.36549  0.77444  0.44806  1.0000
  H   H480      1.0  0.17807  0.57721  0.39489  1.0000
  C   C386      1.0  0.47718  0.88042  0.35448  1.0000
  H   H481      1.0  0.43554  0.59142  0.25717  1.0000
  H   H482      1.0  0.46497  0.88517  0.39102  1.0000
  Fe  Fe62      1.0  0.49501  0.98071  0.35184  1.0000
  C   C387      1.0  0.02447  0.65318  0.44541  1.0000
  Fe  Fe63      1.0  0.47075  0.79367  0.35831  1.0000
  S   S135      1.0  0.44276  0.80038  0.37286  1.0000
  S   S136      1.0  0.47891  0.80386  0.32887  1.0000
  C   C388      1.0  0.42111  0.76065  0.42044  1.0000
  C   C389      1.0  0.43499  0.75449  0.40747  1.0000
  C   C390      1.0  0.44185  0.76660  0.39287  1.0000
  C   C391      1.0  0.43472  0.78489  0.39110  1.0000
  C   C392      1.0  0.42076  0.79101  0.40401  1.0000
  C   C393      1.0  0.41410  0.77897  0.41876  1.0000
  H   H483      1.0  0.44034  0.74030  0.40864  1.0000
  H   H484      1.0  0.45240  0.76173  0.38280  1.0000
  H   H485      1.0  0.41510  0.80512  0.40264  1.0000
  H   H486      1.0  0.40331  0.78384  0.42862  1.0000
  C   C394      1.0  0.06237  0.55582  0.49002  1.0000
  C   C395      1.0  0.31799  0.55256  0.27065  1.0000
  C   C396      1.0  0.30797  0.56369  0.28296  1.0000
  C   C397      1.0  0.29395  0.55748  0.29601  1.0000
  C   C398      1.0  0.28967  0.53996  0.29699  1.0000
  C   C399      1.0  0.29968  0.52885  0.28465  1.0000
  C   C400      1.0  0.31370  0.53505  0.27161  1.0000
  H   H487      1.0  0.31100  0.57728  0.28242  1.0000
  H   H488      1.0  0.28647  0.56625  0.30533  1.0000
  C   C401      1.0  0.12923  0.50790  0.42907  1.0000
  H   H489      1.0  0.13811  0.61148  0.40983  1.0000
  C   C402      1.0  0.30014  0.69799  0.46842  1.0000
  C   C403      1.0  0.28961  0.71495  0.46678  1.0000
  C   C404      1.0  0.29703  0.73071  0.46801  1.0000
  C   C405      1.0  0.31503  0.72988  0.47106  1.0000
  C   C406      1.0  0.32549  0.71288  0.47300  1.0000
  C   C407      1.0  0.31814  0.69714  0.47156  1.0000
  H   H490      1.0  0.27577  0.71597  0.46437  1.0000
  H   H491      1.0  0.45824  0.75025  0.43514  1.0000
  H   H492      1.0  0.33924  0.71186  0.47562  1.0000
  S   S137      1.0  0.23926  0.66758  0.48220  1.0000
  C   C408      1.0  0.25487  0.60562  0.41524  1.0000
  C   C409      1.0  0.25794  0.58883  0.40889  1.0000
  C   C410      1.0  0.24941  0.58598  0.39456  1.0000
  C   C411      1.0  0.23786  0.59999  0.38623  1.0000
  C   C412      1.0  0.23490  0.61689  0.39244  1.0000
  C   C413      1.0  0.24333  0.61969  0.40693  1.0000
  H   H493      1.0  0.26687  0.57788  0.41520  1.0000
  H   H494      1.0  0.25175  0.57289  0.39004  1.0000
  H   H495      1.0  0.22615  0.62786  0.38597  1.0000
  H   H496      1.0  0.24103  0.63277  0.41157  1.0000
  H   H497      1.0  0.39910  0.76643  0.39044  1.0000
  S   S138      1.0  0.07714  0.50362  0.46012  1.0000
  H   H498      1.0  0.37620  0.79305  0.38562  1.0000
  H   H499      1.0  0.33511  0.87966  0.42797  1.0000
  Fe  Fe64      1.0  0.24411  0.63733  0.48914  1.0000
  C   C414      1.0  0.14836  0.64853  0.46987  1.0000
  C   C415      1.0  0.14974  0.66029  0.45362  1.0000
  C   C416      1.0  0.16584  0.66774  0.44718  1.0000
  C   C417      1.0  0.18084  0.66310  0.45662  1.0000
  C   C418      1.0  0.17960  0.65092  0.47263  1.0000
  C   C419      1.0  0.16340  0.64381  0.47928  1.0000
  H   H500      1.0  0.13817  0.66429  0.44642  1.0000
  H   H501      1.0  0.16659  0.67737  0.43495  1.0000
  H   H502      1.0  0.19095  0.64746  0.48017  1.0000
  H   H503      1.0  0.41807  0.77572  0.50046  1.0000
  C   C420      1.0  0.06879  0.55317  0.42124  1.0000
  C   C421      1.0  0.06842  0.55980  0.43749  1.0000
  C   C422      1.0  0.08148  0.57042  0.43931  1.0000
  C   C423      1.0  0.09489  0.57431  0.42488  1.0000
  C   C424      1.0  0.09537  0.56747  0.40874  1.0000
  C   C425      1.0  0.08227  0.55704  0.40690  1.0000
  H   H504      1.0  0.05806  0.55675  0.44857  1.0000
  H   H505      1.0  0.08133  0.57537  0.45196  1.0000
  H   H506      1.0  0.10548  0.57074  0.39742  1.0000
  H   H507      1.0  0.08256  0.55227  0.39421  1.0000
  C   C426      1.0  0.12588  0.55469  0.34724  1.0000
  C   C427      1.0  0.13993  0.56543  0.34417  1.0000
  C   C428      1.0  0.15786  0.55764  0.34593  1.0000
  C   C429      1.0  0.16193  0.53897  0.35072  1.0000
  C   C430      1.0  0.14789  0.52823  0.35367  1.0000
  C   C431      1.0  0.13000  0.53602  0.35191  1.0000
  H   H508      1.0  0.13691  0.57983  0.34012  1.0000
  H   H509      1.0  0.16858  0.56598  0.34309  1.0000
  H   H510      1.0  0.15089  0.51373  0.35700  1.0000
  H   H511      1.0  0.11945  0.52758  0.35362  1.0000
  C   C432      1.0  0.17703  0.53108  0.43836  1.0000
  H   H512      1.0  0.13174  0.59968  0.38600  1.0000
  S   S139      1.0  0.49176  0.80576  0.36846  1.0000
  H   H513      1.0  0.01798  0.50716  0.29915  1.0000
  H   H514      1.0  0.01134  0.66593  0.42242  1.0000
  C   C433      1.0  0.14400  0.58949  0.38677  1.0000
  H   H515      1.0  0.32028  0.54351  0.32485  1.0000
  H   H516      1.0  0.38575  0.98638  0.43777  1.0000
  H   H517      1.0  0.43728  0.83924  0.40925  1.0000
  H   H518      1.0  0.06162  0.59351  0.41101  1.0000
  C   C434      1.0  0.35725  0.87353  0.48217  1.0000
  C   C435      1.0  0.37330  0.87146  0.47035  1.0000
  C   C436      1.0  0.37801  0.85597  0.46173  1.0000
  C   C437      1.0  0.36702  0.84218  0.46520  1.0000
  C   C438      1.0  0.35137  0.84385  0.47759  1.0000
  C   C439      1.0  0.00958  0.65842  0.43583  1.0000
  H   H519      1.0  0.38196  0.88187  0.46759  1.0000
  H   H520      1.0  0.39013  0.85474  0.45216  1.0000
  C   C440      1.0  0.43445  0.95453  0.49440  1.0000
  H   H521      1.0  0.48904  0.77920  0.40746  1.0000
  C   C441      1.0  0.44480  0.96768  0.41847  1.0000
  C   C442      1.0  0.43498  0.97098  0.40378  1.0000
  C   C443      1.0  0.41787  0.96544  0.40573  1.0000
  C   C444      1.0  0.41082  0.95635  0.42227  1.0000
  C   C445      1.0  0.42095  0.95265  0.43667  1.0000
  C   C446      1.0  0.43764  0.95879  0.43497  1.0000
  H   H522      1.0  0.44041  0.97807  0.39103  1.0000
  H   H523      1.0  0.41010  0.96829  0.39451  1.0000
  H   H524      1.0  0.41618  0.94469  0.44907  1.0000
  H   H525      1.0  0.44527  0.95605  0.44631  1.0000
  H   H526      1.0  0.45969  0.75614  0.45654  1.0000
  H   H527      1.0  0.15732  0.59645  0.35277  1.0000
  H   H528      1.0  0.29655  0.51529  0.28519  1.0000
  H   H529      1.0  0.14286  0.63544  0.42552  1.0000
  H   H530      1.0  0.17413  0.57186  0.37362  1.0000
  C   C447      1.0  0.04887  0.60149  0.40861  1.0000
  N   N31       1.0  0.45157  0.90467  0.41891  1.0000
  C   C448      1.0  0.44321  0.91864  0.40551  1.0000
  C   C449      1.0  0.44478  0.90958  0.43723  1.0000
  C   C450      1.0  0.47134  0.90519  0.41593  1.0000
  C   C451      1.0  0.44746  0.88672  0.41658  1.0000
  C   C452      1.0  0.45575  0.87845  0.40129  1.0000
  C   C453      1.0  0.43476  0.87726  0.42886  1.0000
  C   C454      1.0  0.48475  0.71628  0.27894  1.0000
  C   C455      1.0  0.43132  0.86025  0.42627  1.0000
  C   C456      1.0  0.44008  0.85235  0.41132  1.0000
  H   H531      1.0  0.49567  0.99512  0.48139  1.0000
  H   H532      1.0  0.44789  0.91589  0.39140  1.0000
  H   H533      1.0  0.00249  0.63426  0.48494  1.0000
  H   H534      1.0  0.42980  0.91202  0.43962  1.0000
  H   H535      1.0  0.44933  0.92233  0.43918  1.0000
  H   H536      1.0  0.44974  0.89896  0.44797  1.0000
  H   H537      1.0  0.17382  0.54420  0.43053  1.0000
  H   H538      1.0  0.32097  0.52632  0.26218  1.0000
  H   H539      1.0  0.47848  0.89369  0.42432  1.0000
  H   H540      1.0  0.47481  0.91795  0.41927  1.0000
  H   H541      1.0  0.42723  0.88274  0.44052  1.0000
  C   C457      1.0  0.45220  0.86149  0.39880  1.0000
  H   H542      1.0  0.42164  0.85322  0.43580  1.0000
  H   H543      1.0  0.32576  0.91923  0.42146  1.0000
  C   C458      1.0  0.04698  0.62012  0.40819  1.0000
  C   C459      1.0  0.47334  0.72543  0.29211  1.0000
  H   H544      1.0  0.42827  0.91951  0.40772  1.0000
  H   H545      1.0  0.46386  0.99231  0.44911  1.0000
  H   H546      1.0  0.17010  0.65073  0.41674  1.0000
  H   H547      1.0  0.14381  0.58272  0.40098  1.0000
  C   C460      1.0  0.48380  0.77734  0.46319  1.0000
  H   H548      1.0  0.19338  0.64103  0.39235  1.0000
  C   C461      1.0  0.17908  0.62045  0.38683  1.0000
  C   C462      1.0  0.35308  0.91265  0.44172  1.0000
  N   N32       1.0  0.16077  0.59780  0.38030  1.0000
  H   H549      1.0  0.34271  0.83336  0.48021  1.0000
  Fe  Fe65      1.0  0.48255  0.96707  0.39066  1.0000
  C   C463      1.0  0.48362  0.76711  0.41557  1.0000
  C   C464      1.0  0.17613  0.58303  0.38076  1.0000
  Fe  Fe66      1.0  0.37950  0.76607  0.49613  1.0000
  C   C465      1.0  0.39389  0.61989  0.27453  1.0000
  C   C466      1.0  0.43944  0.93631  0.50068  1.0000
  H   H550      1.0  0.03695  0.57864  0.40645  1.0000
  N   N33       1.0  0.20307  0.59560  0.44659  1.0000
  C   C467      1.0  0.20771  0.58755  0.42960  1.0000
  C   C468      1.0  0.20230  0.61552  0.44182  1.0000
  C   C469      1.0  0.21785  0.58939  0.45785  1.0000
  C   C470      1.0  0.18593  0.58983  0.45622  1.0000
  C   C471      1.0  0.18490  0.57136  0.46321  1.0000
  C   C472      1.0  0.16970  0.60199  0.45825  1.0000
  C   C473      1.0  0.16873  0.56553  0.47194  1.0000
  C   C474      1.0  0.15363  0.59599  0.46692  1.0000
  C   C475      1.0  0.15310  0.57783  0.47375  1.0000
  H   H551      1.0  0.19710  0.59204  0.42058  1.0000
  H   H552      1.0  0.22049  0.59161  0.42196  1.0000
  H   H553      1.0  0.20970  0.57254  0.43202  1.0000
  H   H554      1.0  0.19283  0.62109  0.43189  1.0000
  H   H555      1.0  0.21559  0.61955  0.43545  1.0000
  H   H556      1.0  0.19827  0.62251  0.45396  1.0000
  H   H557      1.0  0.22118  0.57447  0.46014  1.0000
  H   H558      1.0  0.23067  0.59449  0.45128  1.0000
  H   H559      1.0  0.21442  0.59429  0.47122  1.0000
  H   H560      1.0  0.19657  0.56125  0.46180  1.0000
  H   H561      1.0  0.16897  0.61625  0.45320  1.0000
  H   H562      1.0  0.16821  0.55140  0.47732  1.0000
  H   H563      1.0  0.14148  0.60558  0.46825  1.0000
  S   S140      1.0  0.34990  0.89354  0.49196  1.0000
  H   H564      1.0  0.41892  0.88332  0.49411  1.0000
  H   H565      1.0  0.39258  0.85469  0.40815  1.0000
  H   H566      1.0  0.44667  0.93226  0.40621  1.0000
  C   C476      1.0  0.40031  0.88111  0.39869  1.0000
  C   C477      1.0  0.35055  0.51520  0.30001  1.0000
  H   H567      1.0  0.41521  0.63626  0.26520  1.0000
  H   H568      1.0  0.35804  0.99441  0.45835  1.0000
  C   C478      1.0  0.46359  0.77024  0.26447  1.0000
  C   C479      1.0  0.09961  0.52693  0.46446  1.0000
  H   H569      1.0  0.04781  0.53203  0.47527  1.0000
  C   C480      1.0  0.02414  0.51986  0.29522  1.0000
  C   C481      1.0  0.37847  0.61418  0.27048  1.0000
  H   H570      1.0  0.03897  0.51571  0.29301  1.0000
  C   C482      1.0  0.48904  0.77455  0.44489  1.0000
  N   N34       1.0  0.36739  0.51452  0.28713  1.0000
  H   H571      1.0  0.49745  0.96937  0.44160  1.0000
  S   S141      1.0  0.49937  0.94017  0.38997  1.0000
  C   C483      1.0  0.36737  0.89441  0.41855  1.0000
  C   C484      1.0  0.49609  0.78118  0.47361  1.0000
  C   C485      1.0  0.32653  0.53118  0.31961  1.0000
  H   H572      1.0  0.28872  0.74370  0.46650  1.0000
  H   H573      1.0  0.34582  0.87845  0.44789  1.0000
  Fe  Fe67      1.0  0.36471  0.95747  0.49032  1.0000
  N   N35       1.0  0.12043  0.50888  0.41263  1.0000
  Fe  Fe68      1.0  0.06072  0.51694  0.35857  1.0000
  H   H574      1.0  0.18955  0.61691  0.37605  1.0000
  H   H575      1.0  0.32592  0.89376  0.44491  1.0000
  H   H576      1.0  0.01421  0.56274  0.45205  1.0000
  H   H577      1.0  0.33719  0.90641  0.40395  1.0000
  Fe  Fe69      1.0  0.49697  0.77696  0.32854  1.0000
  C   C486      1.0  0.37264  0.87557  0.41813  1.0000
  H   H578      1.0  0.48654  0.58728  0.25493  1.0000
  H   H579      1.0  0.46326  0.88216  0.36048  1.0000
  C   C487      1.0  0.39572  0.89960  0.39911  1.0000
  H   H580      1.0  0.49369  0.99002  0.42646  1.0000
  H   H581      1.0  0.35951  0.92485  0.43555  1.0000
  H   H582      1.0  0.14244  0.57907  0.37847  1.0000
  C   C488      1.0  0.47948  0.73819  0.30072  1.0000
  H   H583      1.0  0.47043  0.74510  0.31068  1.0000
  C   C489      1.0  0.47246  0.98809  0.46011  1.0000
  C   C490      1.0  0.02482  0.58362  0.46156  1.0000
  C   C491      1.0  0.37574  0.53145  0.28406  1.0000
  C   C492      1.0  0.38890  0.86912  0.40833  1.0000
  C   C493      1.0  0.11273  0.53247  0.47266  1.0000
  C   C494      1.0  0.03008  0.54727  0.30379  1.0000
  C   C495      1.0  0.12026  0.52102  0.48674  1.0000
  H   H584      1.0  0.36450  0.86544  0.42524  1.0000
  H   H585      1.0  0.40462  0.90892  0.39161  1.0000
  H   H586      1.0  0.37660  0.92067  0.40880  1.0000
  H   H587      1.0  0.34795  0.54369  0.30408  1.0000
  C   C496      1.0  0.36358  0.51123  0.26940  1.0000
  C   C497      1.0  0.31804  0.51574  0.32433  1.0000
  H   H588      1.0  0.46575  0.99368  0.47252  1.0000
  Fe  Fe70      1.0  0.39958  0.93166  0.48908  1.0000
  C   C498      1.0  0.19357  0.52068  0.43430  1.0000
  C   C499      1.0  0.03448  0.59313  0.40590  1.0000
  Fe  Fe71      1.0  0.48995  0.94020  0.36328  1.0000
  C   C500      1.0  0.01618  0.62237  0.40239  1.0000
  S   S142      1.0  0.47740  0.91495  0.36151  1.0000
  H   H589      1.0  0.33845  0.63860  0.25697  1.0000
  C   C501      1.0  0.02310  0.59452  0.47503  1.0000
  C   C502      1.0  0.48467  0.86390  0.34832  1.0000
  H   H590      1.0  0.47303  0.97314  0.46354  1.0000
  N   N36       1.0  0.47576  0.77049  0.43415  1.0000
  H   H591      1.0  0.11659  0.54587  0.46846  1.0000
  N   N37       1.0  0.34991  0.90186  0.42808  1.0000
  H   H592      1.0  0.41276  0.87607  0.39087  1.0000
  H   H593      1.0  0.47663  0.85297  0.34992  1.0000
  H   H594      1.0  0.34034  0.91749  0.45004  1.0000
  H   H595      1.0  0.30531  0.51615  0.33317  1.0000
  H   H596      1.0  0.02944  0.64505  0.40463  1.0000
  H   H597      1.0  0.05808  0.62657  0.41051  1.0000
  H   H598      1.0  0.01630  0.51072  0.33167  1.0000
  N   N38       1.0  0.35704  0.73017  0.42280  1.0000
  C   C503      1.0  0.36498  0.71497  0.41261  1.0000
  C   C504      1.0  0.36417  0.72707  0.44035  1.0000
  C   C505      1.0  0.33729  0.72966  0.42651  1.0000
  C   C506      1.0  0.36194  0.74751  0.41254  1.0000
  C   C507      1.0  0.34910  0.76317  0.40962  1.0000
  C   C508      1.0  0.38017  0.74931  0.40560  1.0000
  C   C509      1.0  0.35426  0.77936  0.39996  1.0000
  C   C510      1.0  0.38509  0.76544  0.39568  1.0000
  C   C511      1.0  0.37220  0.78046  0.39294  1.0000
  H   H599      1.0  0.37990  0.71244  0.41170  1.0000
  H   H600      1.0  0.36020  0.70200  0.41924  1.0000
  H   H601      1.0  0.36137  0.71765  0.39863  1.0000
  H   H602      1.0  0.37894  0.72752  0.43872  1.0000
  H   H603      1.0  0.36162  0.71374  0.44816  1.0000
  H   H604      1.0  0.35764  0.73755  0.44891  1.0000
  H   H605      1.0  0.33395  0.71632  0.43376  1.0000
  H   H606      1.0  0.33049  0.73968  0.43548  1.0000
  H   H607      1.0  0.33103  0.73229  0.41383  1.0000
  H   H608      1.0  0.33504  0.76341  0.41496  1.0000
  H   H609      1.0  0.39089  0.73840  0.40815  1.0000
  H   H610      1.0  0.34430  0.79120  0.39814  1.0000
  H   H611      1.0  0.32647  0.68416  0.47293  1.0000
  C   C512      1.0  0.02034  0.50567  0.43117  1.0000
  H   H612      1.0  0.37905  0.53476  0.29687  1.0000
  H   H613      1.0  0.37606  0.51032  0.25948  1.0000
  C   C513      1.0  0.03822  0.53763  0.50290  1.0000
  H   H614      1.0  0.11582  0.52960  0.38971  1.0000
  H   H615      1.0  0.03306  0.64029  0.47071  1.0000
  H   H616      1.0  0.33432  0.59851  0.25939  1.0000
  H   H617      1.0  0.14412  0.50518  0.42602  1.0000
  C   C514      1.0  0.15990  0.60622  0.36129  1.0000
  H   H618      1.0  0.12260  0.53753  0.40784  1.0000
  H   H619      1.0  0.42240  0.95870  0.48821  1.0000
  C   C515      1.0  0.02182  0.64410  0.46304  1.0000
  H   H620      1.0  0.18904  0.58766  0.37399  1.0000
  H   H621      1.0  0.02742  0.55510  0.29050  1.0000
  H   H622      1.0  0.09357  0.53592  0.45385  1.0000
  C   C516      1.0  0.15302  0.63114  0.41473  1.0000
  C   C517      1.0  0.33925  0.91382  0.41489  1.0000
  C   C518      1.0  0.15047  0.61730  0.40553  1.0000
  H   H623      1.0  0.36200  0.90451  0.45120  1.0000
  S   S143      1.0  0.33562  0.56136  0.25451  1.0000
  H   H624      1.0  0.16935  0.59941  0.50012  1.0000
  S   S144      1.0  0.47586  0.70072  0.26815  1.0000
  C   C519      1.0  0.16340  0.61166  0.39109  1.0000
  H   H625      1.0  0.39896  0.61463  0.28724  1.0000
  H   H626      1.0  0.46655  0.77852  0.27381  1.0000
  H   H627      1.0  0.03567  0.58466  0.45045  1.0000
  S   S145      1.0  0.48715  0.76632  0.35741  1.0000
  C   C520      1.0  0.46120  0.78594  0.43253  1.0000
  C   C521      1.0  0.01764  0.60340  0.40261  1.0000
  H   H628      1.0  0.27429  0.66183  0.49968  1.0000
  H   H629      1.0  0.45957  0.72268  0.29565  1.0000
  C   C522      1.0  0.18143  0.63430  0.39608  1.0000
  C   C523      1.0  0.10075  0.51043  0.41820  1.0000
  C   C524      1.0  0.09436  0.50978  0.46989  1.0000
  H   H630      1.0  0.49464  0.75551  0.41572  1.0000
  H   H631      1.0  0.45120  0.78354  0.42415  1.0000
  S   S146      1.0  0.24062  0.51553  0.40630  1.0000
  H   H632      1.0  0.14053  0.57325  0.48037  1.0000
  H   H633      1.0  0.02611  0.51415  0.41942  1.0000
  C   C525      1.0  0.16834  0.63977  0.40985  1.0000
  C   C526      1.0  0.37955  0.90619  0.40894  1.0000
  H   H634      1.0  0.17268  0.61135  0.35485  1.0000
  H   H635      1.0  0.34593  0.92577  0.40837  1.0000
  C   C527      1.0  0.00598  0.57530  0.39947  1.0000
  H   H636      1.0  0.01985  0.52646  0.28203  1.0000
  H   H637      1.0  0.45878  0.85545  0.38698  1.0000
  N   N39       1.0  0.01900  0.53222  0.30908  1.0000
  H   H638      1.0  0.03840  0.51686  0.32575  1.0000
  H   H639      1.0  0.12597  0.52078  0.43498  1.0000
  H   H640      1.0  0.00369  0.63106  0.40045  1.0000
  C   C528      1.0  0.34643  0.85957  0.48592  1.0000
  H   H641      1.0  0.20328  0.52571  0.42325  1.0000
  H   H642      1.0  0.13891  0.52405  0.39386  1.0000
  H   H643      1.0  0.09574  0.52192  0.42597  1.0000
  H   H644      1.0  0.01024  0.56776  0.41232  1.0000
  H   H645      1.0  0.29573  0.62543  0.50222  1.0000
  H   H646      1.0  0.02099  0.53151  0.33714  1.0000
  C   C529      1.0  0.03684  0.53188  0.48624  1.0000
  H   H647      1.0  0.47722  0.90490  0.40155  1.0000
  H   H648      1.0  0.00823  0.60258  0.49915  1.0000
  H   H649      1.0  0.16246  0.63482  0.49192  1.0000
  S   S147      1.0  0.13580  0.52849  0.49768  1.0000
  C   C530      1.0  0.44484  0.96758  0.49660  1.0000
  C   C531      1.0  0.12471  0.52560  0.40047  1.0000
  H   H650      1.0  0.34235  0.60819  0.27608  1.0000
  H   H651      1.0  0.40135  0.80803  0.50151  1.0000
  H   H652      1.0  0.15185  0.53284  0.45594  1.0000
  N   N40       1.0  0.49067  0.99359  0.45449  1.0000
  H   H653      1.0  0.45352  0.78842  0.44584  1.0000
  H   H654      1.0  0.47014  0.77656  0.46962  1.0000
  C   C532      1.0  0.44585  0.76960  0.26217  1.0000
  C   C533      1.0  0.16884  0.50790  0.46302  1.0000
  H   H655      1.0  0.01670  0.57233  0.38813  1.0000
  H   H656      1.0  0.05194  0.56717  0.48599  1.0000
  S   S148      1.0  0.34803  0.98094  0.50272  1.0000
  H   H657      1.0  0.38858  0.53032  0.27462  1.0000
  H   H658      1.0  0.35567  0.58927  0.26609  1.0000
  H   H659      1.0  0.38135  0.82065  0.49389  1.0000
  C   C534      1.0  0.00723  0.52342  0.49744  1.0000
  H   H660      1.0  0.46671  0.79858  0.42605  1.0000
  H   H661      1.0  0.33399  0.86105  0.49504  1.0000
  H   H662      1.0  0.02749  0.55671  0.31410  1.0000
  H   H663      1.0  0.03263  0.60398  0.47446  1.0000
  C   C535      1.0  0.02383  0.52238  0.32663  1.0000
  H   H664      1.0  0.49183  0.78313  0.48761  1.0000
  H   H665      1.0  0.26967  0.60469  0.50116  1.0000
  C   C536      1.0  0.01257  0.57145  0.46241  1.0000
  H   H666      1.0  0.47346  0.76380  0.40792  1.0000
  C   C537      1.0  0.42161  0.85426  0.49967  1.0000
  H   H667      1.0  0.07387  0.56200  0.49283  1.0000
  H   H668      1.0  0.04476  0.54228  0.30259  1.0000
  C   C538      1.0  0.38024  0.00045  0.43806  1.0000
  C   C539      1.0  0.49930  0.98393  0.43914  1.0000
  S   S149      1.0  0.42572  0.92000  0.49950  1.0000
  C   C540      1.0  0.00898  0.59362  0.48920  1.0000
  C   C541      1.0  0.02146  0.52515  0.48354  1.0000
  H   H669      1.0  0.19908  0.50814  0.38432  1.0000
  H   H670      1.0  0.37216  0.60456  0.28064  1.0000
  H   H671      1.0  0.09310  0.51255  0.40652  1.0000
  C   C542      1.0  0.41217  0.87159  0.49957  1.0000
  H   H672      1.0  0.30315  0.64591  0.49058  1.0000
  H   H673      1.0  0.36675  0.54307  0.27779  1.0000
  C   C543      1.0  0.34249  0.53106  0.30756  1.0000
  C   C544      1.0  0.00448  0.64058  0.47106  1.0000
  H   H674      1.0  0.43579  0.85249  0.49438  1.0000
  C   C545      1.0  0.34668  0.60224  0.26334  1.0000
  H   H675      1.0  0.00582  0.60248  0.37124  1.0000
  C   C546      1.0  0.11510  0.50378  0.49221  1.0000
  H   H676      1.0  0.37824  0.00244  0.48787  1.0000
  H   H677      1.0  0.50101  0.97291  0.47492  1.0000
  C   C547      1.0  0.50118  0.98756  0.46985  1.0000
  H   H678      1.0  0.15866  0.50391  0.47396  1.0000
  C   C548      1.0  0.19783  0.50386  0.44455  1.0000
  H   H679      1.0  0.11494  0.50479  0.37847  1.0000
  H   H680      1.0  0.19775  0.60995  0.50371  1.0000
  C   C549      1.0  0.47757  0.75995  0.25500  1.0000
  H   H681      1.0  0.49134  0.76029  0.25709  1.0000
  C   C550      1.0  0.00206  0.50370  0.43355  1.0000
  N   N41       1.0  0.21793  0.55571  0.53818  1.0000
  Fe  Fe72      1.0  0.47889  0.96975  0.53819  1.0000
  S   S150      1.0  0.45507  0.96728  0.55941  1.0000
  C   C551      1.0  0.39403  0.87387  0.50659  1.0000
  C   C552      1.0  0.14940  0.60045  0.55165  1.0000
  Fe  Fe73      1.0  0.47164  0.94245  0.57195  1.0000
  S   S151      1.0  0.45605  0.91831  0.58145  1.0000
  Fe  Fe74      1.0  0.46848  0.98408  0.57389  1.0000
  C   C553      1.0  0.07078  0.59413  0.52171  1.0000
  H   H682      1.0  0.43234  0.98615  0.52764  1.0000
  C   C554      1.0  0.46338  0.80628  0.66161  1.0000
  H   H683      1.0  0.33136  0.62474  0.68595  1.0000
  S   S152      1.0  0.14101  0.53497  0.54598  1.0000
  H   H684      1.0  0.32234  0.57601  0.70325  1.0000
  H   H685      1.0  0.45679  0.54078  0.69672  1.0000
  S   S153      1.0  0.09914  0.53482  0.53934  1.0000
  H   H686      1.0  0.04939  0.54476  0.53472  1.0000
  C   C555      1.0  0.40278  0.52437  0.64224  1.0000
  Fe  Fe75      1.0  0.11344  0.54332  0.55971  1.0000
  S   S154      1.0  0.10501  0.57136  0.56635  1.0000
  C   C556      1.0  0.31849  0.56350  0.73049  1.0000
  H   H687      1.0  0.34123  0.51131  0.60507  1.0000
  H   H688      1.0  0.47928  0.55873  0.67818  1.0000
  H   H689      1.0  0.49858  0.57490  0.69628  1.0000
  Fe  Fe76      1.0  0.24754  0.52880  0.59627  1.0000
  S   S155      1.0  0.25896  0.52423  0.56808  1.0000
  S   S156      1.0  0.21762  0.53874  0.59966  1.0000
  Fe  Fe77      1.0  0.28456  0.51955  0.61042  1.0000
  H   H690      1.0  0.36324  0.83683  0.53817  1.0000
  H   H691      1.0  0.29114  0.57945  0.51373  1.0000
  Fe  Fe78      1.0  0.28068  0.53940  0.57223  1.0000
  S   S157      1.0  0.29161  0.55890  0.54892  1.0000
  S   S158      1.0  0.48240  0.95908  0.58900  1.0000
  S   S159      1.0  0.26845  0.54585  0.59981  1.0000
  C   C557      1.0  0.01426  0.51942  0.56478  1.0000
  Fe  Fe79      1.0  0.39404  0.56062  0.71189  1.0000
  C   C558      1.0  0.38714  0.81315  0.50600  1.0000
  S   S160      1.0  0.39917  0.58955  0.71042  1.0000
  Fe  Fe80      1.0  0.36692  0.53934  0.70031  1.0000
  S   S161      1.0  0.34409  0.54748  0.68245  1.0000
  S   S162      1.0  0.39292  0.54893  0.68682  1.0000
  S   S163      1.0  0.38734  0.76291  0.52447  1.0000
  Fe  Fe81      1.0  0.47608  0.81137  0.59354  1.0000
  C   C559      1.0  0.42797  0.86143  0.57555  1.0000
  S   S164      1.0  0.46491  0.83407  0.61014  1.0000
  Fe  Fe82      1.0  0.47077  0.79033  0.56414  1.0000
  H   H692      1.0  0.22071  0.57740  0.55247  1.0000
  S   S165      1.0  0.45724  0.79200  0.53896  1.0000
  N   N42       1.0  0.39277  0.50854  0.64780  1.0000
  H   H693      1.0  0.11270  0.61595  0.51637  1.0000
  S   S166      1.0  0.47859  0.69595  0.69217  1.0000
  S   S167      1.0  0.46124  0.78742  0.59416  1.0000
  H   H694      1.0  0.31652  0.62058  0.70674  1.0000
  C   C560      1.0  0.30091  0.66289  0.51908  1.0000
  S   S168      1.0  0.47049  0.65468  0.72926  1.0000
  H   H695      1.0  0.34754  0.58466  0.68563  1.0000
  H   H696      1.0  0.46269  0.57074  0.71841  1.0000
  H   H697      1.0  0.22479  0.52820  0.55067  1.0000
  Fe  Fe83      1.0  0.48684  0.62958  0.72055  1.0000
  S   S169      1.0  0.47784  0.60278  0.71873  1.0000
  C   C561      1.0  0.11333  0.62195  0.55018  1.0000
  H   H698      1.0  0.38663  0.88737  0.50635  1.0000
  N   N43       1.0  0.47731  0.79214  0.65451  1.0000
  H   H699      1.0  0.04224  0.56546  0.52050  1.0000
  S   S170      1.0  0.49633  0.77141  0.56755  1.0000
  C   C562      1.0  0.47570  0.73389  0.64705  1.0000
  N   N44       1.0  0.29181  0.64704  0.51848  1.0000
  C   C563      1.0  0.48410  0.70843  0.67027  1.0000
  Fe  Fe84      1.0  0.48811  0.77018  0.59770  1.0000
  C   C564      1.0  0.38743  0.98782  0.52887  1.0000
  H   H700      1.0  0.46596  0.74500  0.64245  1.0000
  H   H701      1.0  0.24641  0.54565  0.53480  1.0000
  H   H702      1.0  0.16827  0.58132  0.56592  1.0000
  C   C565      1.0  0.49018  0.74517  0.69334  1.0000
  C   C566      1.0  0.40788  0.76898  0.52845  1.0000
  C   C567      1.0  0.08807  0.58506  0.51766  1.0000
  H   H703      1.0  0.06481  0.51899  0.52224  1.0000
  C   C568      1.0  0.43885  0.78176  0.53557  1.0000
  C   C569      1.0  0.42680  0.77466  0.54987  1.0000
  C   C570      1.0  0.41135  0.76832  0.54630  1.0000
  C   C571      1.0  0.05275  0.55347  0.52178  1.0000
  H   H704      1.0  0.42916  0.77441  0.56365  1.0000
  H   H705      1.0  0.40186  0.76320  0.55742  1.0000
  C   C572      1.0  0.42113  0.59327  0.71241  1.0000
  C   C573      1.0  0.42492  0.61098  0.71175  1.0000
  C   C574      1.0  0.44232  0.61422  0.71343  1.0000
  C   C575      1.0  0.45596  0.59970  0.71593  1.0000
  C   C576      1.0  0.45220  0.58203  0.71648  1.0000
  C   C577      1.0  0.43486  0.57882  0.71470  1.0000
  H   H706      1.0  0.41438  0.62224  0.70985  1.0000
  H   H707      1.0  0.44516  0.62791  0.71280  1.0000
  S   S171      1.0  0.30255  0.51052  0.63311  1.0000
  H   H708      1.0  0.43212  0.56517  0.71515  1.0000
  C   C578      1.0  0.31351  0.52121  0.64703  1.0000
  H   H709      1.0  0.40994  0.96710  0.52530  1.0000
  C   C579      1.0  0.33380  0.51802  0.67015  1.0000
  C   C580      1.0  0.33253  0.53681  0.66905  1.0000
  C   C581      1.0  0.32155  0.54770  0.65697  1.0000
  C   C582      1.0  0.31215  0.54000  0.64601  1.0000
  H   H710      1.0  0.22852  0.55540  0.56310  1.0000
  H   H711      1.0  0.32031  0.56225  0.65603  1.0000
  H   H712      1.0  0.30388  0.54861  0.63677  1.0000
  C   C583      1.0  0.25195  0.60576  0.52618  1.0000
  C   C584      1.0  0.24871  0.59790  0.54426  1.0000
  C   C585      1.0  0.26051  0.58312  0.55124  1.0000
  C   C586      1.0  0.27591  0.57652  0.54027  1.0000
  C   C587      1.0  0.27926  0.58454  0.52227  1.0000
  H   H713      1.0  0.36381  0.60874  0.71783  1.0000
  H   H714      1.0  0.23706  0.60327  0.55290  1.0000
  H   H715      1.0  0.25797  0.57715  0.56521  1.0000
  C   C588      1.0  0.46540  0.94418  0.51129  1.0000
  H   H716      1.0  0.13657  0.61336  0.50970  1.0000
  C   C589      1.0  0.09230  0.58148  0.54916  1.0000
  C   C590      1.0  0.07526  0.59112  0.55316  1.0000
  H   H717      1.0  0.44490  0.78740  0.50662  1.0000
  S   S172      1.0  0.47180  0.97886  0.51019  1.0000
  H   H718      1.0  0.46773  0.81163  0.67287  1.0000
  C   C591      1.0  0.09871  0.57855  0.53141  1.0000
  H   H719      1.0  0.07018  0.59315  0.56696  1.0000
  C   C592      1.0  0.28048  0.64330  0.55173  1.0000
  H   H720      1.0  0.15893  0.64169  0.52927  1.0000
  H   H721      1.0  0.11179  0.57087  0.52832  1.0000
  H   H722      1.0  0.44058  0.81902  0.56439  1.0000
  C   C593      1.0  0.17343  0.52441  0.58410  1.0000
  C   C594      1.0  0.18528  0.53405  0.59014  1.0000
  C   C595      1.0  0.20310  0.52634  0.59196  1.0000
  H   H723      1.0  0.49290  0.73285  0.70263  1.0000
  S   S173      1.0  0.05693  0.60049  0.50474  1.0000
  C   C596      1.0  0.02347  0.53562  0.51680  1.0000
  C   C597      1.0  0.43683  0.83356  0.56267  1.0000
  Fe  Fe85      1.0  0.09895  0.50869  0.55776  1.0000
  H   H724      1.0  0.06541  0.55838  0.52333  1.0000
  C   C598      1.0  0.43559  0.78201  0.51776  1.0000
  C   C599      1.0  0.46279  0.89537  0.59027  1.0000
  C   C600      1.0  0.45374  0.88857  0.60694  1.0000
  C   C601      1.0  0.45508  0.86991  0.61288  1.0000
  C   C602      1.0  0.46512  0.85752  0.60208  1.0000
  C   C603      1.0  0.47441  0.86414  0.58538  1.0000
  H   H725      1.0  0.11490  0.62979  0.56096  1.0000
  C   C604      1.0  0.35309  0.52554  0.62155  1.0000
  C   C605      1.0  0.21421  0.53669  0.54318  1.0000
  H   H726      1.0  0.19248  0.60094  0.55884  1.0000
  H   H727      1.0  0.44323  0.89589  0.53213  1.0000
  C   C606      1.0  0.32431  0.51033  0.65928  1.0000
  H   H728      1.0  0.05091  0.60413  0.54259  1.0000
  C   C607      1.0  0.12596  0.61214  0.52156  1.0000
  C   C608      1.0  0.39383  0.81425  0.53594  1.0000
  H   H729      1.0  0.30494  0.61023  0.52859  1.0000
  H   H730      1.0  0.09986  0.62678  0.54572  1.0000
  H   H731      1.0  0.45829  0.77860  0.64523  1.0000
  C   C609      1.0  0.36628  0.52473  0.63277  1.0000
  C   C610      1.0  0.35187  0.51069  0.61332  1.0000
  C   C611      1.0  0.16601  0.59451  0.55790  1.0000
  S   S174      1.0  0.50198  0.79405  0.59908  1.0000
  H   H732      1.0  0.09288  0.58214  0.50413  1.0000
  H   H733      1.0  0.26627  0.64210  0.51295  1.0000
  H   H734      1.0  0.49971  0.80527  0.65741  1.0000
  H   H735      1.0  0.50044  0.59678  0.68439  1.0000
  H   H736      1.0  0.38730  0.80196  0.54161  1.0000
  C   C612      1.0  0.41837  0.99203  0.52905  1.0000
  C   C613      1.0  0.06855  0.52740  0.50908  1.0000
  H   H737      1.0  0.39415  0.53738  0.64417  1.0000
  N   N45       1.0  0.38528  0.82471  0.52045  1.0000
  H   H738      1.0  0.39304  0.82254  0.54698  1.0000
  C   C614      1.0  0.32666  0.61398  0.69671  1.0000
  C   C615      1.0  0.48200  0.77654  0.66829  1.0000
  H   H739      1.0  0.49016  0.81317  0.63673  1.0000
  C   C616      1.0  0.14582  0.61779  0.54141  1.0000
  S   S175      1.0  0.37318  0.93081  0.50693  1.0000
  H   H740      1.0  0.40875  0.52517  0.62780  1.0000
  H   H741      1.0  0.35945  0.81623  0.53158  1.0000
  H   H742      1.0  0.48003  0.88799  0.56642  1.0000
  N   N46       1.0  0.12810  0.62372  0.53491  1.0000
  H   H743      1.0  0.46067  0.81805  0.65095  1.0000
  C   C617      1.0  0.50062  0.53628  0.67805  1.0000
  C   C618      1.0  0.49349  0.80096  0.64669  1.0000
  Fe  Fe86      1.0  0.49041  0.66995  0.70937  1.0000
  S   S176      1.0  0.48369  0.81533  0.56364  1.0000
  H   H744      1.0  0.12684  0.59767  0.52743  1.0000
  C   C619      1.0  0.47629  0.75855  0.69818  1.0000
  H   H745      1.0  0.36019  0.60330  0.68064  1.0000
  H   H746      1.0  0.46843  0.75665  0.71142  1.0000
  C   C620      1.0  0.47520  0.51605  0.69920  1.0000
  H   H747      1.0  0.34337  0.53758  0.61968  1.0000
  C   C621      1.0  0.33113  0.57604  0.75228  1.0000
  S   S177      1.0  0.38056  0.51274  0.71322  1.0000
  H   H748      1.0  0.48042  0.77583  0.63297  1.0000
  H   H749      1.0  0.34180  0.50941  0.67961  1.0000
  C   C622      1.0  0.20452  0.56734  0.52760  1.0000
  H   H750      1.0  0.31441  0.65859  0.52357  1.0000
  H   H751      1.0  0.46112  0.78374  0.69050  1.0000
  H   H752      1.0  0.37095  0.86170  0.51829  1.0000
  C   C623      1.0  0.17964  0.60550  0.55392  1.0000
  C   C624      1.0  0.49221  0.73022  0.63626  1.0000
  S   S178      1.0  0.29817  0.51443  0.58276  1.0000
  H   H753      1.0  0.46623  0.79695  0.62937  1.0000
  S   S179      1.0  0.49478  0.94388  0.54951  1.0000
  C   C625      1.0  0.28551  0.61471  0.57104  1.0000
  Fe  Fe87      1.0  0.38287  0.52742  0.73653  1.0000
  H   H754      1.0  0.43306  0.83511  0.59110  1.0000
  S   S180      1.0  0.23645  0.62366  0.51760  1.0000
  H   H755      1.0  0.13935  0.59129  0.55491  1.0000
  C   C626      1.0  0.42032  0.77548  0.51422  1.0000
  H   H756      1.0  0.31146  0.55326  0.72723  1.0000
  C   C627      1.0  0.17922  0.50680  0.58023  1.0000
  H   H757      1.0  0.18758  0.63072  0.54017  1.0000
  H   H758      1.0  0.18406  0.54886  0.53173  1.0000
  C   C628      1.0  0.18788  0.56187  0.52563  1.0000
  C   C629      1.0  0.27363  0.65361  0.51328  1.0000
  C   C630      1.0  0.43248  0.84264  0.57768  1.0000
  S   S181      1.0  0.42966  0.50951  0.68340  1.0000
  H   H759      1.0  0.23648  0.55121  0.51420  1.0000
  H   H760      1.0  0.11234  0.64681  0.52141  1.0000
  H   H761      1.0  0.48219  0.85475  0.57686  1.0000
  C   C631      1.0  0.23624  0.55528  0.52773  1.0000
  C   C632      1.0  0.47028  0.78561  0.63988  1.0000
  C   C633      1.0  0.02763  0.52949  0.56719  1.0000
  H   H762      1.0  0.20143  0.53565  0.55250  1.0000
  H   H763      1.0  0.40827  0.80939  0.53209  1.0000
  S   S182      1.0  0.40992  0.53584  0.72502  1.0000
  H   H764      1.0  0.37756  0.97934  0.52748  1.0000
  C   C634      1.0  0.17679  0.62236  0.54349  1.0000
  C   C635      1.0  0.20755  0.58509  0.51952  1.0000
  C   C636      1.0  0.47221  0.77407  0.68593  1.0000
  C   C637      1.0  0.29015  0.63582  0.53645  1.0000
  H   H765      1.0  0.36566  0.58520  0.69803  1.0000
  H   H766      1.0  0.45959  0.91701  0.51301  1.0000
  C   C638      1.0  0.35424  0.59369  0.69187  1.0000
  Fe  Fe88      1.0  0.40654  0.52332  0.70101  1.0000
  C   C639      1.0  0.47335  0.88303  0.57955  1.0000
  C   C640      1.0  0.32482  0.57664  0.71681  1.0000
  C   C641      1.0  0.36574  0.82881  0.52672  1.0000
  H   H767      1.0  0.40405  0.91188  0.54207  1.0000
  H   H768      1.0  0.11268  0.60775  0.55652  1.0000
  H   H769      1.0  0.16279  0.56891  0.51449  1.0000
  H   H770      1.0  0.41393  0.52371  0.65045  1.0000
  C   C642      1.0  0.20904  0.50897  0.58753  1.0000
  N   N47       1.0  0.42299  0.89166  0.55524  1.0000
  C   C643      1.0  0.40817  0.89697  0.54393  1.0000
  C   C644      1.0  0.41711  0.89959  0.57227  1.0000
  C   C645      1.0  0.43897  0.89990  0.54578  1.0000
  C   C646      1.0  0.42759  0.87173  0.55810  1.0000
  C   C647      1.0  0.12580  0.64282  0.52614  1.0000
  C   C648      1.0  0.43244  0.86205  0.54309  1.0000
  C   C649      1.0  0.50048  0.70458  0.65934  1.0000
  C   C650      1.0  0.43692  0.84324  0.54540  1.0000
  C   C651      1.0  0.48318  0.54455  0.68287  1.0000
  H   H771      1.0  0.41213  0.89342  0.53007  1.0000
  H   H772      1.0  0.39613  0.89035  0.55009  1.0000
  H   H773      1.0  0.46447  0.50903  0.70680  1.0000
  H   H774      1.0  0.42797  0.89703  0.58104  1.0000
  H   H775      1.0  0.40497  0.89414  0.58001  1.0000
  H   H776      1.0  0.41386  0.91457  0.56968  1.0000
  C   C652      1.0  0.40564  0.98099  0.52758  1.0000
  H   H777      1.0  0.43639  0.91495  0.54397  1.0000
  H   H778      1.0  0.45060  0.89583  0.55353  1.0000
  H   H779      1.0  0.39355  0.50824  0.67611  1.0000
  H   H780      1.0  0.43317  0.86904  0.52945  1.0000
  S   S183      1.0  0.49122  0.98799  0.55185  1.0000
  H   H781      1.0  0.38014  0.80097  0.51056  1.0000
  Fe  Fe89      1.0  0.12671  0.52381  0.52749  1.0000
  C   C653      1.0  0.16017  0.62850  0.53728  1.0000
  H   H782      1.0  0.18054  0.54746  0.59362  1.0000
  S   S184      1.0  0.11168  0.51779  0.57929  1.0000
  H   H783      1.0  0.21363  0.53035  0.53105  1.0000
  H   H784      1.0  0.44516  0.89781  0.61513  1.0000
  Fe  Fe90      1.0  0.48966  0.65247  0.74980  1.0000
  H   H785      1.0  0.42527  0.86756  0.58779  1.0000
  H   H786      1.0  0.02342  0.53911  0.53006  1.0000
  H   H787      1.0  0.24144  0.56850  0.52572  1.0000
  C   C654      1.0  0.21799  0.56317  0.55509  1.0000
  C   C655      1.0  0.17905  0.59053  0.50768  1.0000
  H   H788      1.0  0.29303  0.67211  0.52833  1.0000
  H   H789      1.0  0.12711  0.65229  0.53554  1.0000
  C   C656      1.0  0.38512  0.85886  0.51348  1.0000
  H   H790      1.0  0.15966  0.53038  0.58302  1.0000
  H   H791      1.0  0.05602  0.52994  0.56784  1.0000
  H   H792      1.0  0.08214  0.53115  0.50915  1.0000
  H   H793      1.0  0.44782  0.86505  0.62575  1.0000
  C   C657      1.0  0.37906  0.50909  0.63567  1.0000
  H   H794      1.0  0.27046  0.63878  0.58012  1.0000
  S   S185      1.0  0.49845  0.74371  0.61510  1.0000
  C   C658      1.0  0.06434  0.59720  0.53945  1.0000
  Fe  Fe91      1.0  0.13858  0.50858  0.56378  1.0000
  C   C659      1.0  0.39427  0.84096  0.51353  1.0000
  H   H795      1.0  0.21948  0.59055  0.52106  1.0000
  H   H796      1.0  0.02379  0.54323  0.57004  1.0000
  H   H797      1.0  0.42078  0.82596  0.50651  1.0000
  C   C660      1.0  0.35187  0.61600  0.71155  1.0000
  C   C661      1.0  0.29531  0.60702  0.55641  1.0000
  H   H798      1.0  0.20485  0.56275  0.56394  1.0000
  H   H799      1.0  0.45903  0.72628  0.67218  1.0000
  C   C662      1.0  0.04596  0.52198  0.56592  1.0000
  S   S186      1.0  0.36709  0.55298  0.72477  1.0000
  N   N48       1.0  0.05508  0.54358  0.50595  1.0000
  C   C663      1.0  0.47175  0.72313  0.66391  1.0000
  H   H800      1.0  0.31959  0.60554  0.69011  1.0000
  C   C664      1.0  0.26719  0.59897  0.51518  1.0000
  C   C665      1.0  0.29759  0.61729  0.53933  1.0000
  H   H801      1.0  0.47732  0.94011  0.51792  1.0000
  H   H802      1.0  0.26520  0.66233  0.52269  1.0000
  C   C666      1.0  0.30224  0.63715  0.50394  1.0000
  H   H803      1.0  0.27437  0.65725  0.55057  1.0000
  C   C667      1.0  0.05117  0.50420  0.56239  1.0000
  C   C668      1.0  0.33472  0.58983  0.72042  1.0000
  H   H804      1.0  0.30081  0.59281  0.55821  1.0000
  H   H805      1.0  0.36604  0.53633  0.63954  1.0000
  H   H806      1.0  0.45024  0.80113  0.66629  1.0000
  C   C669      1.0  0.41287  0.83915  0.50661  1.0000
  C   C670      1.0  0.47051  0.53444  0.69339  1.0000
  H   H807      1.0  0.44137  0.62182  0.74882  1.0000
  N   N49       1.0  0.34180  0.60319  0.70552  1.0000
  H   H808      1.0  0.44092  0.83607  0.53380  1.0000
  C   C671      1.0  0.45526  0.93110  0.50862  1.0000
  C   C672      1.0  0.19506  0.59641  0.50961  1.0000
  H   H809      1.0  0.37440  0.52198  0.66782  1.0000
  C   C673      1.0  0.33756  0.58924  0.73869  1.0000
  C   C674      1.0  0.32169  0.56316  0.74818  1.0000
  C   C675      1.0  0.27816  0.63285  0.56873  1.0000
  C   C676      1.0  0.00828  0.52856  0.51406  1.0000
  H   H810      1.0  0.34510  0.59849  0.74282  1.0000
  H   H811      1.0  0.34319  0.62414  0.72138  1.0000
  C   C677      1.0  0.49611  0.76264  0.66387  1.0000
  H   H812      1.0  0.28348  0.60652  0.58413  1.0000
  C   C678      1.0  0.49296  0.50721  0.69472  1.0000
  C   C679      1.0  0.38364  0.50919  0.66648  1.0000
  H   H813      1.0  0.35727  0.62568  0.70004  1.0000
  H   H814      1.0  0.31630  0.63231  0.50664  1.0000
  C   C680      1.0  0.17542  0.57335  0.51575  1.0000
  H   H815      1.0  0.35837  0.83630  0.51559  1.0000
  H   H816      1.0  0.13567  0.64512  0.51381  1.0000
  C   C681      1.0  0.50020  0.74732  0.67631  1.0000
  H   H817      1.0  0.44983  0.00163  0.53801  1.0000
  C   C682      1.0  0.46010  0.96242  0.50542  1.0000
  H   H818      1.0  0.30283  0.67126  0.50552  1.0000
  H   H819      1.0  0.37781  0.51872  0.83035  1.0000
  Fe  Fe92      1.0  0.42059  0.54041  0.87799  1.0000
  S   S187      1.0  0.39644  0.56143  0.87696  1.0000
  S   S188      1.0  0.44833  0.54828  0.87560  1.0000
  Fe  Fe93      1.0  0.38469  0.54446  0.90181  1.0000
  S   S189      1.0  0.37065  0.55647  0.92698  1.0000
  Fe  Fe94      1.0  0.38689  0.54379  0.86007  1.0000
  S   S190      1.0  0.37878  0.55687  0.83268  1.0000
  S   S191      1.0  0.40952  0.52441  0.90366  1.0000
  S   S192      1.0  0.41182  0.52364  0.85988  1.0000
  Fe  Fe95      1.0  0.46556  0.63083  0.90610  1.0000
  S   S193      1.0  0.47283  0.65861  0.89569  1.0000
  S   S194      1.0  0.43855  0.62277  0.90569  1.0000
  N   N50       1.0  0.46215  0.51757  0.83333  1.0000
  H   H820      1.0  0.46855  0.59728  0.77112  1.0000
  C   C683      1.0  0.44460  0.59177  0.97053  1.0000
  C   C684      1.0  0.43760  0.58432  0.95742  1.0000
  C   C685      1.0  0.46312  0.58990  0.97130  1.0000
  S   S195      1.0  0.47813  0.62755  0.93150  1.0000
  C   C686      1.0  0.48652  0.52280  0.89875  1.0000
  C   C687      1.0  0.45027  0.57441  0.94553  1.0000
  H   H821      1.0  0.36284  0.55956  0.99213  1.0000
  H   H822      1.0  0.41937  0.58515  0.92802  1.0000
  C   C688      1.0  0.49290  0.67476  0.95920  1.0000
  H   H823      1.0  0.47945  0.51820  0.80798  1.0000
  H   H824      1.0  0.48955  0.57932  0.95942  1.0000
  S   S196      1.0  0.37835  0.51473  0.76599  1.0000
  C   C689      1.0  0.40829  0.57912  0.97356  1.0000
  H   H825      1.0  0.43575  0.59935  0.98012  1.0000
  H   H826      1.0  0.47001  0.61451  0.78455  1.0000
  H   H827      1.0  0.39716  0.60964  0.95131  1.0000
  C   C690      1.0  0.47517  0.58045  0.95917  1.0000
  H   H828      1.0  0.48629  0.65270  0.00246  1.0000
  C   C691      1.0  0.48309  0.64841  0.83235  1.0000
  C   C692      1.0  0.47596  0.64869  0.81613  1.0000
  C   C693      1.0  0.48663  0.65154  0.79923  1.0000
  H   H829      1.0  0.48427  0.53318  0.88738  1.0000
  H   H830      1.0  0.41943  0.61366  0.94117  1.0000
  H   H831      1.0  0.47466  0.64636  0.84521  1.0000
  H   H832      1.0  0.46200  0.64694  0.81670  1.0000
  C   C694      1.0  0.39494  0.53098  0.97060  1.0000
  H   H833      1.0  0.40937  0.65160  0.99433  1.0000
  C   C695      1.0  0.37707  0.55022  0.94899  1.0000
  C   C696      1.0  0.36710  0.55866  0.96332  1.0000
  C   C697      1.0  0.39137  0.53670  0.95268  1.0000
  H   H834      1.0  0.35605  0.56918  0.96065  1.0000
  H   H835      1.0  0.39949  0.53037  0.94181  1.0000
  C   C698      1.0  0.44641  0.56938  0.88311  1.0000
  C   C699      1.0  0.45863  0.57266  0.89388  1.0000
  C   C700      1.0  0.45638  0.58919  0.90065  1.0000
  C   C701      1.0  0.44186  0.60237  0.89677  1.0000
  C   C702      1.0  0.42995  0.59924  0.88566  1.0000
  C   C703      1.0  0.43247  0.58294  0.87854  1.0000
  H   H836      1.0  0.46960  0.56237  0.89732  1.0000
  H   H837      1.0  0.46560  0.59155  0.90931  1.0000
  H   H838      1.0  0.41894  0.60956  0.88230  1.0000
  H   H839      1.0  0.42379  0.58109  0.86922  1.0000
  C   C704      1.0  0.37896  0.54482  0.81431  1.0000
  C   C705      1.0  0.37940  0.55430  0.79669  1.0000
  C   C706      1.0  0.37944  0.54527  0.78176  1.0000
  C   C707      1.0  0.37859  0.52666  0.78434  1.0000
  C   C708      1.0  0.37789  0.51722  0.80199  1.0000
  C   C709      1.0  0.37830  0.52618  0.81687  1.0000
  H   H840      1.0  0.37969  0.56874  0.79457  1.0000
  C   C710      1.0  0.43644  0.61212  0.76058  1.0000
  S   S197      1.0  0.37187  0.52931  0.88488  1.0000
  Fe  Fe96      1.0  0.39760  0.51024  0.88553  1.0000
  H   H841      1.0  0.47823  0.56556  0.93679  1.0000
  C   C711      1.0  0.46346  0.61143  0.77344  1.0000
  C   C712      1.0  0.47990  0.51334  0.82260  1.0000
  H   H842      1.0  0.40993  0.56873  0.80820  1.0000
  H   H843      1.0  0.44263  0.71856  0.99127  1.0000
  H   H844      1.0  0.44404  0.54149  0.83884  1.0000
  C   C713      1.0  0.44278  0.67350  0.96965  1.0000
  H   H845      1.0  0.33387  0.57548  0.76603  1.0000
  C   C714      1.0  0.43760  0.63322  0.78066  1.0000
  H   H846      1.0  0.33495  0.51064  0.95695  1.0000
  H   H847      1.0  0.41279  0.61372  0.96501  1.0000
  C   C715      1.0  0.48571  0.57462  0.85114  1.0000
  C   C716      1.0  0.41160  0.60689  0.95339  1.0000
  Fe  Fe97      1.0  0.48783  0.65400  0.92000  1.0000
  C   C717      1.0  0.42552  0.58903  0.79295  1.0000
  H   H848      1.0  0.45881  0.54421  0.81762  1.0000
  H   H849      1.0  0.44109  0.59206  0.83873  1.0000
  H   H850      1.0  0.41448  0.51830  0.80021  1.0000
  H   H851      1.0  0.40555  0.52001  0.97337  1.0000
  H   H852      1.0  0.42271  0.63587  0.78396  1.0000
  C   C718      1.0  0.34920  0.51277  0.95231  1.0000
  H   H853      1.0  0.46609  0.50802  0.89421  1.0000
  H   H854      1.0  0.45210  0.61160  0.81164  1.0000
  H   H855      1.0  0.34894  0.52683  0.94498  1.0000
  H   H856      1.0  0.37742  0.51741  0.92833  1.0000
  H   H857      1.0  0.39352  0.58081  0.97314  1.0000
  N   N51       1.0  0.44353  0.61429  0.77723  1.0000
  H   H858      1.0  0.44629  0.56821  0.93513  1.0000
  C   C719      1.0  0.45779  0.53756  0.83187  1.0000
  H   H859      1.0  0.45554  0.69326  0.97793  1.0000
  C   C720      1.0  0.38474  0.53920  0.98496  1.0000
  C   C721      1.0  0.46875  0.57265  0.94640  1.0000
  C   C722      1.0  0.48774  0.66148  0.97356  1.0000
  H   H860      1.0  0.39815  0.58168  0.94095  1.0000
  C   C723      1.0  0.41295  0.57919  0.94147  1.0000
  C   C724      1.0  0.41926  0.66098  0.99083  1.0000
  H   H861      1.0  0.49692  0.54132  0.99474  1.0000
  H   H862      1.0  0.37986  0.55273  0.76828  1.0000
  H   H863      1.0  0.46814  0.59614  0.98109  1.0000
  S   S198      1.0  0.48922  0.61660  0.89011  1.0000
  H   H864      1.0  0.46841  0.62050  0.76119  1.0000
  C   C725      1.0  0.48620  0.59309  0.84987  1.0000
  C   C726      1.0  0.43628  0.51893  0.81515  1.0000
  C   C727      1.0  0.44520  0.68450  0.98203  1.0000
  H   H865      1.0  0.50104  0.54818  0.85297  1.0000
  C   C728      1.0  0.42496  0.57909  0.82509  1.0000
  S   S199      1.0  0.48747  0.67616  0.93703  1.0000
  C   C729      1.0  0.44311  0.60224  0.81028  1.0000
  H   H866      1.0  0.43569  0.53331  0.81100  1.0000
  N   N52       1.0  0.41800  0.58722  0.95636  1.0000
  H   H867      1.0  0.48106  0.65070  0.97099  1.0000
  C   C730      1.0  0.42989  0.66171  0.97406  1.0000
  H   H868      1.0  0.49048  0.51961  0.82709  1.0000
  H   H869      1.0  0.42819  0.65312  0.96445  1.0000
  C   C731      1.0  0.43743  0.60172  0.79335  1.0000
  H   H870      1.0  0.46725  0.54354  0.83833  1.0000
  H   H871      1.0  0.44359  0.63657  0.79201  1.0000
  H   H872      1.0  0.41665  0.56426  0.94313  1.0000
  C   C732      1.0  0.41942  0.57796  0.80865  1.0000
  H   H873      1.0  0.47194  0.51833  0.85860  1.0000
  H   H874      1.0  0.41968  0.57085  0.83729  1.0000
  H   H875      1.0  0.44181  0.64313  0.76875  1.0000
  C   C733      1.0  0.49887  0.67701  0.99473  1.0000
  H   H876      1.0  0.45009  0.51144  0.86095  1.0000
  H   H877      1.0  0.42042  0.58760  0.78077  1.0000
  C   C734      1.0  0.43693  0.59108  0.82588  1.0000
  C   C735      1.0  0.44868  0.50901  0.82661  1.0000
  C   C736      1.0  0.50112  0.68886  0.96278  1.0000
  C   C737      1.0  0.37098  0.55329  0.98118  1.0000
  H   H878      1.0  0.47295  0.56965  0.85198  1.0000
  H   H879      1.0  0.41293  0.56437  0.97648  1.0000
  C   C738      1.0  0.46355  0.51057  0.85267  1.0000
  S   S200      1.0  0.47666  0.65242  0.77922  1.0000
  H   H880      1.0  0.44093  0.59838  0.75669  1.0000
  Fe  Fe98      1.0  0.49759  0.64408  0.88110  1.0000
  H   H881      1.0  0.47379  0.60242  0.84994  1.0000
  H   H882      1.0  0.41017  0.58542  0.98532  1.0000
  C   C739      1.0  0.47636  0.50850  0.90256  1.0000
  H   H883      1.0  0.45107  0.67405  0.95657  1.0000
  C   C740      1.0  0.49060  0.66269  0.99140  1.0000
  H   H884      1.0  0.34751  0.51617  0.91804  1.0000
  C   C741      1.0  0.43464  0.68409  0.99927  1.0000
  H   H885      1.0  0.35623  0.51259  0.96424  1.0000
  C   C742      1.0  0.50157  0.56259  0.85167  1.0000
  C   C743      1.0  0.49971  0.52358  0.90940  1.0000
  C   C744      1.0  0.50097  0.65123  0.83186  1.0000
  H   H886      1.0  0.41942  0.71820  0.00043  1.0000
  H   H887      1.0  0.42148  0.61477  0.76208  1.0000
  H   H888      1.0  0.31713  0.55270  0.75869  1.0000
  C   C745      1.0  0.42385  0.51045  0.80887  1.0000
  C   C746      1.0  0.42147  0.67202  0.00329  1.0000
  H   H889      1.0  0.46590  0.69664  0.00355  1.0000
  H   H890      1.0  0.54073  0.46376  0.14734  1.0000
  C   C747      1.0  0.55535  0.49970  0.02025  1.0000
  C   C748      1.0  0.58425  0.46817  0.16636  1.0000
  H   H891      1.0  0.54800  0.47873  0.00808  1.0000
  S   S201      1.0  0.52233  0.46277  0.03686  1.0000
  C   C749      1.0  0.55720  0.48212  0.01614  1.0000
  N   N53       1.0  0.65976  0.47871  0.23924  1.0000
  H   H892      1.0  0.52828  0.48205  0.10864  1.0000
  S   S202      1.0  0.52595  0.42095  0.02730  1.0000
  C   C750      1.0  0.64390  0.49060  0.24673  1.0000
  C   C751      1.0  0.56916  0.49384  0.22144  1.0000
  S   S203      1.0  0.60582  0.48434  0.21805  1.0000
  Fe  Fe99      1.0  0.51428  0.42876  0.17418  1.0000
  H   H893      1.0  0.52199  0.34132  0.24369  1.0000
  S   S204      1.0  0.52677  0.42835  0.14460  1.0000
  Fe  Fe100     1.0  0.51691  0.44799  0.20612  1.0000
  S   S205      1.0  0.52564  0.47282  0.21362  1.0000
  H   H894      1.0  0.68006  0.48005  0.21597  1.0000
  S   S206      1.0  0.53298  0.42339  0.19561  1.0000
  H   H895      1.0  0.64294  0.46541  0.22641  1.0000
  C   C752      1.0  0.58353  0.48042  0.21781  1.0000
  C   C753      1.0  0.58013  0.46415  0.21315  1.0000
  C   C754      1.0  0.56241  0.46145  0.21188  1.0000
  C   C755      1.0  0.54807  0.47500  0.21542  1.0000
  H   H896      1.0  0.65777  0.48990  0.21139  1.0000
  H   H897      1.0  0.58737  0.43903  0.17172  1.0000
  H   H898      1.0  0.59119  0.45369  0.21032  1.0000
  H   H899      1.0  0.55985  0.44897  0.20812  1.0000
  H   H900      1.0  0.56637  0.45321  0.11063  1.0000
  S   S207      1.0  0.51748  0.37877  0.22823  1.0000
  C   C756      1.0  0.58259  0.47356  0.03293  1.0000
  C   C757      1.0  0.57930  0.45115  0.16611  1.0000
  C   C758      1.0  0.58705  0.46940  0.10993  1.0000
  Fe  Fe101     1.0  0.51197  0.40780  0.21338  1.0000
  C   C759      1.0  0.57046  0.46890  0.02289  1.0000
  H   H901      1.0  0.59280  0.46334  0.03825  1.0000
  C   C760      1.0  0.53211  0.47001  0.10147  1.0000
  C   C761      1.0  0.66736  0.48794  0.22152  1.0000
  C   C762      1.0  0.55303  0.46511  0.15238  1.0000
  C   C763      1.0  0.51611  0.42919  0.12505  1.0000
  C   C764      1.0  0.52684  0.42522  0.10892  1.0000
  C   C765      1.0  0.51938  0.42716  0.09264  1.0000
  C   C766      1.0  0.67345  0.47516  0.25183  1.0000
  C   C767      1.0  0.55155  0.49111  0.22027  1.0000
  H   H902      1.0  0.52491  0.48434  0.06897  1.0000
  H   H903      1.0  0.54105  0.42060  0.10900  1.0000
  H   H904      1.0  0.52779  0.42383  0.08041  1.0000
  H   H905      1.0  0.53382  0.50095  0.07822  1.0000
  Fe  Fe102     1.0  0.54129  0.44484  0.01944  1.0000
  H   H906      1.0  0.53913  0.45350  0.07128  1.0000
  H   H907      1.0  0.58952  0.49451  0.04561  1.0000
  C   C768      1.0  0.55079  0.45697  0.07668  1.0000
  C   C769      1.0  0.51490  0.36806  0.25122  1.0000
  H   H908      1.0  0.59376  0.45982  0.11985  1.0000
  H   H909      1.0  0.55972  0.43642  0.15933  1.0000
  C   C770      1.0  0.57357  0.48428  0.15963  1.0000
  C   C771      1.0  0.59448  0.48501  0.10215  1.0000
  C   C772      1.0  0.53745  0.48793  0.07264  1.0000
  C   C773      1.0  0.58082  0.49127  0.03695  1.0000
  C   C774      1.0  0.65326  0.46214  0.23591  1.0000
  C   C775      1.0  0.58598  0.49722  0.08930  1.0000
  H   H910      1.0  0.55567  0.44493  0.08601  1.0000
  C   C776      1.0  0.56371  0.44963  0.15919  1.0000
  H   H911      1.0  0.67041  0.50168  0.22235  1.0000
  H   H912      1.0  0.56161  0.45882  0.06504  1.0000
  H   H913      1.0  0.51969  0.46649  0.09747  1.0000
  S   S208      1.0  0.57030  0.44636  0.02042  1.0000
  C   C777      1.0  0.55787  0.48220  0.15248  1.0000
  N   N54       1.0  0.54592  0.47345  0.08561  1.0000
  H   H914      1.0  0.53675  0.45848  0.11147  1.0000
  C   C778      1.0  0.56225  0.47794  0.09147  1.0000
  H   H915      1.0  0.59626  0.46830  0.17233  1.0000
  H   H916      1.0  0.66441  0.45277  0.22969  1.0000
  Fe  Fe103     1.0  0.50876  0.47121  0.01217  1.0000
  C   C779      1.0  0.57126  0.46581  0.10462  1.0000
  C   C780      1.0  0.57008  0.49387  0.08399  1.0000
  H   H917      1.0  0.54901  0.49379  0.14727  1.0000
  H   H918      1.0  0.60703  0.48757  0.10584  1.0000
  H   H919      1.0  0.64657  0.45494  0.24855  1.0000
  H   H920      1.0  0.54057  0.50164  0.22298  1.0000
  H   H921      1.0  0.59326  0.49568  0.18271  1.0000
  H   H922      1.0  0.54646  0.49019  0.05972  1.0000
  C   C781      1.0  0.59454  0.50246  0.16849  1.0000
  Fe  Fe104     1.0  0.50605  0.43984  0.04329  1.0000
  H   H923      1.0  0.63304  0.49300  0.23793  1.0000
  H   H924      1.0  0.60665  0.49565  0.16075  1.0000
  H   H925      1.0  0.61351  0.49542  0.01244  1.0000
  N   N55       1.0  0.57799  0.50258  0.16021  1.0000
  H   H926      1.0  0.53499  0.36523  0.32141  1.0000
  Fe  Fe105     1.0  0.91233  0.46945  0.46372  1.0000
  S   S209      1.0  0.92040  0.45428  0.44019  1.0000
  H   H927      1.0  0.61041  0.09011  0.43074  1.0000
  S   S210      1.0  0.50809  0.26994  0.36666  1.0000
  S   S211      1.0  0.92003  0.41751  0.46920  1.0000
  Fe  Fe106     1.0  0.94000  0.43693  0.45734  1.0000
  S   S212      1.0  0.96925  0.43302  0.44449  1.0000
  Fe  Fe107     1.0  0.89964  0.43656  0.45413  1.0000
  S   S213      1.0  0.88199  0.42678  0.43695  1.0000
  S   S214      1.0  0.93298  0.45341  0.47991  1.0000
  S   S215      1.0  0.88988  0.45358  0.47623  1.0000
  C   C782      1.0  0.50663  0.12688  0.43995  1.0000
  C   C783      1.0  0.52113  0.22215  0.33786  1.0000
  S   S216      1.0  0.91073  0.49944  0.45969  1.0000
  Fe  Fe108     1.0  0.62162  0.11038  0.45999  1.0000
  S   S217      1.0  0.59760  0.10730  0.48084  1.0000
  S   S218      1.0  0.64006  0.08588  0.45064  1.0000
  Fe  Fe109     1.0  0.61258  0.15259  0.45379  1.0000
  S   S219      1.0  0.58750  0.15173  0.47378  1.0000
  S   S220      1.0  0.61629  0.18059  0.43833  1.0000
  C   C784      1.0  0.96809  0.48210  0.46960  1.0000
  Fe  Fe110     1.0  0.58309  0.12802  0.46149  1.0000
  S   S221      1.0  0.55681  0.12279  0.45443  1.0000
  S   S222      1.0  0.63034  0.13312  0.47134  1.0000
  S   S223      1.0  0.60682  0.13012  0.44008  1.0000
  H   H928      1.0  0.60756  0.35135  0.35027  1.0000
  S   S224      1.0  0.51672  0.13296  0.38347  1.0000
  C   C785      1.0  0.62617  0.13519  0.37762  1.0000
  C   C786      1.0  0.68451  0.50010  0.34813  1.0000
  S   S225      1.0  0.52229  0.09139  0.37299  1.0000
  H   H929      1.0  0.88215  0.50284  0.38734  1.0000
  Fe  Fe111     1.0  0.53703  0.11562  0.36675  1.0000
  S   S226      1.0  0.56530  0.11551  0.37159  1.0000
  S   S227      1.0  0.52619  0.12655  0.34064  1.0000
  Fe  Fe112     1.0  0.64894  0.31416  0.44564  1.0000
  S   S228      1.0  0.62168  0.32629  0.43752  1.0000
  S   S229      1.0  0.67166  0.33253  0.43926  1.0000
  Fe  Fe113     1.0  0.63676  0.27580  0.45453  1.0000
  S   S230      1.0  0.60916  0.28558  0.44718  1.0000
  S   S231      1.0  0.64381  0.24594  0.46522  1.0000
  Fe  Fe114     1.0  0.62277  0.30221  0.42335  1.0000
  S   S232      1.0  0.61506  0.30321  0.39529  1.0000
  C   C787      1.0  0.62099  0.05556  0.45743  1.0000
  S   S233      1.0  0.65074  0.29094  0.42953  1.0000
  H   H930      1.0  0.97182  0.48773  0.48100  1.0000
  H   H931      1.0  0.50437  0.37640  0.29488  1.0000
  H   H932      1.0  0.86524  0.48682  0.41482  1.0000
  Fe  Fe115     1.0  0.51909  0.26921  0.33761  1.0000
  H   H933      1.0  0.60061  0.34595  0.38354  1.0000
  S   S234      1.0  0.53245  0.24152  0.33086  1.0000
  Fe  Fe116     1.0  0.52167  0.29462  0.36428  1.0000
  H   H934      1.0  0.51104  0.12412  0.30769  1.0000
  S   S235      1.0  0.53318  0.29982  0.38865  1.0000
  H   H935      1.0  0.54603  0.34226  0.37976  1.0000
  H   H936      1.0  0.86336  0.44638  0.40349  1.0000
  H   H937      1.0  0.83900  0.44076  0.38846  1.0000
  H   H938      1.0  0.89836  0.48984  0.37257  1.0000
  S   S236      1.0  0.53466  0.29291  0.33581  1.0000
  H   H939      1.0  0.84752  0.39444  0.47847  1.0000
  H   H940      1.0  0.59784  0.07258  0.42930  1.0000
  H   H941      1.0  0.77864  0.48695  0.37817  1.0000
  Fe  Fe117     1.0  0.77535  0.41443  0.45108  1.0000
  S   S237      1.0  0.76603  0.44045  0.46210  1.0000
  S   S238      1.0  0.80222  0.41197  0.43297  1.0000
  Fe  Fe118     1.0  0.74028  0.39792  0.46750  1.0000
  S   S239      1.0  0.72932  0.42305  0.48040  1.0000
  S   S240      1.0  0.72138  0.37575  0.47441  1.0000
  Fe  Fe119     1.0  0.73946  0.43823  0.45373  1.0000
  S   S241      1.0  0.72198  0.46265  0.44154  1.0000
  Fe  Fe120     1.0  0.75699  0.42281  0.48753  1.0000
  S   S242      1.0  0.74922  0.41346  0.44041  1.0000
  S   S243      1.0  0.76754  0.39649  0.47695  1.0000
  C   C788      1.0  0.52508  0.17931  0.39522  1.0000
  C   C789      1.0  0.73753  0.48196  0.38150  1.0000
  H   H942      1.0  0.87264  0.49878  0.46151  1.0000
  H   H943      1.0  0.60532  0.22266  0.39585  1.0000
  C   C790      1.0  0.72773  0.46982  0.41835  1.0000
  C   C791      1.0  0.73772  0.45789  0.40707  1.0000
  C   C792      1.0  0.74242  0.46391  0.38866  1.0000
  C   C793      1.0  0.63648  0.41792  0.43900  1.0000
  N   N56       1.0  0.59496  0.24364  0.50332  1.0000
  H   H944      1.0  0.74173  0.44400  0.41247  1.0000
  H   H945      1.0  0.75005  0.45457  0.37998  1.0000
  H   H946      1.0  0.53201  0.14293  0.29493  1.0000
  H   H947      1.0  0.51887  0.12675  0.44637  1.0000
  H   H948      1.0  0.66545  0.44323  0.46741  1.0000
  H   H949      1.0  0.88470  0.39530  0.48534  1.0000
  C   C794      1.0  0.53795  0.16904  0.29624  1.0000
  H   H950      1.0  0.52081  0.27752  0.42194  1.0000
  C   C795      1.0  0.65176  0.05175  0.44304  1.0000
  H   H951      1.0  0.54789  0.16962  0.40943  1.0000
  H   H952      1.0  0.82169  0.40963  0.49466  1.0000
  H   H953      1.0  0.82127  0.48728  0.41066  1.0000
  C   C796      1.0  0.70848  0.36300  0.46431  1.0000
  C   C797      1.0  0.71003  0.36300  0.44561  1.0000
  C   C798      1.0  0.69880  0.35350  0.43832  1.0000
  C   C799      1.0  0.68586  0.34374  0.44951  1.0000
  C   C800      1.0  0.68442  0.34363  0.46821  1.0000
  C   C801      1.0  0.69565  0.35312  0.47550  1.0000
  H   H954      1.0  0.71988  0.37031  0.43673  1.0000
  H   H955      1.0  0.70017  0.35368  0.42386  1.0000
  H   H956      1.0  0.67463  0.33622  0.47707  1.0000
  H   H957      1.0  0.69429  0.35289  0.48997  1.0000
  C   C802      1.0  0.59239  0.30169  0.39356  1.0000
  C   C803      1.0  0.57914  0.30255  0.40854  1.0000
  C   C804      1.0  0.56113  0.30171  0.40681  1.0000
  C   C805      1.0  0.55621  0.29970  0.39018  1.0000
  C   C806      1.0  0.56951  0.29832  0.37527  1.0000
  C   C807      1.0  0.58753  0.29952  0.37692  1.0000
  H   H958      1.0  0.58268  0.30435  0.42139  1.0000
  H   H959      1.0  0.55092  0.30286  0.41840  1.0000
  H   H960      1.0  0.56589  0.29662  0.36246  1.0000
  H   H961      1.0  0.59770  0.29892  0.36526  1.0000
  Fe  Fe121     1.0  0.50470  0.14248  0.35788  1.0000
  H   H962      1.0  0.54068  0.19643  0.29873  1.0000
  C   C808      1.0  0.52241  0.18915  0.34363  1.0000
  H   H963      1.0  0.84570  0.48817  0.34980  1.0000
  C   C809      1.0  0.53111  0.20478  0.33904  1.0000
  C   C810      1.0  0.50404  0.03329  0.34415  1.0000
  H   H964      1.0  0.51597  0.27208  0.45214  1.0000
  H   H965      1.0  0.67173  0.49613  0.35597  1.0000
  H   H966      1.0  0.53024  0.17588  0.34434  1.0000
  H   H967      1.0  0.54563  0.20342  0.33625  1.0000
  C   C811      1.0  0.55909  0.12105  0.43133  1.0000
  C   C812      1.0  0.57004  0.13169  0.41878  1.0000
  C   C813      1.0  0.57237  0.12971  0.40043  1.0000
  C   C814      1.0  0.56327  0.11750  0.39455  1.0000
  C   C815      1.0  0.55188  0.10728  0.40700  1.0000
  C   C816      1.0  0.54994  0.10891  0.42538  1.0000
  H   H968      1.0  0.57638  0.14179  0.42310  1.0000
  H   H969      1.0  0.58079  0.13801  0.39076  1.0000
  H   H970      1.0  0.54466  0.09796  0.40246  1.0000
  H   H971      1.0  0.54141  0.10067  0.43491  1.0000
  C   C817      1.0  0.63475  0.22788  0.45896  1.0000
  C   C818      1.0  0.64107  0.20995  0.46566  1.0000
  C   C819      1.0  0.63496  0.19525  0.46015  1.0000
  C   C820      1.0  0.62244  0.19837  0.44786  1.0000
  C   C821      1.0  0.61553  0.21627  0.44182  1.0000
  C   C822      1.0  0.62163  0.23096  0.44730  1.0000
  H   H972      1.0  0.65111  0.20738  0.47481  1.0000
  H   H973      1.0  0.64040  0.18154  0.46495  1.0000
  H   H974      1.0  0.60573  0.21867  0.43249  1.0000
  H   H975      1.0  0.61661  0.24466  0.44212  1.0000
  C   C823      1.0  0.82702  0.42062  0.49864  1.0000
  C   C824      1.0  0.54386  0.06043  0.49002  1.0000
  H   H976      1.0  0.70148  0.39986  0.44658  1.0000
  C   C825      1.0  0.59286  0.21681  0.48757  1.0000
  C   C826      1.0  0.69249  0.45482  0.27209  1.0000
  C   C827      1.0  0.50684  0.17883  0.39505  1.0000
  H   H977      1.0  0.53253  0.18745  0.38434  1.0000
  C   C828      1.0  0.69399  0.48685  0.26788  1.0000
  H   H978      1.0  0.86197  0.37709  0.49027  1.0000
  H   H979      1.0  0.76372  0.48241  0.40767  1.0000
  C   C829      1.0  0.85933  0.42278  0.43790  1.0000
  C   C830      1.0  0.84496  0.42865  0.45068  1.0000
  C   C831      1.0  0.82723  0.42517  0.44987  1.0000
  C   C832      1.0  0.82388  0.41608  0.43613  1.0000
  C   C833      1.0  0.83828  0.41052  0.42347  1.0000
  C   C834      1.0  0.85575  0.41372  0.42441  1.0000
  H   H980      1.0  0.84742  0.43598  0.46100  1.0000
  H   H981      1.0  0.81617  0.42971  0.45964  1.0000
  H   H982      1.0  0.83593  0.40352  0.41282  1.0000
  H   H983      1.0  0.86663  0.40912  0.41446  1.0000
  C   C835      1.0  0.63714  0.06286  0.45090  1.0000
  H   H984      1.0  0.60958  0.06394  0.46358  1.0000
  C   C836      1.0  0.84527  0.41952  0.50157  1.0000
  C   C837      1.0  0.55812  0.08682  0.49097  1.0000
  C   C838      1.0  0.53144  0.18688  0.29858  1.0000
  H   H985      1.0  0.69270  0.41441  0.48234  1.0000
  C   C839      1.0  0.59720  0.22398  0.50238  1.0000
  H   H986      1.0  0.87237  0.46337  0.42179  1.0000
  C   C840      1.0  0.54559  0.36502  0.33022  1.0000
  C   C841      1.0  0.55901  0.34484  0.37254  1.0000
  N   N57       1.0  0.85844  0.40302  0.49989  1.0000
  H   H987      1.0  0.60727  0.03171  0.46091  1.0000
  H   H988      1.0  0.88274  0.41583  0.49425  1.0000
  H   H989      1.0  0.67733  0.44668  0.44461  1.0000
  H   H990      1.0  0.71654  0.48292  0.31647  1.0000
  H   H991      1.0  0.52802  0.10593  0.48249  1.0000
  C   C842      1.0  0.51297  0.19234  0.30132  1.0000
  H   H992      1.0  0.55235  0.16478  0.29444  1.0000
  H   H993      1.0  0.95317  0.48292  0.47191  1.0000
  C   C843      1.0  0.81414  0.49184  0.39913  1.0000
  H   H994      1.0  0.90321  0.49253  0.39423  1.0000
  H   H995      1.0  0.62024  0.22507  0.37474  1.0000
  C   C844      1.0  0.84580  0.45252  0.38336  1.0000
  H   H996      1.0  0.69005  0.46455  0.35937  1.0000
  H   H997      1.0  0.58757  0.08395  0.39247  1.0000
  C   C845      1.0  0.58039  0.35027  0.34562  1.0000
  H   H998      1.0  0.55870  0.31981  0.33755  1.0000
  H   H999      1.0  0.80263  0.44863  0.39399  1.0000
  S   S244      1.0  0.74451  0.48906  0.35857  1.0000
  H   H1000     1.0  0.80277  0.47312  0.43319  1.0000
  C   C846      1.0  0.87512  0.40757  0.48810  1.0000
  H   H1001     1.0  0.90997  0.46046  0.40103  1.0000
  C   C847      1.0  0.56257  0.34752  0.35334  1.0000
  C   C848      1.0  0.65514  0.21283  0.41329  1.0000
  C   C849      1.0  0.63448  0.02637  0.44775  1.0000
  H   H1002     1.0  0.55785  0.36846  0.32105  1.0000
  C   C850      1.0  0.65226  0.38766  0.44341  1.0000
  C   C851      1.0  0.60153  0.18615  0.50139  1.0000
  H   H1003     1.0  0.68325  0.45221  0.33498  1.0000
  C   C852      1.0  0.66601  0.39415  0.44977  1.0000
  H   H1004     1.0  0.60286  0.25184  0.47500  1.0000
  H   H1005     1.0  0.95499  0.48184  0.43975  1.0000
  N   N58       1.0  0.68030  0.41909  0.45784  1.0000
  H   H1006     1.0  0.60008  0.24652  0.41525  1.0000
  H   H1007     1.0  0.79604  0.45149  0.43399  1.0000
  H   H1008     1.0  0.50751  0.39241  0.26341  1.0000
  C   C853      1.0  0.84074  0.46415  0.36822  1.0000
  H   H1009     1.0  0.78383  0.44321  0.41038  1.0000
  C   C854      1.0  0.50236  0.22370  0.34147  1.0000
  H   H1010     1.0  0.97236  0.49122  0.42388  1.0000
  C   C855      1.0  0.52411  0.15857  0.42315  1.0000
  C   C856      1.0  0.50659  0.02056  0.44178  1.0000
  C   C857      1.0  0.51635  0.33990  0.27273  1.0000
  H   H1011     1.0  0.80089  0.43664  0.49881  1.0000
  C   C858      1.0  0.68118  0.48146  0.32589  1.0000
  H   H1012     1.0  0.55617  0.10148  0.49233  1.0000
  H   H1013     1.0  0.97728  0.46974  0.43720  1.0000
  C   C859      1.0  0.55098  0.02361  0.48437  1.0000
  C   C860      1.0  0.79061  0.49163  0.38087  1.0000
  H   H1014     1.0  0.58826  0.22528  0.47585  1.0000
  C   C861      1.0  0.64066  0.21966  0.40363  1.0000
  H   H1015     1.0  0.59884  0.23885  0.37730  1.0000
  H   H1016     1.0  0.67454  0.44563  0.25790  1.0000
  C   C862      1.0  0.53368  0.16928  0.40931  1.0000
  C   C863      1.0  0.68185  0.40990  0.47651  1.0000
  H   H1017     1.0  0.61098  0.13208  0.35683  1.0000
  Fe  Fe122     1.0  0.91142  0.43581  0.49055  1.0000
  N   N59       1.0  0.54874  0.34723  0.34158  1.0000
  H   H1018     1.0  0.97354  0.46751  0.47058  1.0000
  H   H1019     1.0  0.71466  0.49706  0.41975  1.0000
  C   C864      1.0  0.70930  0.49298  0.32519  1.0000
  H   H1020     1.0  0.56971  0.34209  0.39779  1.0000
  C   C865      1.0  0.62868  0.07019  0.40594  1.0000
  C   C866      1.0  0.65040  0.03386  0.44134  1.0000
  Fe  Fe123     1.0  0.50935  0.10360  0.34840  1.0000
  H   H1021     1.0  0.62681  0.39438  0.43325  1.0000
  C   C867      1.0  0.89223  0.49051  0.38683  1.0000
  C   C868      1.0  0.68110  0.48968  0.25603  1.0000
  H   H1022     1.0  0.82991  0.46158  0.36157  1.0000
  H   H1023     1.0  0.70976  0.46730  0.28501  1.0000
  H   H1024     1.0  0.64749  0.47102  0.29568  1.0000
  H   H1025     1.0  0.53240  0.32967  0.36013  1.0000
  C   C869      1.0  0.72747  0.49391  0.39271  1.0000
  C   C870      1.0  0.59001  0.34690  0.37516  1.0000
  H   H1026     1.0  0.62938  0.14842  0.37138  1.0000
  N   N60       1.0  0.69377  0.48596  0.33711  1.0000
  C   C871      1.0  0.79885  0.48423  0.39656  1.0000
  H   H1027     1.0  0.51551  0.08792  0.48216  1.0000
  H   H1028     1.0  0.97345  0.42478  0.48292  1.0000
  C   C872      1.0  0.65683  0.47387  0.30399  1.0000
  C   C873      1.0  0.61590  0.12595  0.36942  1.0000
  H   H1029     1.0  0.59318  0.26237  0.39650  1.0000
  H   H1030     1.0  0.66584  0.25202  0.42229  1.0000
  H   H1031     1.0  0.51945  0.04433  0.43154  1.0000
  C   C874      1.0  0.55877  0.02942  0.49753  1.0000
  H   H1032     1.0  0.63812  0.48456  0.26035  1.0000
  H   H1033     1.0  0.89376  0.44564  0.40177  1.0000
  H   H1034     1.0  0.65885  0.19834  0.41632  1.0000
  C   C875      1.0  0.60052  0.07502  0.39412  1.0000
  C   C876      1.0  0.62783  0.11048  0.40220  1.0000
  H   H1035     1.0  0.66429  0.05711  0.43797  1.0000
  H   H1036     1.0  0.63392  0.20973  0.39954  1.0000
  C   C877      1.0  0.53113  0.34322  0.35180  1.0000
  C   C878      1.0  0.65024  0.42455  0.44531  1.0000
  C   C879      1.0  0.67727  0.46359  0.32633  1.0000
  N   N61       1.0  0.88395  0.47401  0.39493  1.0000
  H   H1037     1.0  0.54111  0.37601  0.33873  1.0000
  C   C880      1.0  0.62462  0.25941  0.37505  1.0000
  C   C881      1.0  0.65900  0.24306  0.41672  1.0000
  C   C882      1.0  0.87692  0.47596  0.41402  1.0000
  H   H1038     1.0  0.62557  0.05681  0.41332  1.0000
  H   H1039     1.0  0.60736  0.07233  0.38054  1.0000
  C   C883      1.0  0.60503  0.25588  0.40332  1.0000
  H   H1040     1.0  0.86985  0.49450  0.36428  1.0000
  H   H1041     1.0  0.89983  0.48618  0.49802  1.0000
  Fe  Fe124     1.0  0.60487  0.13135  0.49067  1.0000
  H   H1042     1.0  0.67499  0.21911  0.42793  1.0000
  H   H1043     1.0  0.56686  0.08002  0.50124  1.0000
  H   H1044     1.0  0.63777  0.07495  0.41381  1.0000
  H   H1045     1.0  0.99988  0.42405  0.49889  1.0000
  N   N62       1.0  0.54068  0.07959  0.49310  1.0000
  N   N63       1.0  0.61213  0.08319  0.40380  1.0000
  C   C884      1.0  0.85158  0.38902  0.49207  1.0000
  C   C885      1.0  0.51809  0.34905  0.25484  1.0000
  H   H1046     1.0  0.51097  0.12172  0.42676  1.0000
  H   H1047     1.0  0.53565  0.09112  0.46614  1.0000
  H   H1048     1.0  0.69953  0.49830  0.27082  1.0000
  C   C886      1.0  0.98582  0.42897  0.47547  1.0000
  C   C887      1.0  0.67783  0.43889  0.45836  1.0000
  C   C888      1.0  0.53593  0.05398  0.47684  1.0000
  H   H1049     1.0  0.63653  0.06803  0.39261  1.0000
  C   C889      1.0  0.67248  0.49523  0.31388  1.0000
  C   C890      1.0  0.84968  0.47911  0.36158  1.0000
  C   C891      1.0  0.78934  0.45438  0.40064  1.0000
  C   C892      1.0  0.69971  0.46944  0.27588  1.0000
  C   C893      1.0  0.55501  0.33319  0.32956  1.0000
  H   H1050     1.0  0.63580  0.25299  0.36587  1.0000
  H   H1051     1.0  0.61009  0.26676  0.40856  1.0000
  H   H1052     1.0  0.62491  0.42707  0.43487  1.0000
  C   C894      1.0  0.72243  0.48778  0.41108  1.0000
  C   C895      1.0  0.63477  0.23856  0.40043  1.0000
  H   H1053     1.0  0.69705  0.44128  0.27830  1.0000
  H   H1054     1.0  0.59699  0.06186  0.40163  1.0000
  N   N64       1.0  0.61903  0.24630  0.39096  1.0000
  C   C896      1.0  0.98712  0.43405  0.45676  1.0000
  H   H1055     1.0  0.52521  0.35357  0.36070  1.0000
  C   C897      1.0  0.89842  0.45840  0.39447  1.0000
  H   H1056     1.0  0.62932  0.27127  0.37895  1.0000
  H   H1057     1.0  0.61328  0.26503  0.36717  1.0000
  C   C898      1.0  0.64453  0.25006  0.40712  1.0000
  C   C899      1.0  0.63749  0.39952  0.43807  1.0000
  C   C900      1.0  0.96958  0.48345  0.43753  1.0000
  H   H1058     1.0  0.56691  0.33632  0.31969  1.0000
  N   N65       1.0  0.97447  0.49226  0.45187  1.0000
  C   C901      1.0  0.69748  0.41463  0.44616  1.0000
  H   H1059     1.0  0.77363  0.48873  0.42527  1.0000
  H   H1060     1.0  0.58998  0.09563  0.42089  1.0000
  C   C902      1.0  0.80199  0.46264  0.42468  1.0000
  H   H1061     1.0  0.56580  0.08538  0.47737  1.0000
  H   H1062     1.0  0.71917  0.49630  0.33317  1.0000
  H   H1063     1.0  0.88733  0.47938  0.42131  1.0000
  C   C903      1.0  0.50966  0.27006  0.42053  1.0000
  C   C904      1.0  0.85980  0.45583  0.39189  1.0000
  S   S245      1.0  0.63709  0.29791  0.47140  1.0000
  Fe  Fe125     1.0  0.61021  0.30863  0.46210  1.0000
  H   H1064     1.0  0.71027  0.47432  0.35806  1.0000
  H   H1065     1.0  0.63275  0.10511  0.41492  1.0000
  H   H1066     1.0  0.64010  0.13464  0.40044  1.0000
  H   H1067     1.0  0.90361  0.45611  0.38033  1.0000
  C   C905      1.0  0.61147  0.10898  0.37756  1.0000
  H   H1068     1.0  0.76632  0.46685  0.42773  1.0000
  C   C906      1.0  0.86919  0.47093  0.38553  1.0000
  C   C907      1.0  0.61709  0.10083  0.39441  1.0000
  C   C908      1.0  0.59390  0.34979  0.35642  1.0000
  N   N66       1.0  0.79107  0.46987  0.40978  1.0000
  C   C909      1.0  0.70101  0.47033  0.34973  1.0000
  H   H1069     1.0  0.58408  0.35248  0.33115  1.0000
  C   C910      1.0  0.61056  0.23256  0.38444  1.0000
  H   H1070     1.0  0.74411  0.46037  0.49964  1.0000
  C   C911      1.0  0.61968  0.03728  0.45593  1.0000
  C   C912      1.0  0.86365  0.48258  0.37009  1.0000
  H   H1071     1.0  0.60325  0.10277  0.37055  1.0000
  C   C913      1.0  0.57257  0.34467  0.38318  1.0000
  H   H1072     1.0  0.66190  0.02570  0.43503  1.0000
  C   C914      1.0  0.60217  0.08547  0.42193  1.0000
  H   H1073     1.0  0.66230  0.44627  0.31616  1.0000
  H   H1074     1.0  0.59213  0.19297  0.47553  1.0000
  C   C915      1.0  0.66422  0.22449  0.41989  1.0000
  C   C916      1.0  0.63219  0.12743  0.39395  1.0000
  H   H1075     1.0  0.81585  0.45682  0.41944  1.0000
  S   S246      1.0  0.58409  0.31872  0.47825  1.0000
  H   H1076     1.0  0.78005  0.45807  0.39027  1.0000
  H   H1077     1.0  0.64077  0.26456  0.40539  1.0000
  H   H1078     1.0  0.51142  0.26844  0.40596  1.0000
  C   C917      1.0  0.52602  0.15657  0.29658  1.0000
  H   H1079     1.0  0.68931  0.44307  0.46357  1.0000
  H   H1080     1.0  0.54444  0.33171  0.32138  1.0000
  C   C918      1.0  0.66050  0.49147  0.30314  1.0000
  H   H1081     1.0  0.70883  0.41985  0.45046  1.0000
  H   H1082     1.0  0.51884  0.32530  0.27518  1.0000
  H   H1083     1.0  0.65311  0.37329  0.44270  1.0000
  C   C919      1.0  0.77294  0.47727  0.41796  1.0000
  C   C920      1.0  0.99411  0.49307  0.44906  1.0000
  C   C921      1.0  0.50692  0.03917  0.43725  1.0000
  H   H1084     1.0  0.67707  0.38438  0.45386  1.0000
  C   C922      1.0  0.66548  0.41276  0.45094  1.0000
  H   H1085     1.0  0.51405  0.05548  0.35290  1.0000
  H   H1086     1.0  0.70914  0.45957  0.34237  1.0000
  H   H1087     1.0  0.68534  0.39500  0.47716  1.0000
  H   H1088     1.0  0.53133  0.15126  0.43390  1.0000
  H   H1089     1.0  0.69658  0.42052  0.43183  1.0000
  C   C923      1.0  0.66522  0.45996  0.31553  1.0000
  H   H1090     1.0  0.66903  0.41245  0.48561  1.0000
  C   C924      1.0  0.52942  0.09151  0.48038  1.0000
  H   H1091     1.0  0.64861  0.43891  0.44570  1.0000
  H   H1092     1.0  0.51916  0.01181  0.43964  1.0000
  C   C925      1.0  0.50990  0.37782  0.26585  1.0000
  C   C926      1.0  0.59497  0.19816  0.48721  1.0000
  H   H1093     1.0  0.52102  0.34309  0.34264  1.0000
  C   C927      1.0  0.55523  0.04752  0.50042  1.0000
  C   C928      1.0  0.51143  0.34965  0.28735  1.0000
  C   C929      1.0  0.50824  0.36867  0.28374  1.0000
  H   H1094     1.0  0.55381  0.00960  0.48206  1.0000
  H   H1095     1.0  0.53365  0.03111  0.46386  1.0000
  C   C930      1.0  0.50706  0.16171  0.29937  1.0000
  S   S247      1.0  0.50892  0.33899  0.31035  1.0000
  Fe  Fe126     1.0  0.50958  0.31057  0.32724  1.0000
  C   C931      1.0  0.53957  0.03583  0.47410  1.0000
  H   H1096     1.0  0.51158  0.25629  0.42832  1.0000
  H   H1097     1.0  0.52695  0.06266  0.46840  1.0000
  C   C932      1.0  0.81481  0.43620  0.50091  1.0000
  H   H1098     1.0  0.87203  0.41513  0.47485  1.0000
  H   H1099     1.0  0.86900  0.50169  0.49133  1.0000
  H   H1100     1.0  0.60375  0.17174  0.50071  1.0000
  H   H1101     1.0  0.57870  0.25343  0.48173  1.0000
  H   H1102     1.0  0.59097  0.26973  0.48673  1.0000
  C   C933      1.0  0.00084  0.42855  0.48450  1.0000
  C   C934      1.0  0.59171  0.25503  0.48590  1.0000
  C   C935      1.0  0.50248  0.13037  0.29705  1.0000
  C   C936      1.0  0.67952  0.45754  0.26027  1.0000
  H   H1103     1.0  0.83989  0.38372  0.50097  1.0000
  H   H1104     1.0  0.50978  0.27674  0.48360  1.0000
  H   H1105     1.0  0.50992  0.02297  0.35397  1.0000
  H   H1106     1.0  0.51080  0.13026  0.28360  1.0000
  C   C937      1.0  0.50359  0.19074  0.34660  1.0000
  C   C938      1.0  0.50636  0.05169  0.34355  1.0000
  H   H1107     1.0  0.54991  0.31729  0.49990  1.0000
  C   C939      1.0  0.57825  0.30863  0.50057  1.0000
  H   H1108     1.0  0.62369  0.24344  0.49998  1.0000
  H   H1109     1.0  0.50683  0.15385  0.45885  1.0000
  C   C940      1.0  0.50570  0.15713  0.42297  1.0000
  H   H1110     1.0  0.00121  0.47482  0.47342  1.0000
  H   H1111     1.0  0.50798  0.20609  0.30378  1.0000
  C   C941      1.0  0.50239  0.27743  0.45702  1.0000
  H   H1112     1.0  0.65409  0.50235  0.29410  1.0000
  H   H1113     1.0  0.69306  0.50265  0.35793  1.0000
  S   S248      1.0  0.63416  0.00375  0.44393  1.0000
  C   C942      1.0  0.51960  0.06659  0.59016  1.0000
  H   H1114     1.0  0.92701  0.45752  0.61338  1.0000
  Fe  Fe127     1.0  0.94698  0.48576  0.56170  1.0000
  S   S249      1.0  0.94243  0.45734  0.57358  1.0000
  H   H1115     1.0  0.58167  0.24165  0.53082  1.0000
  H   H1116     1.0  0.54804  0.30712  0.58364  1.0000
  H   H1117     1.0  0.53463  0.23517  0.57752  1.0000
  S   S250      1.0  0.97164  0.49463  0.54404  1.0000
  S   S251      1.0  0.50995  0.42983  0.71337  1.0000
  Fe  Fe128     1.0  0.51364  0.12216  0.56332  1.0000
  S   S252      1.0  0.53902  0.11646  0.57577  1.0000
  H   H1118     1.0  0.73713  0.48043  0.59809  1.0000
  C   C943      1.0  0.69206  0.49590  0.61215  1.0000
  S   S253      1.0  0.51366  0.26975  0.55798  1.0000
  H   H1119     1.0  0.55333  0.35216  0.55627  1.0000
  H   H1120     1.0  0.74215  0.48327  0.57382  1.0000
  H   H1121     1.0  0.50369  0.46362  0.68677  1.0000
  H   H1122     1.0  0.58082  0.32058  0.58850  1.0000
  C   C944      1.0  0.50203  0.04166  0.59786  1.0000
  H   H1123     1.0  0.90531  0.45030  0.59567  1.0000
  H   H1124     1.0  0.84257  0.45647  0.55715  1.0000
  Fe  Fe129     1.0  0.53171  0.28584  0.56775  1.0000
  S   S254      1.0  0.56167  0.28307  0.55857  1.0000
  S   S255      1.0  0.52230  0.27800  0.59725  1.0000
  Fe  Fe130     1.0  0.52790  0.42831  0.68715  1.0000
  S   S256      1.0  0.54247  0.45237  0.67469  1.0000
  C   C945      1.0  0.51526  0.48410  0.70798  1.0000
  C   C946      1.0  0.82030  0.45110  0.50609  1.0000
  C   C947      1.0  0.53897  0.21029  0.56609  1.0000
  C   C948      1.0  0.53037  0.18790  0.54127  1.0000
  H   H1125     1.0  0.52472  0.20946  0.56817  1.0000
  C   C949      1.0  0.75054  0.46315  0.51051  1.0000
  H   H1126     1.0  0.52699  0.48787  0.69815  1.0000
  H   H1127     1.0  0.85967  0.48873  0.57738  1.0000
  H   H1128     1.0  0.54910  0.16375  0.57729  1.0000
  H   H1129     1.0  0.51256  0.00848  0.57242  1.0000
  H   H1130     1.0  0.58061  0.18867  0.55210  1.0000
  C   C950      1.0  0.51635  0.35528  0.65204  1.0000
  H   H1131     1.0  0.57130  0.12590  0.51433  1.0000
  H   H1132     1.0  0.66781  0.46746  0.64230  1.0000
  H   H1133     1.0  0.82941  0.48834  0.55012  1.0000
  S   S257      1.0  0.58998  0.48590  0.71987  1.0000
  C   C951      1.0  0.73206  0.47893  0.58543  1.0000
  H   H1134     1.0  0.53262  0.34370  0.56601  1.0000
  H   H1135     1.0  0.57023  0.16329  0.54963  1.0000
  S   S258      1.0  0.52624  0.36766  0.66546  1.0000
  H   H1136     1.0  0.53334  0.15743  0.56490  1.0000
  C   C952      1.0  0.70771  0.48663  0.56735  1.0000
  H   H1137     1.0  0.52308  0.35418  0.59207  1.0000
  C   C953      1.0  0.87823  0.47246  0.52963  1.0000
  S   S259      1.0  0.60593  0.13473  0.51931  1.0000
  H   H1138     1.0  0.88874  0.50134  0.57073  1.0000
  H   H1139     1.0  0.58216  0.33779  0.56880  1.0000
  H   H1140     1.0  0.57607  0.31613  0.56749  1.0000
  C   C954      1.0  0.76174  0.44937  0.51955  1.0000
  H   H1141     1.0  0.51892  0.46943  0.71270  1.0000
  Fe  Fe131     1.0  0.51841  0.39114  0.68273  1.0000
  C   C955      1.0  0.75536  0.48416  0.53008  1.0000
  C   C956      1.0  0.76688  0.47051  0.53890  1.0000
  C   C957      1.0  0.76996  0.45312  0.53371  1.0000
  H   H1142     1.0  0.56695  0.23829  0.57410  1.0000
  H   H1143     1.0  0.77319  0.47325  0.54987  1.0000
  H   H1144     1.0  0.77864  0.44248  0.54074  1.0000
  C   C958      1.0  0.55632  0.46102  0.68712  1.0000
  C   C959      1.0  0.55726  0.45456  0.70537  1.0000
  C   C960      1.0  0.56769  0.46231  0.71514  1.0000
  C   C961      1.0  0.57750  0.47639  0.70672  1.0000
  C   C962      1.0  0.57663  0.48282  0.68844  1.0000
  C   C963      1.0  0.56597  0.47524  0.67873  1.0000
  H   H1145     1.0  0.54996  0.44358  0.71197  1.0000
  H   H1146     1.0  0.56830  0.45720  0.72926  1.0000
  H   H1147     1.0  0.60540  0.29854  0.50556  1.0000
  H   H1148     1.0  0.56532  0.48030  0.66460  1.0000
  C   C964      1.0  0.56280  0.36716  0.61151  1.0000
  H   H1149     1.0  0.54817  0.05948  0.58466  1.0000
  C   C965      1.0  0.86316  0.39501  0.51803  1.0000
  H   H1150     1.0  0.92141  0.47652  0.62571  1.0000
  C   C966      1.0  0.50253  0.33549  0.62920  1.0000
  C   C967      1.0  0.57550  0.21343  0.56280  1.0000
  C   C968      1.0  0.85326  0.49630  0.53322  1.0000
  C   C969      1.0  0.58618  0.29194  0.52909  1.0000
  C   C970      1.0  0.56794  0.29324  0.53637  1.0000
  C   C971      1.0  0.55489  0.30232  0.52579  1.0000
  H   H1151     1.0  0.57358  0.37056  0.61769  1.0000
  Fe  Fe132     1.0  0.52102  0.40097  0.72072  1.0000
  H   H1152     1.0  0.59634  0.28501  0.53727  1.0000
  H   H1153     1.0  0.54079  0.30333  0.53126  1.0000
  H   H1154     1.0  0.69394  0.49394  0.56614  1.0000
  C   C972      1.0  0.55778  0.12018  0.55977  1.0000
  C   C973      1.0  0.57357  0.12296  0.56563  1.0000
  C   C974      1.0  0.58841  0.12708  0.55306  1.0000
  C   C975      1.0  0.58759  0.12820  0.53458  1.0000
  C   C976      1.0  0.57193  0.12501  0.52863  1.0000
  C   C977      1.0  0.55694  0.12109  0.54127  1.0000
  H   H1155     1.0  0.57425  0.12218  0.57992  1.0000
  H   H1156     1.0  0.60055  0.12946  0.55765  1.0000
  H   H1157     1.0  0.68318  0.44592  0.62162  1.0000
  H   H1158     1.0  0.54477  0.11878  0.53672  1.0000
  H   H1159     1.0  0.54255  0.38531  0.62523  1.0000
  H   H1160     1.0  0.85095  0.39179  0.52751  1.0000
  H   H1161     1.0  0.52032  0.08103  0.58790  1.0000
  C   C978      1.0  0.54454  0.22507  0.57159  1.0000
  S   S260      1.0  0.52453  0.39129  0.75017  1.0000
  H   H1162     1.0  0.58969  0.21450  0.56198  1.0000
  C   C979      1.0  0.93287  0.44750  0.55847  1.0000
  C   C980      1.0  0.93370  0.45512  0.54035  1.0000
  C   C981      1.0  0.92486  0.44828  0.52856  1.0000
  C   C982      1.0  0.91547  0.43348  0.53462  1.0000
  C   C983      1.0  0.91487  0.42560  0.55272  1.0000
  C   C984      1.0  0.92366  0.43254  0.56462  1.0000
  H   H1163     1.0  0.94136  0.46620  0.53532  1.0000
  H   H1164     1.0  0.87379  0.44619  0.54394  1.0000
  H   H1165     1.0  0.90770  0.41410  0.55753  1.0000
  H   H1166     1.0  0.92324  0.42636  0.57857  1.0000
  C   C985      1.0  0.69761  0.46573  0.60383  1.0000
  C   C986      1.0  0.88813  0.48813  0.61477  1.0000
  H   H1167     1.0  0.60643  0.21568  0.52877  1.0000
  H   H1168     1.0  0.90293  0.44402  0.62967  1.0000
  H   H1169     1.0  0.51334  0.00860  0.62867  1.0000
  H   H1170     1.0  0.51767  0.37736  0.61186  1.0000
  C   C987      1.0  0.57443  0.32692  0.57632  1.0000
  H   H1171     1.0  0.54018  0.33589  0.64871  1.0000
  C   C988      1.0  0.54534  0.37562  0.61568  1.0000
  H   H1172     1.0  0.89362  0.46228  0.64233  1.0000
  C   C989      1.0  0.89373  0.45703  0.62937  1.0000
  H   H1173     1.0  0.71674  0.49144  0.55501  1.0000
  C   C990      1.0  0.54748  0.34011  0.56390  1.0000
  C   C991      1.0  0.52670  0.34005  0.64528  1.0000
  N   N67       1.0  0.51635  0.00919  0.59986  1.0000
  N   N68       1.0  0.89941  0.47041  0.61370  1.0000
  C   C992      1.0  0.61137  0.24873  0.50863  1.0000
  C   C993      1.0  0.84304  0.48389  0.54426  1.0000
  C   C994      1.0  0.50300  0.06024  0.59483  1.0000
  H   H1174     1.0  0.51243  0.48285  0.67371  1.0000
  C   C995      1.0  0.55224  0.34885  0.59223  1.0000
  C   C996      1.0  0.53463  0.35786  0.59670  1.0000
  C   C997      1.0  0.54606  0.31877  0.59131  1.0000
  S   S261      1.0  0.50694  0.41991  0.67307  1.0000
  S   S262      1.0  0.50326  0.10115  0.55157  1.0000
  S   S263      1.0  0.90395  0.42513  0.51987  1.0000
  C   C998      1.0  0.86800  0.46022  0.54092  1.0000
  H   H1175     1.0  0.51768  0.19324  0.54928  1.0000
  C   C999      1.0  0.89731  0.46379  0.59684  1.0000
  S   S264      1.0  0.51285  0.31186  0.56539  1.0000
  C   C1000     1.0  0.57006  0.19861  0.55715  1.0000
  H   H1176     1.0  0.56697  0.24372  0.51394  1.0000
  H   H1177     1.0  0.70732  0.47210  0.56686  1.0000
  H   H1178     1.0  0.89158  0.46703  0.52424  1.0000
  H   H1179     1.0  0.92462  0.47947  0.60128  1.0000
  C   C1001     1.0  0.53144  0.08099  0.51167  1.0000
  H   H1180     1.0  0.55420  0.15962  0.53646  1.0000
  C   C1002     1.0  0.60322  0.21129  0.51691  1.0000
  C   C1003     1.0  0.56275  0.22675  0.56979  1.0000
  Fe  Fe133     1.0  0.50223  0.30321  0.59450  1.0000
  C   C1004     1.0  0.59133  0.29946  0.51113  1.0000
  C   C1005     1.0  0.53835  0.16925  0.56863  1.0000
  S   S265      1.0  0.50922  0.14422  0.54021  1.0000
  H   H1181     1.0  0.56772  0.01983  0.50545  1.0000
  H   H1182     1.0  0.92501  0.45482  0.51493  1.0000
  C   C1006     1.0  0.53530  0.05439  0.58836  1.0000
  H   H1183     1.0  0.86237  0.47756  0.61836  1.0000
  H   H1184     1.0  0.73193  0.46429  0.58531  1.0000
  H   H1185     1.0  0.54719  0.02710  0.58965  1.0000
  H   H1186     1.0  0.58416  0.49362  0.68179  1.0000
  H   H1187     1.0  0.87278  0.38233  0.51749  1.0000
  C   C1007     1.0  0.86905  0.48934  0.61740  1.0000
  H   H1188     1.0  0.90223  0.47306  0.58472  1.0000
  H   H1189     1.0  0.55140  0.31387  0.60437  1.0000
  H   H1190     1.0  0.58011  0.34779  0.59754  1.0000
  H   H1191     1.0  0.56159  0.05134  0.51081  1.0000
  H   H1192     1.0  0.52671  0.17689  0.53499  1.0000
  H   H1193     1.0  0.70406  0.45584  0.59524  1.0000
  C   C1008     1.0  0.85046  0.46593  0.54830  1.0000
  H   H1194     1.0  0.70604  0.49295  0.65890  1.0000
  N   N69       1.0  0.55516  0.33398  0.58110  1.0000
  C   C1009     1.0  0.56007  0.31014  0.50800  1.0000
  S   S266      1.0  0.54062  0.39981  0.69516  1.0000
  H   H1195     1.0  0.55014  0.32935  0.55495  1.0000
  H   H1196     1.0  0.88307  0.46262  0.59595  1.0000
  H   H1197     1.0  0.53128  0.32266  0.59447  1.0000
  C   C1010     1.0  0.55151  0.19679  0.55832  1.0000
  H   H1198     1.0  0.53422  0.19874  0.53020  1.0000
  C   C1011     1.0  0.55954  0.17047  0.54154  1.0000
  S   S267      1.0  0.92760  0.50092  0.54331  1.0000
  H   H1199     1.0  0.88013  0.45349  0.62907  1.0000
  H   H1200     1.0  0.90823  0.49038  0.51780  1.0000
  C   C1012     1.0  0.70125  0.48391  0.60002  1.0000
  C   C1013     1.0  0.56633  0.35399  0.59992  1.0000
  H   H1201     1.0  0.61109  0.26364  0.50720  1.0000
  C   C1014     1.0  0.67694  0.47198  0.63052  1.0000
  C   C1015     1.0  0.68007  0.48993  0.62710  1.0000
  C   C1016     1.0  0.51777  0.02880  0.59639  1.0000
  H   H1202     1.0  0.61082  0.18318  0.52715  1.0000
  H   H1203     1.0  0.86976  0.40431  0.52410  1.0000
  N   N70       1.0  0.71409  0.48966  0.58406  1.0000
  H   H1204     1.0  0.52703  0.17632  0.57715  1.0000
  C   C1017     1.0  0.87125  0.49101  0.52564  1.0000
  S   S268      1.0  0.76533  0.42730  0.51378  1.0000
  H   H1205     1.0  0.52795  0.31840  0.62937  1.0000
  C   C1018     1.0  0.51985  0.33018  0.63406  1.0000
  C   C1019     1.0  0.90019  0.49660  0.50675  1.0000
  C   C1020     1.0  0.53132  0.37113  0.60812  1.0000
  C   C1021     1.0  0.91889  0.47111  0.61364  1.0000
  H   H1206     1.0  0.56584  0.17895  0.52953  1.0000
  N   N71       1.0  0.54519  0.18136  0.55246  1.0000
  C   C1022     1.0  0.68566  0.45990  0.61889  1.0000
  C   C1023     1.0  0.74724  0.48043  0.51588  1.0000
  H   H1207     1.0  0.73824  0.49090  0.50906  1.0000
  C   C1024     1.0  0.53450  0.03575  0.59136  1.0000
  H   H1208     1.0  0.53599  0.42721  0.74449  1.0000
  C   C1025     1.0  0.57936  0.24814  0.51697  1.0000
  H   H1209     1.0  0.52836  0.09534  0.51421  1.0000
  H   H1210     1.0  0.57642  0.26294  0.51737  1.0000
  H   H1211     1.0  0.51842  0.07536  0.51395  1.0000
  H   H1212     1.0  0.61314  0.24365  0.52291  1.0000
  C   C1026     1.0  0.50612  0.00458  0.58646  1.0000
  C   C1027     1.0  0.60555  0.19268  0.51626  1.0000
  H   H1213     1.0  0.53971  0.07370  0.52217  1.0000
  H   H1214     1.0  0.67334  0.49923  0.63633  1.0000
  H   H1215     1.0  0.86386  0.43492  0.50999  1.0000
  H   H1216     1.0  0.60294  0.49229  0.75119  1.0000
  H   H1217     1.0  0.84230  0.46213  0.51306  1.0000
  C   C1028     1.0  0.83807  0.45051  0.50903  1.0000
  H   H1218     1.0  0.51428  0.49151  0.71970  1.0000
  C   C1029     1.0  0.85036  0.43491  0.50703  1.0000
  H   H1219     1.0  0.81065  0.46305  0.50798  1.0000
  C   C1030     1.0  0.50666  0.00443  0.61820  1.0000
  Fe  Fe134     1.0  0.50252  0.26389  0.58714  1.0000
  C   C1031     1.0  0.85966  0.50321  0.57504  1.0000
  Fe  Fe135     1.0  0.52245  0.43635  0.87565  1.0000
  H   H1220     1.0  0.54101  0.44672  0.76623  1.0000
  S   S269      1.0  0.53900  0.42807  0.89903  1.0000
  C   C1032     1.0  0.62814  0.48074  0.96503  1.0000
  H   H1221     1.0  0.59165  0.47637  0.93427  1.0000
  S   S270      1.0  0.53420  0.45598  0.85303  1.0000
  H   H1222     1.0  0.56827  0.47670  0.76105  1.0000
  Fe  Fe136     1.0  0.50728  0.47242  0.85659  1.0000
  H   H1223     1.0  0.56524  0.41620  0.82612  1.0000
  C   C1033     1.0  0.57007  0.42446  0.83433  1.0000
  C   C1034     1.0  0.55902  0.48257  0.79771  1.0000
  H   H1224     1.0  0.65522  0.48088  0.97038  1.0000
  C   C1035     1.0  0.54851  0.49962  0.89754  1.0000
  H   H1225     1.0  0.56459  0.40662  0.85904  1.0000
  H   H1226     1.0  0.59501  0.45370  0.97238  1.0000
  H   H1227     1.0  0.60199  0.45888  0.79288  1.0000
  H   H1228     1.0  0.57206  0.49735  0.94991  1.0000
  S   S271      1.0  0.61480  0.49648  0.89137  1.0000
  C   C1036     1.0  0.53870  0.42714  0.93561  1.0000
  H   H1229     1.0  0.57515  0.46385  0.96231  1.0000
  C   C1037     1.0  0.60517  0.47060  0.78259  1.0000
  C   C1038     1.0  0.52848  0.42657  0.92175  1.0000
  H   H1230     1.0  0.52518  0.48120  0.93813  1.0000
  H   H1231     1.0  0.52361  0.40754  0.81059  1.0000
  N   N72       1.0  0.59531  0.48157  0.96066  1.0000
  H   H1232     1.0  0.53881  0.42613  0.96436  1.0000
  C   C1039     1.0  0.60456  0.48903  0.98883  1.0000
  C   C1040     1.0  0.60941  0.48386  0.97133  1.0000
  C   C1041     1.0  0.53944  0.48491  0.89775  1.0000
  C   C1042     1.0  0.52706  0.48575  0.88568  1.0000
  C   C1043     1.0  0.58222  0.49931  0.80235  1.0000
  C   C1044     1.0  0.52734  0.40611  0.76515  1.0000
  H   H1233     1.0  0.54243  0.47257  0.90682  1.0000
  H   H1234     1.0  0.52042  0.47416  0.88588  1.0000
  H   H1235     1.0  0.57623  0.44478  0.81205  1.0000
  C   C1045     1.0  0.53593  0.43401  0.77122  1.0000
  H   H1236     1.0  0.61010  0.48848  0.93437  1.0000
  S   S272      1.0  0.52903  0.45546  0.99410  1.0000
  C   C1046     1.0  0.53247  0.42857  0.78995  1.0000
  C   C1047     1.0  0.56968  0.41912  0.85284  1.0000
  H   H1237     1.0  0.63327  0.47710  0.95180  1.0000
  H   H1238     1.0  0.51974  0.38757  0.78883  1.0000
  H   H1239     1.0  0.55283  0.42860  0.93224  1.0000
  H   H1240     1.0  0.61287  0.47883  0.78866  1.0000
  C   C1048     1.0  0.58559  0.46644  0.97009  1.0000
  H   H1241     1.0  0.57854  0.46910  0.98359  1.0000
  C   C1049     1.0  0.53309  0.42298  0.75886  1.0000
  C   C1050     1.0  0.58043  0.46938  0.76685  1.0000
  C   C1051     1.0  0.50247  0.42263  0.94456  1.0000
  H   H1242     1.0  0.61163  0.46446  0.94242  1.0000
  C   C1052     1.0  0.51261  0.42342  0.95840  1.0000
  S   S273      1.0  0.53760  0.44216  0.80500  1.0000
  H   H1243     1.0  0.55335  0.47392  0.79069  1.0000
  H   H1244     1.0  0.59064  0.49145  0.99462  1.0000
  Fe  Fe137     1.0  0.52311  0.44238  0.83368  1.0000
  C   C1053     1.0  0.60257  0.47753  0.94214  1.0000
  C   C1054     1.0  0.57630  0.44065  0.82642  1.0000
  C   C1055     1.0  0.52615  0.41198  0.79622  1.0000
  N   N73       1.0  0.58856  0.48119  0.77638  1.0000
  H   H1245     1.0  0.53519  0.48386  0.81732  1.0000
  C   C1056     1.0  0.57647  0.48771  0.79201  1.0000
  N   N74       1.0  0.58668  0.45908  0.86711  1.0000
  C   C1057     1.0  0.57814  0.47797  0.86244  1.0000
  C   C1058     1.0  0.58168  0.45389  0.88685  1.0000
  C   C1059     1.0  0.60648  0.45857  0.86340  1.0000
  C   C1060     1.0  0.58111  0.44697  0.85604  1.0000
  C   C1061     1.0  0.58196  0.45169  0.83701  1.0000
  C   C1062     1.0  0.57526  0.43005  0.86358  1.0000
  C   C1063     1.0  0.64104  0.48282  0.97564  1.0000
  C   C1064     1.0  0.53079  0.42574  0.95383  1.0000
  S   S274      1.0  0.51424  0.42064  0.85586  1.0000
  H   H1246     1.0  0.58036  0.48694  0.87197  1.0000
  H   H1247     1.0  0.58379  0.48431  0.84893  1.0000
  H   H1248     1.0  0.56332  0.47858  0.86283  1.0000
  H   H1249     1.0  0.58911  0.44066  0.89193  1.0000
  H   H1250     1.0  0.56696  0.45310  0.89019  1.0000
  H   H1251     1.0  0.58480  0.46387  0.89486  1.0000
  H   H1252     1.0  0.61104  0.46337  0.84897  1.0000
  H   H1253     1.0  0.61140  0.46743  0.87143  1.0000
  H   H1254     1.0  0.61345  0.44461  0.86663  1.0000
  H   H1255     1.0  0.58677  0.46406  0.83024  1.0000
  H   H1256     1.0  0.57436  0.42510  0.87784  1.0000
  C   C1065     1.0  0.52393  0.40068  0.78386  1.0000
  H   H1257     1.0  0.63691  0.48732  0.80496  1.0000
  C   C1066     1.0  0.51026  0.42451  0.92631  1.0000
  C   C1067     1.0  0.54830  0.48833  0.81302  1.0000
  H   H1258     1.0  0.61450  0.46526  0.77119  1.0000
  C   C1068     1.0  0.59364  0.49679  0.76299  1.0000
  H   H1259     1.0  0.57674  0.45699  0.77589  1.0000
  C   C1069     1.0  0.61756  0.49118  0.99924  1.0000
  C   C1070     1.0  0.63576  0.48810  0.99267  1.0000
  S   S275      1.0  0.62436  0.50002  0.83909  1.0000
  H   H1260     1.0  0.51826  0.46153  0.95208  1.0000
  H   H1261     1.0  0.57445  0.50124  0.97191  1.0000
  C   C1071     1.0  0.52357  0.50133  0.87335  1.0000
  H   H1262     1.0  0.64578  0.49025  0.00061  1.0000
  C   C1072     1.0  0.58222  0.49830  0.95878  1.0000
  S   S276      1.0  0.50911  0.50159  0.85728  1.0000
  H   H1263     1.0  0.50464  0.49838  0.96018  1.0000
  C   C1073     1.0  0.63188  0.50152  0.80212  1.0000
  C   C1074     1.0  0.55443  0.49958  0.82293  1.0000
  C   C1075     1.0  0.51493  0.47177  0.94038  1.0000
  S   S277      1.0  0.56524  0.49749  0.91153  1.0000
  H   H1264     1.0  0.58991  0.46466  0.75524  1.0000
  S   S278      1.0  0.50202  0.42149  0.98113  1.0000
  H   H1265     1.0  0.50228  0.42383  0.91583  1.0000
  H   H1266     1.0  0.51677  0.46466  0.92830  1.0000
  Fe  Fe138     1.0  0.51183  0.43340  0.00299  1.0000
  H   H1267     1.0  0.63758  0.50222  0.77305  1.0000
  S   S279      1.0  0.61565  0.51744  0.04249  1.0000
  C   C1076     1.0  0.66286  0.58957  0.09132  1.0000
  C   C1077     1.0  0.52813  0.63240  0.02329  1.0000
  S   S280      1.0  0.51100  0.65469  0.06388  1.0000
  H   H1268     1.0  0.56014  0.58661  0.18746  1.0000
  C   C1078     1.0  0.63185  0.58617  0.10190  1.0000
  H   H1269     1.0  0.51130  0.68910  0.13661  1.0000
  Fe  Fe139     1.0  0.61830  0.53301  0.06479  1.0000
  S   S281      1.0  0.59044  0.54781  0.06535  1.0000
  S   S282      1.0  0.62782  0.51951  0.09141  1.0000
  Fe  Fe140     1.0  0.58874  0.53444  0.04155  1.0000
  Fe  Fe141     1.0  0.60291  0.56843  0.04462  1.0000
  S   S283      1.0  0.59332  0.59730  0.04802  1.0000
  S   S284      1.0  0.63117  0.55468  0.04546  1.0000
  Fe  Fe142     1.0  0.61395  0.54735  0.19000  1.0000
  S   S285      1.0  0.58934  0.53629  0.20507  1.0000
  S   S286      1.0  0.61087  0.55956  0.16093  1.0000
  Fe  Fe143     1.0  0.63396  0.53909  0.22396  1.0000
  S   S287      1.0  0.61049  0.52731  0.24112  1.0000
  S   S288      1.0  0.66182  0.53776  0.23304  1.0000
  H   H1270     1.0  0.50468  0.50663  0.03658  1.0000
  Fe  Fe144     1.0  0.59339  0.55098  0.22731  1.0000
  S   S289      1.0  0.56899  0.56482  0.24333  1.0000
  S   S290      1.0  0.63309  0.52384  0.20073  1.0000
  S   S291      1.0  0.61687  0.56384  0.21154  1.0000
  H   H1271     1.0  0.52642  0.62033  0.24561  1.0000
  H   H1272     1.0  0.54223  0.61646  0.18350  1.0000
  S   S292      1.0  0.53565  0.64327  0.21166  1.0000
  H   H1273     1.0  0.53600  0.66361  0.15650  1.0000
  H   H1274     1.0  0.59204  0.50527  0.13317  1.0000
  H   H1275     1.0  0.52165  0.63561  0.12782  1.0000
  H   H1276     1.0  0.59731  0.51640  0.16900  1.0000
  C   C1079     1.0  0.54298  0.61829  0.15436  1.0000
  C   C1080     1.0  0.55700  0.59269  0.17413  1.0000
  S   S293      1.0  0.50911  0.60193  0.06807  1.0000
  S   S294      1.0  0.59860  0.55646  0.02073  1.0000
  H   H1277     1.0  0.59176  0.60363  0.08599  1.0000
  H   H1278     1.0  0.58519  0.61426  0.11590  1.0000
  C   C1081     1.0  0.50483  0.56845  0.03143  1.0000
  C   C1082     1.0  0.59807  0.60654  0.11203  1.0000
  C   C1083     1.0  0.56114  0.58743  0.23547  1.0000
  C   C1084     1.0  0.56909  0.59633  0.21929  1.0000
  C   C1085     1.0  0.56161  0.61383  0.21255  1.0000
  C   C1086     1.0  0.54590  0.62235  0.22173  1.0000
  C   C1087     1.0  0.53827  0.61369  0.23823  1.0000
  C   C1088     1.0  0.54602  0.59634  0.24517  1.0000
  H   H1279     1.0  0.58093  0.58969  0.21188  1.0000
  H   H1280     1.0  0.56784  0.62063  0.20000  1.0000
  H   H1281     1.0  0.57173  0.57049  0.16131  1.0000
  H   H1282     1.0  0.52427  0.61908  0.02983  1.0000
  C   C1089     1.0  0.62148  0.52978  0.11127  1.0000
  C   C1090     1.0  0.61017  0.54622  0.11128  1.0000
  C   C1091     1.0  0.60650  0.55478  0.12687  1.0000
  C   C1092     1.0  0.61409  0.54707  0.14258  1.0000
  C   C1093     1.0  0.62485  0.53027  0.14283  1.0000
  C   C1094     1.0  0.62849  0.52165  0.12722  1.0000
  H   H1283     1.0  0.60463  0.55263  0.09914  1.0000
  H   H1284     1.0  0.59806  0.56769  0.12660  1.0000
  H   H1285     1.0  0.63090  0.52424  0.15481  1.0000
  C   C1095     1.0  0.61840  0.59059  0.09012  1.0000
  C   C1096     1.0  0.53262  0.60029  0.06373  1.0000
  C   C1097     1.0  0.54170  0.61379  0.06732  1.0000
  C   C1098     1.0  0.56036  0.61306  0.06231  1.0000
  C   C1099     1.0  0.56998  0.59860  0.05403  1.0000
  C   C1100     1.0  0.56090  0.58499  0.05070  1.0000
  C   C1101     1.0  0.54230  0.58575  0.05565  1.0000
  H   H1286     1.0  0.56813  0.57394  0.04401  1.0000
  H   H1287     1.0  0.53546  0.57512  0.05303  1.0000
  N   N75       1.0  0.64986  0.57633  0.09653  1.0000
  C   C1102     1.0  0.65029  0.56641  0.08099  1.0000
  C   C1103     1.0  0.51914  0.55741  0.02303  1.0000
  C   C1104     1.0  0.53019  0.64374  0.13309  1.0000
  Fe  Fe145     1.0  0.60852  0.51382  0.21727  1.0000
  H   H1288     1.0  0.58404  0.52628  0.14160  1.0000
  S   S295      1.0  0.56305  0.52563  0.03765  1.0000
  H   H1289     1.0  0.51030  0.58806  0.25106  1.0000
  C   C1105     1.0  0.54683  0.60977  0.17171  1.0000
  H   H1290     1.0  0.50670  0.65049  0.16092  1.0000
  H   H1291     1.0  0.64559  0.55390  0.11732  1.0000
  C   C1106     1.0  0.65598  0.56284  0.11168  1.0000
  H   H1292     1.0  0.51440  0.58724  0.20133  1.0000
  H   H1293     1.0  0.55680  0.64947  0.15062  1.0000
  C   C1107     1.0  0.51319  0.59246  0.21444  1.0000
  C   C1108     1.0  0.62769  0.59278  0.11881  1.0000
  H   H1294     1.0  0.52653  0.58897  0.21930  1.0000
  H   H1295     1.0  0.56734  0.62356  0.06504  1.0000
  H   H1296     1.0  0.66342  0.55784  0.07804  1.0000
  H   H1297     1.0  0.51593  0.63430  0.17790  1.0000
  C   C1109     1.0  0.55954  0.59126  0.14224  1.0000
  C   C1110     1.0  0.61097  0.60261  0.12383  1.0000
  H   H1298     1.0  0.53444  0.62463  0.07425  1.0000
  H   H1299     1.0  0.56444  0.50378  0.07370  1.0000
  H   H1300     1.0  0.63720  0.59039  0.12845  1.0000
  H   H1301     1.0  0.65913  0.56911  0.12291  1.0000
  N   N76       1.0  0.53298  0.63677  0.15210  1.0000
  H   H1302     1.0  0.56861  0.51410  0.13463  1.0000
  H   H1303     1.0  0.53421  0.63782  0.03344  1.0000
  H   H1304     1.0  0.66852  0.55397  0.10735  1.0000
  H   H1305     1.0  0.60800  0.60706  0.13703  1.0000
  C   C1111     1.0  0.54938  0.60834  0.13966  1.0000
  C   C1112     1.0  0.54303  0.64949  0.15825  1.0000
  H   H1306     1.0  0.62031  0.58655  0.07682  1.0000
  H   H1307     1.0  0.52317  0.65779  0.13175  1.0000
  H   H1308     1.0  0.51553  0.64153  0.02074  1.0000
  H   H1309     1.0  0.64841  0.57571  0.06826  1.0000
  H   H1310     1.0  0.56622  0.52612  0.17286  1.0000
  C   C1113     1.0  0.50990  0.52673  0.23762  1.0000
  N   N77       1.0  0.54067  0.63115  0.00633  1.0000
  H   H1311     1.0  0.56455  0.58401  0.13084  1.0000
  C   C1114     1.0  0.51873  0.55628  0.23676  1.0000
  H   H1312     1.0  0.54680  0.61346  0.12600  1.0000
  Fe  Fe146     1.0  0.62573  0.54056  0.02304  1.0000
  C   C1115     1.0  0.52246  0.53745  0.24003  1.0000
  H   H1313     1.0  0.51082  0.60752  0.21188  1.0000
  H   H1314     1.0  0.63976  0.55721  0.08372  1.0000
  H   H1315     1.0  0.65881  0.59992  0.07992  1.0000
  H   H1316     1.0  0.54457  0.50962  0.01561  1.0000
  C   C1116     1.0  0.58072  0.51245  0.14162  1.0000
  C   C1117     1.0  0.56350  0.58354  0.15941  1.0000
  H   H1317     1.0  0.67666  0.58290  0.08701  1.0000
  C   C1118     1.0  0.60178  0.60054  0.09523  1.0000
  H   H1318     1.0  0.66370  0.59693  0.10272  1.0000
  H   H1319     1.0  0.51272  0.51211  0.24032  1.0000
  Fe  Fe147     1.0  0.50799  0.65479  0.22387  1.0000
  H   H1320     1.0  0.53249  0.55603  0.02704  1.0000
  H   H1321     1.0  0.54454  0.64613  0.17284  1.0000
  H   H1322     1.0  0.54315  0.64431  0.12401  1.0000
  H   H1323     1.0  0.50736  0.62691  0.15975  1.0000
  H   H1324     1.0  0.56443  0.62357  0.01983  1.0000
  H   H1325     1.0  0.67718  0.50341  0.25010  1.0000
  H   H1326     1.0  0.55975  0.50507  0.18462  1.0000
  H   H1327     1.0  0.50767  0.57569  0.04163  1.0000
  H   H1328     1.0  0.52818  0.59839  0.00979  1.0000
  H   H1329     1.0  0.63727  0.50893  0.12732  1.0000
  H   H1330     1.0  0.55394  0.60501  0.01702  1.0000
  H   H1331     1.0  0.69695  0.53789  0.24290  1.0000
  C   C1119     1.0  0.51501  0.63703  0.16315  1.0000
  C   C1120     1.0  0.56293  0.51276  0.17095  1.0000
  H   H1332     1.0  0.57157  0.50629  0.22534  1.0000
  H   H1333     1.0  0.52883  0.56394  0.23920  1.0000
  H   H1334     1.0  0.59201  0.50920  0.08312  1.0000
  C   C1121     1.0  0.51626  0.54774  0.00980  1.0000
  C   C1122     1.0  0.55705  0.61856  0.01038  1.0000
  H   H1335     1.0  0.55037  0.51542  0.16458  1.0000
  H   H1336     1.0  0.53515  0.53117  0.24460  1.0000
  C   C1123     1.0  0.50229  0.56500  0.23075  1.0000
  H   H1337     1.0  0.55290  0.65404  0.01012  1.0000
  H   H1338     1.0  0.64718  0.50416  0.24794  1.0000
  C   C1124     1.0  0.56706  0.50427  0.03076  1.0000
  S   S296      1.0  0.50266  0.68025  0.01644  1.0000
  H   H1339     1.0  0.52698  0.75163  0.35181  1.0000
  Fe  Fe148     1.0  0.52056  0.95604  0.37420  1.0000
  S   S297      1.0  0.54826  0.94897  0.38216  1.0000
  H   H1340     1.0  0.51261  0.77429  0.42387  1.0000
  Fe  Fe149     1.0  0.57662  0.97623  0.45878  1.0000
  S   S298      1.0  0.59990  0.97219  0.43729  1.0000
  S   S299      1.0  0.55149  0.98982  0.44772  1.0000
  Fe  Fe150     1.0  0.59882  0.95924  0.48804  1.0000
  S   S300      1.0  0.62406  0.95434  0.46863  1.0000
  N   N78       1.0  0.00192  0.59506  0.40015  1.0000
  Fe  Fe151     1.0  0.61524  0.98280  0.45557  1.0000
  H   H1341     1.0  0.82740  0.59159  0.30686  1.0000
  Fe  Fe152     1.0  0.60599  0.94428  0.45260  1.0000
  S   S301      1.0  0.60952  0.91960  0.43771  1.0000
  S   S302      1.0  0.59145  0.98822  0.47636  1.0000
  S   S303      1.0  0.58125  0.94783  0.47279  1.0000
  Fe  Fe153     1.0  0.91821  0.61101  0.46171  1.0000
  S   S304      1.0  0.91704  0.63747  0.47163  1.0000
  C   C1125     1.0  0.74526  0.55193  0.49112  1.0000
  Fe  Fe154     1.0  0.93630  0.62494  0.42461  1.0000
  S   S305      1.0  0.93601  0.65279  0.43139  1.0000
  S   S306      1.0  0.94745  0.61603  0.39780  1.0000
  Fe  Fe155     1.0  0.94537  0.63778  0.45724  1.0000
  S   S307      1.0  0.96807  0.64102  0.47231  1.0000
  Fe  Fe156     1.0  0.90768  0.64949  0.44499  1.0000
  S   S308      1.0  0.88236  0.67001  0.44405  1.0000
  S   S309      1.0  0.94714  0.61007  0.44955  1.0000
  S   S310      1.0  0.90755  0.62283  0.43598  1.0000
  Fe  Fe157     1.0  0.88032  0.58318  0.36078  1.0000
  S   S311      1.0  0.89626  0.57168  0.33668  1.0000
  S   S312      1.0  0.87698  0.61190  0.36590  1.0000
  Fe  Fe158     1.0  0.90790  0.54980  0.35724  1.0000
  S   S313      1.0  0.93628  0.53487  0.35871  1.0000
  Fe  Fe159     1.0  0.87297  0.55559  0.33938  1.0000
  H   H1342     1.0  0.59622  0.75901  0.37293  1.0000
  S   S314      1.0  0.89350  0.56265  0.38107  1.0000
  S   S315      1.0  0.85635  0.56888  0.36190  1.0000
  H   H1343     1.0  0.94977  0.51078  0.45504  1.0000
  S   S316      1.0  0.52523  0.76532  0.38695  1.0000
  S   S317      1.0  0.52000  0.78865  0.33632  1.0000
  Fe  Fe160     1.0  0.72641  0.55776  0.35253  1.0000
  S   S318      1.0  0.72821  0.56711  0.32263  1.0000
  S   S319      1.0  0.71526  0.57753  0.37237  1.0000
  Fe  Fe161     1.0  0.71482  0.54294  0.32065  1.0000
  C   C1126     1.0  0.68985  0.75590  0.47694  1.0000
  Fe  Fe162     1.0  0.75434  0.54816  0.32155  1.0000
  S   S320      1.0  0.77919  0.55599  0.30321  1.0000
  H   H1344     1.0  0.77210  0.58414  0.35218  1.0000
  S   S321      1.0  0.75336  0.54046  0.35149  1.0000
  Fe  Fe163     1.0  0.77731  0.65313  0.45003  1.0000
  S   S322      1.0  0.76713  0.66584  0.42392  1.0000
  S   S323      1.0  0.80585  0.64298  0.45638  1.0000
  Fe  Fe164     1.0  0.74150  0.63838  0.46444  1.0000
  S   S324      1.0  0.72881  0.64953  0.43924  1.0000
  S   S325      1.0  0.72869  0.61920  0.48695  1.0000
  Fe  Fe165     1.0  0.75572  0.64013  0.42420  1.0000
  S   S326      1.0  0.76524  0.62262  0.40198  1.0000
  Fe  Fe166     1.0  0.74079  0.67465  0.44106  1.0000
  S   S327      1.0  0.72690  0.70360  0.43345  1.0000
  S   S328      1.0  0.76705  0.62713  0.44927  1.0000
  S   S329      1.0  0.75206  0.66374  0.46736  1.0000
  Fe  Fe167     1.0  0.61735  0.81151  0.45220  1.0000
  S   S330      1.0  0.63163  0.79593  0.42985  1.0000
  S   S331      1.0  0.62880  0.83442  0.46121  1.0000
  Fe  Fe168     1.0  0.58957  0.78504  0.46383  1.0000
  S   S332      1.0  0.60210  0.76744  0.44280  1.0000
  S   S333      1.0  0.56373  0.77707  0.48014  1.0000
  Fe  Fe169     1.0  0.62898  0.77074  0.45011  1.0000
  S   S334      1.0  0.64913  0.74586  0.45867  1.0000
  Fe  Fe170     1.0  0.60358  0.79373  0.42450  1.0000
  S   S335      1.0  0.59424  0.79892  0.39680  1.0000
  S   S336      1.0  0.61603  0.78644  0.47280  1.0000
  S   S337      1.0  0.58965  0.81128  0.44517  1.0000
  C   C1127     1.0  0.70459  0.71442  0.43972  1.0000
  C   C1128     1.0  0.69873  0.73146  0.43034  1.0000
  C   C1129     1.0  0.68164  0.74105  0.43549  1.0000
  C   C1130     1.0  0.67021  0.73383  0.45033  1.0000
  C   C1131     1.0  0.67602  0.71673  0.45962  1.0000
  C   C1132     1.0  0.69299  0.70704  0.45431  1.0000
  H   H1345     1.0  0.70756  0.73737  0.41907  1.0000
  H   H1346     1.0  0.67749  0.75413  0.42816  1.0000
  H   H1347     1.0  0.66736  0.71098  0.47112  1.0000
  H   H1348     1.0  0.69724  0.69402  0.46174  1.0000
  H   H1349     1.0  0.68104  0.79653  0.43747  1.0000
  S   S338      1.0  0.88617  0.53249  0.35737  1.0000
  C   C1133     1.0  0.86980  0.62720  0.48610  1.0000
  C   C1134     1.0  0.56414  0.73439  0.36721  1.0000
  Fe  Fe171     1.0  0.73823  0.51850  0.34728  1.0000
  H   H1350     1.0  0.71330  0.59486  0.47043  1.0000
  C   C1135     1.0  0.72910  0.58935  0.38158  1.0000
  C   C1136     1.0  0.72172  0.60561  0.38814  1.0000
  C   C1137     1.0  0.73250  0.61559  0.39518  1.0000
  C   C1138     1.0  0.75080  0.60942  0.39551  1.0000
  C   C1139     1.0  0.75809  0.59293  0.38937  1.0000
  C   C1140     1.0  0.74721  0.58280  0.38267  1.0000
  H   H1351     1.0  0.70765  0.61067  0.38749  1.0000
  H   H1352     1.0  0.72678  0.62834  0.39978  1.0000
  H   H1353     1.0  0.77224  0.58805  0.38966  1.0000
  H   H1354     1.0  0.75285  0.56999  0.37818  1.0000
  C   C1141     1.0  0.54425  0.77493  0.38962  1.0000
  C   C1142     1.0  0.55177  0.77020  0.40581  1.0000
  C   C1143     1.0  0.56693  0.77766  0.40828  1.0000
  C   C1144     1.0  0.57507  0.78942  0.39432  1.0000
  C   C1145     1.0  0.56779  0.79380  0.37797  1.0000
  C   C1146     1.0  0.55223  0.78687  0.37573  1.0000
  H   H1355     1.0  0.54587  0.76075  0.41653  1.0000
  H   H1356     1.0  0.57242  0.77413  0.42093  1.0000
  H   H1357     1.0  0.57430  0.80252  0.36698  1.0000
  H   H1358     1.0  0.54675  0.79032  0.36306  1.0000
  C   C1147     1.0  0.58665  0.87153  0.49359  1.0000
  C   C1148     1.0  0.55257  0.89670  0.34920  1.0000
  C   C1149     1.0  0.63493  0.98414  0.40393  1.0000
  H   H1359     1.0  0.63549  0.99824  0.40469  1.0000
  C   C1150     1.0  0.57653  0.74081  0.37565  1.0000
  H   H1360     1.0  0.79085  0.51091  0.35653  1.0000
  H   H1361     1.0  0.60652  0.92791  0.39923  1.0000
  C   C1151     1.0  0.50251  0.72012  0.27456  1.0000
  H   H1362     1.0  0.64260  0.54144  0.26957  1.0000
  H   H1363     1.0  0.56752  0.71053  0.33362  1.0000
  C   C1152     1.0  0.58692  0.75377  0.36618  1.0000
  C   C1153     1.0  0.80165  0.55270  0.30820  1.0000
  C   C1154     1.0  0.80623  0.55111  0.32578  1.0000
  C   C1155     1.0  0.82442  0.55078  0.32837  1.0000
  C   C1156     1.0  0.87161  0.52244  0.41945  1.0000
  S   S339      1.0  0.68885  0.54215  0.30858  1.0000
  H   H1364     1.0  0.79581  0.55066  0.33724  1.0000
  H   H1365     1.0  0.82795  0.55008  0.34179  1.0000
  H   H1366     1.0  0.99415  0.51072  0.42321  1.0000
  H   H1367     1.0  0.75463  0.58567  0.43839  1.0000
  H   H1368     1.0  0.65947  0.80445  0.44863  1.0000
  S   S340      1.0  0.85654  0.53170  0.40408  1.0000
  C   C1157     1.0  0.98970  0.64535  0.46134  1.0000
  C   C1158     1.0  0.65687  0.54093  0.26995  1.0000
  N   N79       1.0  0.67736  0.78856  0.46646  1.0000
  C   C1159     1.0  0.58486  0.76048  0.34827  1.0000
  H   H1369     1.0  0.66592  0.78222  0.49428  1.0000
  H   H1370     1.0  0.93778  0.57700  0.40467  1.0000
  C   C1160     1.0  0.92914  0.61734  0.38592  1.0000
  C   C1161     1.0  0.92914  0.60489  0.37414  1.0000
  C   C1162     1.0  0.91326  0.60370  0.36730  1.0000
  C   C1163     1.0  0.89751  0.61524  0.37195  1.0000
  C   C1164     1.0  0.89786  0.62839  0.38286  1.0000
  C   C1165     1.0  0.91365  0.62943  0.38986  1.0000
  H   H1371     1.0  0.94113  0.59555  0.37106  1.0000
  H   H1372     1.0  0.91316  0.59359  0.35875  1.0000
  H   H1373     1.0  0.88583  0.63730  0.38656  1.0000
  H   H1374     1.0  0.91374  0.63940  0.39859  1.0000
  C   C1166     1.0  0.86092  0.66304  0.44515  1.0000
  C   C1167     1.0  0.85915  0.64525  0.44362  1.0000
  C   C1168     1.0  0.84204  0.63966  0.44600  1.0000
  C   C1169     1.0  0.82643  0.65183  0.44966  1.0000
  C   C1170     1.0  0.82808  0.66977  0.45071  1.0000
  C   C1171     1.0  0.84529  0.67535  0.44841  1.0000
  H   H1375     1.0  0.87096  0.63567  0.44101  1.0000
  H   H1376     1.0  0.84089  0.62569  0.44555  1.0000
  H   H1377     1.0  0.81617  0.67917  0.45397  1.0000
  H   H1378     1.0  0.84652  0.68915  0.44964  1.0000
  H   H1379     1.0  0.56306  0.91345  0.49690  1.0000
  H   H1380     1.0  0.55703  0.82663  0.39139  1.0000
  H   H1381     1.0  0.86687  0.61832  0.47686  1.0000
  H   H1382     1.0  0.55612  0.72463  0.37527  1.0000
  C   C1172     1.0  0.93264  0.55602  0.42686  1.0000
  H   H1383     1.0  0.90714  0.59178  0.40677  1.0000
  H   H1384     1.0  0.63297  0.93346  0.40332  1.0000
  H   H1385     1.0  0.75046  0.52301  0.49728  1.0000
  C   C1173     1.0  0.61405  0.89604  0.44548  1.0000
  C   C1174     1.0  0.62580  0.88921  0.45825  1.0000
  C   C1175     1.0  0.63014  0.87035  0.46292  1.0000
  C   C1176     1.0  0.62267  0.85808  0.45503  1.0000
  C   C1177     1.0  0.61076  0.86493  0.44243  1.0000
  C   C1178     1.0  0.60664  0.88377  0.43756  1.0000
  H   H1386     1.0  0.63199  0.89844  0.46411  1.0000
  H   H1387     1.0  0.63945  0.86523  0.47260  1.0000
  H   H1388     1.0  0.60496  0.85570  0.43617  1.0000
  H   H1389     1.0  0.59773  0.88887  0.42750  1.0000
  C   C1179     1.0  0.54900  0.96046  0.40030  1.0000
  C   C1180     1.0  0.54380  0.97916  0.39898  1.0000
  C   C1181     1.0  0.54457  0.98828  0.41353  1.0000
  C   C1182     1.0  0.55059  0.97868  0.42937  1.0000
  C   C1183     1.0  0.55595  0.96004  0.43056  1.0000
  C   C1184     1.0  0.55504  0.95093  0.41610  1.0000
  H   H1390     1.0  0.53960  0.98665  0.38659  1.0000
  C   C1185     1.0  0.74608  0.53434  0.48748  1.0000
  H   H1391     1.0  0.56055  0.95253  0.44275  1.0000
  H   H1392     1.0  0.55897  0.93646  0.41723  1.0000
  H   H1393     1.0  0.65434  0.94239  0.41995  1.0000
  H   H1394     1.0  0.55309  0.70641  0.35457  1.0000
  H   H1395     1.0  0.57159  0.84344  0.38284  1.0000
  H   H1396     1.0  0.59455  0.90700  0.48242  1.0000
  H   H1397     1.0  0.73185  0.54267  0.44645  1.0000
  H   H1398     1.0  0.73888  0.57995  0.48219  1.0000
  H   H1399     1.0  0.96173  0.57234  0.49103  1.0000
  C   C1186     1.0  0.90200  0.51645  0.42713  1.0000
  N   N80       1.0  0.81895  0.63827  0.39339  1.0000
  C   C1187     1.0  0.81120  0.62945  0.41125  1.0000
  C   C1188     1.0  0.80409  0.64593  0.38263  1.0000
  C   C1189     1.0  0.83044  0.62396  0.38392  1.0000
  C   C1190     1.0  0.82877  0.65297  0.39591  1.0000
  C   C1191     1.0  0.84736  0.65343  0.38954  1.0000
  C   C1192     1.0  0.81965  0.66753  0.40488  1.0000
  C   C1193     1.0  0.85623  0.66738  0.39250  1.0000
  C   C1194     1.0  0.82860  0.68151  0.40754  1.0000
  C   C1195     1.0  0.84691  0.68131  0.40158  1.0000
  H   H1400     1.0  0.80101  0.63882  0.41859  1.0000
  H   H1401     1.0  0.80412  0.61796  0.40997  1.0000
  H   H1402     1.0  0.82178  0.62435  0.42017  1.0000
  H   H1403     1.0  0.79360  0.65514  0.38988  1.0000
  H   H1404     1.0  0.79695  0.63517  0.37964  1.0000
  H   H1405     1.0  0.80920  0.65373  0.36959  1.0000
  H   H1406     1.0  0.84175  0.61736  0.39147  1.0000
  H   H1407     1.0  0.82273  0.61305  0.38235  1.0000
  H   H1408     1.0  0.83629  0.62947  0.37008  1.0000
  H   H1409     1.0  0.85539  0.64319  0.38224  1.0000
  H   H1410     1.0  0.80556  0.66811  0.41018  1.0000
  H   H1411     1.0  0.87049  0.66739  0.38783  1.0000
  H   H1412     1.0  0.82140  0.69231  0.41474  1.0000
  H   H1413     1.0  0.85395  0.69186  0.40419  1.0000
  H   H1414     1.0  0.52915  0.72953  0.36424  1.0000
  C   C1196     1.0  0.91808  0.56970  0.48399  1.0000
  H   H1415     1.0  0.52347  0.78535  0.47417  1.0000
  H   H1416     1.0  0.70993  0.78621  0.44467  1.0000
  H   H1417     1.0  0.87374  0.57637  0.46069  1.0000
  C   C1197     1.0  0.69167  0.77283  0.46601  1.0000
  H   H1418     1.0  0.69509  0.80918  0.45894  1.0000
  H   H1419     1.0  0.52198  0.85119  0.39481  1.0000
  H   H1420     1.0  0.96505  0.60445  0.48945  1.0000
  H   H1421     1.0  0.76439  0.62470  0.49242  1.0000
  H   H1422     1.0  0.52523  0.83163  0.38375  1.0000
  C   C1198     1.0  0.98907  0.55926  0.35418  1.0000
  H   H1423     1.0  0.52234  0.73585  0.27940  1.0000
  H   H1424     1.0  0.67392  0.81640  0.47106  1.0000
  H   H1425     1.0  0.57985  0.79692  0.50200  1.0000
  C   C1199     1.0  0.98697  0.52548  0.31508  1.0000
  S   S341      1.0  0.50571  0.75871  0.30601  1.0000
  C   C1200     1.0  0.83917  0.63994  0.49362  1.0000
  C   C1201     1.0  0.91420  0.55784  0.49978  1.0000
  C   C1202     1.0  0.69382  0.53983  0.27143  1.0000
  H   H1426     1.0  0.65566  0.97473  0.42092  1.0000
  C   C1203     1.0  0.99235  0.65414  0.44359  1.0000
  C   C1204     1.0  0.81239  0.51263  0.37134  1.0000
  H   H1427     1.0  0.51402  0.98407  0.43656  1.0000
  H   H1428     1.0  0.91621  0.51743  0.42342  1.0000
  H   H1429     1.0  0.72361  0.50786  0.38726  1.0000
  H   H1430     1.0  0.70044  0.58068  0.46227  1.0000
  C   C1205     1.0  0.97333  0.56202  0.30880  1.0000
  N   N81       1.0  0.60697  0.95528  0.38508  1.0000
  C   C1206     1.0  0.59281  0.97031  0.37986  1.0000
  C   C1207     1.0  0.61608  0.94800  0.36852  1.0000
  C   C1208     1.0  0.59768  0.94097  0.39695  1.0000
  C   C1209     1.0  0.62061  0.96089  0.39435  1.0000
  C   C1210     1.0  0.62225  0.97934  0.39458  1.0000
  C   C1211     1.0  0.63306  0.94775  0.40318  1.0000
  H   H1431     1.0  0.99236  0.59275  0.42862  1.0000
  C   C1212     1.0  0.64554  0.95271  0.41263  1.0000
  H   H1432     1.0  0.89512  0.52937  0.40136  1.0000
  S   S342      1.0  0.95683  0.51890  0.49755  1.0000
  H   H1433     1.0  0.58221  0.96554  0.37382  1.0000
  H   H1434     1.0  0.58584  0.97658  0.39188  1.0000
  H   H1435     1.0  0.62324  0.95833  0.35920  1.0000
  H   H1436     1.0  0.59247  0.94516  0.41044  1.0000
  H   H1437     1.0  0.58609  0.93780  0.39116  1.0000
  H   H1438     1.0  0.57776  0.73609  0.38977  1.0000
  H   H1439     1.0  0.54428  0.70798  0.33376  1.0000
  H   H1440     1.0  0.60629  0.94360  0.36111  1.0000
  C   C1213     1.0  0.55362  0.71377  0.34060  1.0000
  H   H1441     1.0  0.51985  0.73345  0.34337  1.0000
  C   C1214     1.0  0.51389  0.78243  0.46612  1.0000
  H   H1442     1.0  0.84362  0.55313  0.28455  1.0000
  H   H1443     1.0  0.61356  0.99034  0.38816  1.0000
  H   H1444     1.0  0.81611  0.63065  0.34361  1.0000
  H   H1445     1.0  0.59271  0.77088  0.34113  1.0000
  H   H1446     1.0  0.55362  0.84722  0.40076  1.0000
  C   C1215     1.0  0.90995  0.57991  0.41640  1.0000
  H   H1447     1.0  0.93636  0.57465  0.45958  1.0000
  S   S343      1.0  0.51267  0.95438  0.34714  1.0000
  C   C1216     1.0  0.90196  0.55739  0.44171  1.0000
  C   C1217     1.0  0.56180  0.74077  0.34891  1.0000
  C   C1218     1.0  0.57248  0.75418  0.33968  1.0000
  H   H1448     1.0  0.57139  0.76020  0.32590  1.0000
  C   C1219     1.0  0.82067  0.50589  0.38669  1.0000
  H   H1449     1.0  0.74079  0.61589  0.34315  1.0000
  S   S344      1.0  0.71115  0.53499  0.35093  1.0000
  H   H1450     1.0  0.54311  0.75647  0.31992  1.0000
  H   H1451     1.0  0.73729  0.60436  0.43454  1.0000
  H   H1452     1.0  0.73590  0.56836  0.42456  1.0000
  C   C1220     1.0  0.94155  0.53798  0.49177  1.0000
  C   C1221     1.0  0.50863  0.73295  0.28311  1.0000
  H   H1453     1.0  0.51697  0.85316  0.37209  1.0000
  C   C1222     1.0  0.89569  0.50795  0.44418  1.0000
  H   H1454     1.0  0.62624  0.93606  0.37167  1.0000
  H   H1455     1.0  0.88162  0.60835  0.41835  1.0000
  H   H1456     1.0  0.95911  0.52093  0.32040  1.0000
  H   H1457     1.0  0.88060  0.52117  0.48801  1.0000
  C   C1223     1.0  0.68174  0.54137  0.28724  1.0000
  H   H1458     1.0  0.98953  0.61801  0.38304  1.0000
  N   N82       1.0  0.54869  0.73356  0.34027  1.0000
  H   H1459     1.0  0.51310  0.90359  0.34226  1.0000
  H   H1460     1.0  0.69073  0.80163  0.48277  1.0000
  H   H1461     1.0  0.65372  0.54301  0.29845  1.0000
  H   H1462     1.0  0.83406  0.63264  0.48423  1.0000
  C   C1224     1.0  0.66325  0.54180  0.28636  1.0000
  C   C1225     1.0  0.73946  0.56659  0.47865  1.0000
  H   H1463     1.0  0.87694  0.59361  0.40364  1.0000
  C   C1226     1.0  0.91977  0.54902  0.44021  1.0000
  C   C1227     1.0  0.72373  0.57519  0.43224  1.0000
  C   C1228     1.0  0.50730  0.77606  0.43764  1.0000
  H   H1464     1.0  0.53340  0.78082  0.44251  1.0000
  C   C1229     1.0  0.83800  0.55147  0.31346  1.0000
  C   C1230     1.0  0.81530  0.55349  0.29352  1.0000
  H   H1465     1.0  0.81196  0.55487  0.27993  1.0000
  C   C1231     1.0  0.83329  0.55260  0.29614  1.0000
  S   S345      1.0  0.51235  0.84126  0.33142  1.0000
  H   H1466     1.0  0.67781  0.75340  0.48609  1.0000
  H   H1467     1.0  0.85944  0.52106  0.50217  1.0000
  S   S346      1.0  0.86111  0.55091  0.31522  1.0000
  C   C1232     1.0  0.68465  0.80458  0.46996  1.0000
  H   H1468     1.0  0.96622  0.51863  0.43731  1.0000
  H   H1469     1.0  0.99403  0.56959  0.39702  1.0000
  Fe  Fe172     1.0  0.50902  0.77952  0.36491  1.0000
  H   H1470     1.0  0.88291  0.62146  0.49078  1.0000
  C   C1233     1.0  0.53041  0.73710  0.35035  1.0000
  H   H1471     1.0  0.60301  0.91772  0.49801  1.0000
  C   C1234     1.0  0.72116  0.75909  0.45251  1.0000
  C   C1235     1.0  0.96839  0.53085  0.31635  1.0000
  H   H1472     1.0  0.78414  0.62839  0.34704  1.0000
  H   H1473     1.0  0.76283  0.62145  0.30495  1.0000
  C   C1236     1.0  0.74156  0.59251  0.44446  1.0000
  C   C1237     1.0  0.79740  0.50551  0.36843  1.0000
  H   H1474     1.0  0.97561  0.59128  0.41454  1.0000
  H   H1475     1.0  0.54886  0.82560  0.36136  1.0000
  C   C1238     1.0  0.51240  0.87631  0.33720  1.0000
  H   H1476     1.0  0.65484  0.77433  0.47808  1.0000
  C   C1239     1.0  0.70339  0.74116  0.47565  1.0000
  C   C1240     1.0  0.93353  0.56561  0.47193  1.0000
  C   C1241     1.0  0.71109  0.58967  0.45812  1.0000
  C   C1242     1.0  0.52658  0.84632  0.38158  1.0000
  C   C1243     1.0  0.59909  0.90465  0.49602  1.0000
  C   C1244     1.0  0.54778  0.74167  0.32114  1.0000
  C   C1245     1.0  0.55261  0.87797  0.35274  1.0000
  S   S347      1.0  0.90372  0.58980  0.47977  1.0000
  C   C1246     1.0  0.54608  0.86938  0.37014  1.0000
  H   H1477     1.0  0.85932  0.60338  0.41912  1.0000
  C   C1247     1.0  0.95600  0.54498  0.35825  1.0000
  C   C1248     1.0  0.99505  0.60352  0.38298  1.0000
  H   H1478     1.0  0.86629  0.55628  0.44053  1.0000
  H   H1479     1.0  0.95735  0.54684  0.46657  1.0000
  H   H1480     1.0  0.70807  0.53946  0.27179  1.0000
  C   C1249     1.0  0.86531  0.51364  0.43641  1.0000
  N   N83       1.0  0.72782  0.57995  0.44933  1.0000
  N   N84       1.0  0.54526  0.84967  0.37424  1.0000
  C   C1250     1.0  0.55073  0.84010  0.35818  1.0000
  H   H1481     1.0  0.68122  0.51339  0.33977  1.0000
  C   C1251     1.0  0.94522  0.54966  0.47574  1.0000
  C   C1252     1.0  0.67049  0.79283  0.44877  1.0000
  H   H1482     1.0  0.74179  0.51762  0.46858  1.0000
  C   C1253     1.0  0.98829  0.54091  0.36041  1.0000
  H   H1483     1.0  0.56517  0.84057  0.35277  1.0000
  H   H1484     1.0  0.98373  0.59695  0.38031  1.0000
  H   H1485     1.0  0.70144  0.72818  0.48359  1.0000
  H   H1486     1.0  0.90793  0.50706  0.49829  1.0000
  H   H1487     1.0  0.58737  0.84787  0.48083  1.0000
  C   C1254     1.0  0.71895  0.74272  0.46342  1.0000
  H   H1488     1.0  0.52590  0.87498  0.33004  1.0000
  H   H1489     1.0  0.98906  0.56105  0.47620  1.0000
  H   H1490     1.0  0.56098  0.73925  0.31259  1.0000
  H   H1491     1.0  0.53797  0.73581  0.31499  1.0000
  Fe  Fe173     1.0  0.87114  0.54697  0.37975  1.0000
  C   C1255     1.0  0.86564  0.56804  0.42968  1.0000
  H   H1492     1.0  0.97340  0.58481  0.34617  1.0000
  H   H1493     1.0  0.66512  0.78095  0.44559  1.0000
  N   N85       1.0  0.85502  0.62911  0.50127  1.0000
  C   C1256     1.0  0.97303  0.57057  0.35087  1.0000
  C   C1257     1.0  0.79939  0.59847  0.31685  1.0000
  H   H1494     1.0  0.77240  0.57685  0.33092  1.0000
  C   C1258     1.0  0.73544  0.54597  0.45867  1.0000
  H   H1495     1.0  0.99547  0.51787  0.49542  1.0000
  H   H1496     1.0  0.75573  0.63260  0.33584  1.0000
  H   H1497     1.0  0.74591  0.60699  0.31433  1.0000
  H   H1498     1.0  0.76718  0.59747  0.30442  1.0000
  H   H1499     1.0  0.75134  0.58458  0.34313  1.0000
  H   H1500     1.0  0.83227  0.51162  0.38895  1.0000
  H   H1501     1.0  0.96791  0.57623  0.30697  1.0000
  H   H1502     1.0  0.87211  0.64050  0.47797  1.0000
  C   C1259     1.0  0.54024  0.88064  0.38382  1.0000
  N   N86       1.0  0.76723  0.60572  0.33062  1.0000
  H   H1503     1.0  0.53549  0.87506  0.39746  1.0000
  C   C1260     1.0  0.76057  0.60807  0.31282  1.0000
  C   C1261     1.0  0.76565  0.58705  0.33962  1.0000
  C   C1262     1.0  0.50231  0.86178  0.33953  1.0000
  H   H1504     1.0  0.55753  0.87059  0.34150  1.0000
  H   H1505     1.0  0.86964  0.56262  0.41660  1.0000
  C   C1263     1.0  0.89643  0.57304  0.42974  1.0000
  C   C1264     1.0  0.92775  0.57147  0.41504  1.0000
  C   C1265     1.0  0.99819  0.57059  0.47646  1.0000
  C   C1266     1.0  0.87220  0.58761  0.44939  1.0000
  C   C1267     1.0  0.98747  0.59797  0.41539  1.0000
  H   H1506     1.0  0.72901  0.73100  0.46190  1.0000
  H   H1507     1.0  0.94715  0.55318  0.31468  1.0000
  S   S348      1.0  0.50462  0.98305  0.37767  1.0000
  C   C1268     1.0  0.75512  0.61825  0.34182  1.0000
  H   H1508     1.0  0.81757  0.52344  0.36170  1.0000
  H   H1509     1.0  0.71284  0.56644  0.43468  1.0000
  H   H1510     1.0  0.70568  0.60168  0.44899  1.0000
  H   H1511     1.0  0.71886  0.58742  0.42309  1.0000
  C   C1269     1.0  0.87370  0.59736  0.41753  1.0000
  H   H1512     1.0  0.89254  0.55144  0.45234  1.0000
  H   H1513     1.0  0.94643  0.54955  0.42569  1.0000
  C   C1270     1.0  0.78640  0.60855  0.32825  1.0000
  H   H1514     1.0  0.51152  0.71330  0.26451  1.0000
  C   C1271     1.0  0.66176  0.78548  0.48054  1.0000
  C   C1272     1.0  0.88999  0.52347  0.41471  1.0000
  H   H1515     1.0  0.92355  0.53706  0.44953  1.0000
  H   H1516     1.0  0.98102  0.65827  0.43609  1.0000
  S   S349      1.0  0.74122  0.52484  0.31702  1.0000
  C   C1273     1.0  0.79294  0.62027  0.33794  1.0000
  H   H1517     1.0  0.75842  0.61628  0.35588  1.0000
  H   H1518     1.0  0.79549  0.58914  0.30924  1.0000
  H   H1519     1.0  0.88085  0.59763  0.45116  1.0000
  H   H1520     1.0  0.59832  0.98089  0.36946  1.0000
  C   C1274     1.0  0.54038  0.89936  0.38014  1.0000
  N   N87       1.0  0.87738  0.58147  0.43143  1.0000
  C   C1275     1.0  0.81135  0.62163  0.33621  1.0000
  H   H1521     1.0  0.55718  0.90304  0.33574  1.0000
  C   C1276     1.0  0.81774  0.59978  0.31539  1.0000
  H   H1522     1.0  0.59597  0.87688  0.48255  1.0000
  H   H1523     1.0  0.73310  0.76006  0.44267  1.0000
  C   C1277     1.0  0.54637  0.90736  0.36283  1.0000
  H   H1524     1.0  0.53581  0.90780  0.39070  1.0000
  H   H1525     1.0  0.94443  0.57225  0.34981  1.0000
  H   H1526     1.0  0.97162  0.51948  0.36636  1.0000
  H   H1527     1.0  0.74411  0.59825  0.45631  1.0000
  C   C1278     1.0  0.82372  0.61131  0.32507  1.0000
  H   H1528     1.0  0.85112  0.51249  0.43998  1.0000
  C   C1279     1.0  0.73435  0.56411  0.46203  1.0000
  C   C1280     1.0  0.55734  0.84145  0.38788  1.0000
  H   H1529     1.0  0.54624  0.92188  0.35996  1.0000
  C   C1281     1.0  0.70778  0.77396  0.45376  1.0000
  H   H1530     1.0  0.65135  0.79765  0.48063  1.0000
  H   H1531     1.0  0.83801  0.61216  0.32397  1.0000
  H   H1532     1.0  0.85125  0.57400  0.43018  1.0000
  C   C1282     1.0  0.74120  0.53137  0.47129  1.0000
  C   C1283     1.0  0.99583  0.58193  0.49018  1.0000
  H   H1533     1.0  0.85796  0.59406  0.45123  1.0000
  C   C1284     1.0  0.51947  0.77989  0.44820  1.0000
  H   H1534     1.0  0.67487  0.50909  0.31273  1.0000
  H   H1535     1.0  0.54236  0.84584  0.34725  1.0000
  H   H1536     1.0  0.84250  0.65303  0.48571  1.0000
  C   C1285     1.0  0.97191  0.53380  0.36222  1.0000
  C   C1286     1.0  0.55624  0.78474  0.50110  1.0000
  C   C1287     1.0  0.96159  0.54907  0.31312  1.0000
  C   C1288     1.0  0.95655  0.56350  0.35299  1.0000
  H   H1537     1.0  0.51555  0.98964  0.46617  1.0000
  H   H1538     1.0  0.96932  0.51838  0.46040  1.0000
  C   C1289     1.0  0.96455  0.51082  0.45105  1.0000
  H   H1539     1.0  0.98229  0.61256  0.41555  1.0000
  C   C1290     1.0  0.99194  0.55684  0.30770  1.0000
  C   C1291     1.0  0.87225  0.51247  0.49820  1.0000
  H   H1540     1.0  0.99153  0.51120  0.31790  1.0000
  C   C1292     1.0  0.74340  0.60802  0.50231  1.0000
  C   C1293     1.0  0.76017  0.61355  0.50219  1.0000
  H   H1541     1.0  0.61156  0.89473  0.49582  1.0000
  C   C1294     1.0  0.64637  0.97087  0.41313  1.0000
  H   H1542     1.0  0.54016  0.58967  0.25797  1.0000
  C   C1295     1.0  0.50514  0.89260  0.34402  1.0000
  C   C1296     1.0  0.87743  0.50605  0.44865  1.0000
  C   C1297     1.0  0.58164  0.85479  0.49233  1.0000
  C   C1298     1.0  0.99936  0.53831  0.31064  1.0000
  H   H1543     1.0  0.00013  0.56767  0.30497  1.0000
  H   H1544     1.0  0.00033  0.53204  0.36344  1.0000
  C   C1299     1.0  0.66892  0.53962  0.25410  1.0000
  H   H1545     1.0  0.70523  0.50560  0.31618  1.0000
  H   H1546     1.0  0.54073  0.00275  0.41241  1.0000
  C   C1300     1.0  0.68744  0.53895  0.25502  1.0000
  C   C1301     1.0  0.96973  0.60067  0.50298  1.0000
  H   H1547     1.0  0.74905  0.55421  0.50374  1.0000
  C   C1302     1.0  0.92603  0.54207  0.50375  1.0000
  S   S350      1.0  0.73000  0.54093  0.61257  1.0000
  H   H1548     1.0  0.53249  0.98290  0.60176  1.0000
  H   H1549     1.0  0.56093  0.87887  0.53363  1.0000
  C   C1303     1.0  0.68603  0.53626  0.65123  1.0000
  C   C1304     1.0  0.50781  0.58280  0.68637  1.0000
  N   N88       1.0  0.52540  0.58257  0.69272  1.0000
  C   C1305     1.0  0.58039  0.74818  0.51949  1.0000
  S   S351      1.0  0.89705  0.53855  0.56526  1.0000
  S   S352      1.0  0.94851  0.53566  0.54292  1.0000
  S   S353      1.0  0.78056  0.54471  0.58774  1.0000
  Fe  Fe174     1.0  0.77493  0.55297  0.55909  1.0000
  S   S354      1.0  0.78006  0.58047  0.54426  1.0000
  S   S355      1.0  0.63881  0.54577  0.70465  1.0000
  Fe  Fe175     1.0  0.61170  0.54678  0.69581  1.0000
  S   S356      1.0  0.59860  0.57243  0.68058  1.0000
  S   S357      1.0  0.53633  0.80231  0.55659  1.0000
  S   S358      1.0  0.55234  0.63523  0.72026  1.0000
  C   C1306     1.0  0.54381  0.79562  0.53519  1.0000
  C   C1307     1.0  0.53321  0.78641  0.52724  1.0000
  C   C1308     1.0  0.74795  0.58538  0.58318  1.0000
  C   C1309     1.0  0.55293  0.55948  0.68593  1.0000
  Fe  Fe176     1.0  0.50449  0.96204  0.56572  1.0000
  H   H1550     1.0  0.52018  0.78354  0.53411  1.0000
  C   C1310     1.0  0.56067  0.79935  0.52608  1.0000
  C   C1311     1.0  0.58463  0.58923  0.69176  1.0000
  C   C1312     1.0  0.57618  0.58552  0.70949  1.0000
  C   C1313     1.0  0.56543  0.59951  0.71799  1.0000
  C   C1314     1.0  0.56282  0.61713  0.70871  1.0000
  C   C1315     1.0  0.57117  0.62071  0.69095  1.0000
  C   C1316     1.0  0.58189  0.60680  0.68247  1.0000
  H   H1551     1.0  0.57808  0.57196  0.71669  1.0000
  H   H1552     1.0  0.55941  0.59678  0.73191  1.0000
  H   H1553     1.0  0.56970  0.63436  0.68386  1.0000
  H   H1554     1.0  0.58840  0.60977  0.66877  1.0000
  C   C1317     1.0  0.76604  0.59051  0.52784  1.0000
  C   C1318     1.0  0.77138  0.60493  0.51505  1.0000
  S   S359      1.0  0.82270  0.50494  0.58262  1.0000
  C   C1319     1.0  0.74941  0.58475  0.52771  1.0000
  H   H1555     1.0  0.78420  0.60947  0.51509  1.0000
  C   C1320     1.0  0.53530  0.59571  0.67976  1.0000
  H   H1556     1.0  0.74510  0.57377  0.53754  1.0000
  H   H1557     1.0  0.56321  0.71384  0.57942  1.0000
  H   H1558     1.0  0.51263  0.58152  0.72045  1.0000
  H   H1559     1.0  0.69677  0.55688  0.63108  1.0000
  H   H1560     1.0  0.84254  0.56399  0.53850  1.0000
  H   H1561     1.0  0.72847  0.50459  0.63388  1.0000
  S   S360      1.0  0.79016  0.52808  0.54882  1.0000
  H   H1562     1.0  0.56895  0.80638  0.53225  1.0000
  H   H1563     1.0  0.52245  0.72869  0.58391  1.0000
  C   C1321     1.0  0.58497  0.75332  0.53485  1.0000
  H   H1564     1.0  0.56935  0.73323  0.58671  1.0000
  C   C1322     1.0  0.56880  0.91246  0.50976  1.0000
  S   S361      1.0  0.60066  0.94868  0.51711  1.0000
  H   H1565     1.0  0.69402  0.50994  0.61062  1.0000
  H   H1566     1.0  0.57817  0.75470  0.56293  1.0000
  C   C1323     1.0  0.85142  0.61107  0.51086  1.0000
  H   H1567     1.0  0.86000  0.55493  0.56789  1.0000
  H   H1568     1.0  0.54944  0.72420  0.59760  1.0000
  H   H1569     1.0  0.50609  0.98961  0.62149  1.0000
  C   C1324     1.0  0.84341  0.53337  0.57311  1.0000
  S   S362      1.0  0.76903  0.50512  0.58493  1.0000
  C   C1325     1.0  0.72848  0.60965  0.56799  1.0000
  H   H1570     1.0  0.56151  0.51516  0.70337  1.0000
  H   H1571     1.0  0.54818  0.59707  0.68427  1.0000
  Fe  Fe177     1.0  0.52214  0.64333  0.72179  1.0000
  C   C1326     1.0  0.50448  0.71540  0.64252  1.0000
  C   C1327     1.0  0.57969  0.88081  0.50863  1.0000
  H   H1572     1.0  0.70357  0.51803  0.58046  1.0000
  H   H1573     1.0  0.87339  0.57247  0.53280  1.0000
  Fe  Fe178     1.0  0.64565  0.51926  0.69351  1.0000
  C   C1328     1.0  0.55778  0.72702  0.58423  1.0000
  C   C1329     1.0  0.55031  0.95740  0.55777  1.0000
  C   C1330     1.0  0.54876  0.96093  0.53927  1.0000
  C   C1331     1.0  0.56425  0.95872  0.52650  1.0000
  C   C1332     1.0  0.58108  0.95259  0.53233  1.0000
  C   C1333     1.0  0.58246  0.94893  0.55078  1.0000
  C   C1334     1.0  0.56717  0.95153  0.56345  1.0000
  H   H1574     1.0  0.53572  0.96555  0.53486  1.0000
  Fe  Fe179     1.0  0.95178  0.51223  0.52764  1.0000
  H   H1575     1.0  0.59545  0.94421  0.55531  1.0000
  H   H1576     1.0  0.56840  0.94881  0.57772  1.0000
  N   N89       1.0  0.58481  0.89850  0.51045  1.0000
  C   C1335     1.0  0.85998  0.54046  0.56965  1.0000
  H   H1577     1.0  0.53488  0.58753  0.71656  1.0000
  H   H1578     1.0  0.97770  0.61138  0.50451  1.0000
  H   H1579     1.0  0.75447  0.61976  0.56404  1.0000
  H   H1580     1.0  0.58861  0.61913  0.73282  1.0000
  H   H1581     1.0  0.67425  0.54514  0.65593  1.0000
  H   H1582     1.0  0.75037  0.63865  0.53526  1.0000
  H   H1583     1.0  0.87044  0.52604  0.52967  1.0000
  C   C1336     1.0  0.71066  0.62167  0.54314  1.0000
  S   S363      1.0  0.99141  0.52984  0.56581  1.0000
  H   H1584     1.0  0.74467  0.61736  0.59499  1.0000
  H   H1585     1.0  0.57593  0.53908  0.68262  1.0000
  H   H1586     1.0  0.51726  0.71230  0.63435  1.0000
  H   H1587     1.0  0.95763  0.60163  0.51333  1.0000
  C   C1337     1.0  0.52720  0.54982  0.70628  1.0000
  H   H1588     1.0  0.70190  0.60293  0.56536  1.0000
  H   H1589     1.0  0.54254  0.00019  0.60845  1.0000
  C   C1338     1.0  0.71272  0.61067  0.55962  1.0000
  C   C1339     1.0  0.83390  0.60568  0.51436  1.0000
  H   H1590     1.0  0.53448  0.71663  0.56631  1.0000
  C   C1340     1.0  0.55844  0.74173  0.55322  1.0000
  H   H1591     1.0  0.73461  0.60174  0.61241  1.0000
  H   H1592     1.0  0.69877  0.62200  0.53671  1.0000
  H   H1593     1.0  0.52198  0.73879  0.56102  1.0000
  H   H1594     1.0  0.56315  0.96159  0.51221  1.0000
  S   S364      1.0  0.53167  0.96051  0.57429  1.0000
  H   H1595     1.0  0.76029  0.59213  0.58013  1.0000
  C   C1341     1.0  0.53406  0.99753  0.59867  1.0000
  C   C1342     1.0  0.71626  0.58748  0.59300  1.0000
  S   S365      1.0  0.74862  0.54217  0.56437  1.0000
  H   H1596     1.0  0.72505  0.58934  0.51531  1.0000
  C   C1343     1.0  0.71645  0.50904  0.58207  1.0000
  C   C1344     1.0  0.71671  0.51351  0.63854  1.0000
  H   H1597     1.0  0.95614  0.56996  0.51488  1.0000
  H   H1598     1.0  0.53402  0.76604  0.56736  1.0000
  H   H1599     1.0  0.83086  0.54238  0.57403  1.0000
  S   S366      1.0  0.94379  0.50741  0.57960  1.0000
  C   C1345     1.0  0.59162  0.89751  0.52801  1.0000
  C   C1346     1.0  0.88360  0.51903  0.52411  1.0000
  C   C1347     1.0  0.86238  0.58172  0.52751  1.0000
  C   C1348     1.0  0.69887  0.54288  0.63705  1.0000
  C   C1349     1.0  0.61412  0.61053  0.74378  1.0000
  H   H1600     1.0  0.53132  0.75516  0.59034  1.0000
  H   H1601     1.0  0.51382  0.55229  0.71351  1.0000
  H   H1602     1.0  0.97512  0.57767  0.53380  1.0000
  H   H1603     1.0  0.55250  0.84955  0.53097  1.0000
  N   N90       1.0  0.73118  0.59825  0.58547  1.0000
  H   H1604     1.0  0.60783  0.56931  0.73523  1.0000
  N   N91       1.0  0.54712  0.73885  0.57098  1.0000
  H   H1605     1.0  0.58109  0.89520  0.53975  1.0000
  C   C1350     1.0  0.84314  0.51465  0.57617  1.0000
  H   H1606     1.0  0.59143  0.58799  0.74048  1.0000
  H   H1607     1.0  0.86311  0.65333  0.50734  1.0000
  H   H1608     1.0  0.51641  0.60356  0.70961  1.0000
  S   S367      1.0  0.75003  0.50585  0.53677  1.0000
  H   H1609     1.0  0.99512  0.56486  0.52414  1.0000
  C   C1351     1.0  0.53086  0.73033  0.57043  1.0000
  C   C1352     1.0  0.56219  0.54203  0.68905  1.0000
  C   C1353     1.0  0.84505  0.57692  0.53074  1.0000
  H   H1610     1.0  0.84358  0.50661  0.61945  1.0000
  C   C1354     1.0  0.53657  0.53239  0.70923  1.0000
  H   H1611     1.0  0.58841  0.75117  0.50646  1.0000
  C   C1355     1.0  0.52220  0.58904  0.71057  1.0000
  H   H1612     1.0  0.54227  0.73053  0.53703  1.0000
  H   H1613     1.0  0.99736  0.52685  0.52505  1.0000
  C   C1356     1.0  0.56684  0.79404  0.50897  1.0000
  H   H1614     1.0  0.60566  0.60502  0.71144  1.0000
  Fe  Fe180     1.0  0.60877  0.50734  0.71055  1.0000
  C   C1357     1.0  0.71430  0.53159  0.63056  1.0000
  H   H1615     1.0  0.64777  0.59234  0.73301  1.0000
  C   C1358     1.0  0.70395  0.50694  0.65283  1.0000
  N   N92       1.0  0.61887  0.59396  0.73503  1.0000
  H   H1616     1.0  0.71868  0.57916  0.60618  1.0000
  C   C1359     1.0  0.72409  0.63190  0.53454  1.0000
  H   H1617     1.0  0.56124  0.73657  0.50847  1.0000
  H   H1618     1.0  0.63738  0.57871  0.75272  1.0000
  C   C1360     1.0  0.57422  0.75015  0.55149  1.0000
  H   H1619     1.0  0.72066  0.62002  0.60080  1.0000
  H   H1620     1.0  0.54154  0.99927  0.58476  1.0000
  H   H1621     1.0  0.81736  0.58508  0.52681  1.0000
  C   C1361     1.0  0.68847  0.51821  0.65931  1.0000
  H   H1622     1.0  0.55797  0.90965  0.52110  1.0000
  C   C1362     1.0  0.87649  0.52899  0.56890  1.0000
  H   H1623     1.0  0.90982  0.50528  0.60969  1.0000
  Fe  Fe181     1.0  0.62699  0.53009  0.73067  1.0000
  C   C1363     1.0  0.88445  0.52121  0.61296  1.0000
  Fe  Fe182     1.0  0.92537  0.52301  0.56003  1.0000
  H   H1624     1.0  0.74956  0.57531  0.59551  1.0000
  H   H1625     1.0  0.62261  0.58647  0.70814  1.0000
  H   H1626     1.0  0.50960  0.57741  0.67329  1.0000
  N   N93       1.0  0.98023  0.58236  0.50463  1.0000
  Fe  Fe183     1.0  0.75476  0.53193  0.59260  1.0000
  C   C1364     1.0  0.73806  0.59360  0.51509  1.0000
  H   H1627     1.0  0.50396  0.79199  0.63918  1.0000
  C   C1365     1.0  0.55408  0.52855  0.70073  1.0000
  C   C1366     1.0  0.98655  0.57820  0.52263  1.0000
  H   H1628     1.0  0.53040  0.52188  0.71843  1.0000
  S   S368      1.0  0.59946  0.53320  0.72223  1.0000
  S   S369      1.0  0.61892  0.52119  0.68309  1.0000
  C   C1367     1.0  0.83087  0.58884  0.52414  1.0000
  H   H1629     1.0  0.71486  0.57774  0.58387  1.0000
  C   C1368     1.0  0.56501  0.73991  0.52067  1.0000
  H   H1630     1.0  0.74796  0.57781  0.57177  1.0000
  Fe  Fe184     1.0  0.96737  0.51750  0.56043  1.0000
  C   C1369     1.0  0.74193  0.62020  0.55878  1.0000
  Fe  Fe185     1.0  0.76417  0.51636  0.55643  1.0000
  C   C1370     1.0  0.54092  0.75646  0.57762  1.0000
  C   C1371     1.0  0.96771  0.56931  0.50387  1.0000
  H   H1631     1.0  0.56024  0.56928  0.67697  1.0000
  H   H1632     1.0  0.62879  0.60825  0.70935  1.0000
  Fe  Fe186     1.0  0.50849  0.79622  0.56901  1.0000
  H   H1633     1.0  0.58030  0.64625  0.74704  1.0000
  H   H1634     1.0  0.60305  0.88647  0.52951  1.0000
  C   C1372     1.0  0.85811  0.50596  0.61804  1.0000
  C   C1373     1.0  0.73970  0.63113  0.54233  1.0000
  C   C1374     1.0  0.87620  0.51031  0.57133  1.0000
  H   H1635     1.0  0.72265  0.63997  0.52150  1.0000
  H   H1636     1.0  0.89037  0.53369  0.61047  1.0000
  C   C1375     1.0  0.86056  0.63953  0.51399  1.0000
  C   C1376     1.0  0.63681  0.58389  0.73815  1.0000
  H   H1637     1.0  0.92322  0.53322  0.51622  1.0000
  C   C1377     1.0  0.86557  0.59852  0.51773  1.0000
  C   C1378     1.0  0.55413  0.73667  0.53724  1.0000
  H   H1638     1.0  0.70322  0.59624  0.59564  1.0000
  C   C1379     1.0  0.73285  0.60986  0.59899  1.0000
  H   H1639     1.0  0.63997  0.57166  0.73118  1.0000
  H   H1640     1.0  0.55209  0.76305  0.58041  1.0000
  H   H1641     1.0  0.87924  0.60164  0.51571  1.0000
  H   H1642     1.0  0.90236  0.56113  0.50923  1.0000
  S   S370      1.0  0.50829  0.66968  0.73084  1.0000
  S   S371      1.0  0.50480  0.62643  0.74206  1.0000
  C   C1380     1.0  0.86580  0.52186  0.61579  1.0000
  H   H1643     1.0  0.59647  0.91037  0.52931  1.0000
  Fe  Fe187     1.0  0.79444  0.51892  0.57776  1.0000
  H   H1644     1.0  0.89103  0.52958  0.51554  1.0000
  C   C1381     1.0  0.53514  0.56396  0.69462  1.0000
  H   H1645     1.0  0.87321  0.63289  0.51926  1.0000
  C   C1382     1.0  0.60531  0.58155  0.74217  1.0000
  H   H1646     1.0  0.53816  0.59172  0.66598  1.0000
  C   C1383     1.0  0.56209  0.85576  0.52057  1.0000
  H   H1647     1.0  0.85729  0.53477  0.61560  1.0000
  H   H1648     1.0  0.52757  0.60954  0.67858  1.0000
  H   H1649     1.0  0.84999  0.64102  0.52581  1.0000
  C   C1384     1.0  0.61899  0.59865  0.71519  1.0000
  H   H1650     1.0  0.84699  0.51017  0.53094  1.0000
  C   C1385     1.0  0.56709  0.87248  0.52200  1.0000
  H   H1651     1.0  0.99452  0.58849  0.52511  1.0000
  N   N94       1.0  0.88176  0.50441  0.51389  1.0000
  H   H1652     1.0  0.51015  0.69338  0.66395  1.0000
  S   S372      1.0  0.50556  0.64452  0.69928  1.0000
  C   C1386     1.0  0.59781  0.62209  0.74117  1.0000
  C   C1387     1.0  0.59286  0.63771  0.74937  1.0000
  H   H1653     1.0  0.50535  0.98980  0.58822  1.0000
  H   H1654     1.0  0.89112  0.51361  0.53573  1.0000
  H   H1655     1.0  0.51894  0.51195  0.67913  1.0000
  H   H1656     1.0  0.51038  0.54401  0.66950  1.0000
  H   H1657     1.0  0.97449  0.55511  0.50537  1.0000
  H   H1658     1.0  0.59667  0.76023  0.53372  1.0000
  H   H1659     1.0  0.72603  0.51292  0.56988  1.0000
  H   H1660     1.0  0.57226  0.92604  0.51067  1.0000
  C   C1388     1.0  0.53948  0.78087  0.51032  1.0000
  H   H1661     1.0  0.72200  0.51215  0.59385  1.0000
  H   H1662     1.0  0.82223  0.61423  0.50981  1.0000
  S   S373      1.0  0.67255  0.50884  0.67706  1.0000
  C   C1389     1.0  0.50545  0.51788  0.68377  1.0000
  H   H1663     1.0  0.51066  0.73662  0.67244  1.0000
  H   H1664     1.0  0.50363  0.76309  0.65049  1.0000
  H   H1665     1.0  0.82796  0.64342  0.50435  1.0000
  S   S374      1.0  0.63586  0.50334  0.72051  1.0000
  C   C1390     1.0  0.89553  0.50465  0.61241  1.0000
  C   C1391     1.0  0.56937  0.84695  0.50576  1.0000
  H   H1666     1.0  0.53135  0.77344  0.50442  1.0000
  H   H1667     1.0  0.56544  0.83404  0.50464  1.0000
  H   H1668     1.0  0.62848  0.63477  0.77229  1.0000
  S   S375      1.0  0.51774  0.58980  0.92638  1.0000
  H   H1669     1.0  0.56819  0.57328  0.97030  1.0000
  C   C1392     1.0  0.53940  0.60830  0.83305  1.0000
  S   S376      1.0  0.59771  0.53282  0.90997  1.0000
  S   S377      1.0  0.51345  0.64200  0.90455  1.0000
  Fe  Fe188     1.0  0.60114  0.54743  0.88166  1.0000
  S   S378      1.0  0.59247  0.57724  0.87787  1.0000
  S   S379      1.0  0.62952  0.53465  0.87443  1.0000
  H   H1670     1.0  0.53162  0.64816  0.97216  1.0000
  N   N95       1.0  0.53603  0.59516  0.84959  1.0000
  H   H1671     1.0  0.62764  0.60475  0.92168  1.0000
  H   H1672     1.0  0.67338  0.52453  0.97151  1.0000
  H   H1673     1.0  0.50787  0.60543  0.95915  1.0000
  C   C1393     1.0  0.51168  0.65390  0.81497  1.0000
  Fe  Fe189     1.0  0.61643  0.51408  0.86424  1.0000
  H   H1674     1.0  0.55079  0.57126  0.86282  1.0000
  S   S380      1.0  0.64539  0.51218  0.92194  1.0000
  C   C1394     1.0  0.66039  0.51949  0.94985  1.0000
  C   C1395     1.0  0.51976  0.62773  0.96426  1.0000
  C   C1396     1.0  0.62815  0.53081  0.97081  1.0000
  C   C1397     1.0  0.52609  0.60692  0.99718  1.0000
  H   H1675     1.0  0.52979  0.55904  0.85154  1.0000
  C   C1398     1.0  0.55208  0.58115  0.85024  1.0000
  C   C1399     1.0  0.53891  0.58632  0.91372  1.0000
  C   C1400     1.0  0.54864  0.60081  0.90709  1.0000
  C   C1401     1.0  0.56514  0.59805  0.89602  1.0000
  C   C1402     1.0  0.57179  0.58084  0.89150  1.0000
  C   C1403     1.0  0.56213  0.56635  0.89830  1.0000
  C   C1404     1.0  0.54577  0.56905  0.90953  1.0000
  H   H1676     1.0  0.54349  0.61412  0.91054  1.0000
  H   H1677     1.0  0.57268  0.60925  0.89092  1.0000
  H   H1678     1.0  0.56704  0.55308  0.89470  1.0000
  H   H1679     1.0  0.53821  0.55784  0.91456  1.0000
  H   H1680     1.0  0.55151  0.52701  0.88561  1.0000
  N   N96       1.0  0.62960  0.57587  0.92357  1.0000
  C   C1405     1.0  0.62908  0.59409  0.91280  1.0000
  C   C1406     1.0  0.64634  0.57213  0.93223  1.0000
  C   C1407     1.0  0.63078  0.56235  0.91109  1.0000
  C   C1408     1.0  0.61298  0.57513  0.93669  1.0000
  C   C1409     1.0  0.61300  0.57282  0.95571  1.0000
  C   C1410     1.0  0.59598  0.57709  0.93048  1.0000
  C   C1411     1.0  0.59698  0.57219  0.96761  1.0000
  C   C1412     1.0  0.58055  0.57391  0.96103  1.0000
  C   C1413     1.0  0.66061  0.52491  0.96664  1.0000
  C   C1414     1.0  0.50286  0.50999  0.92386  1.0000
  H   H1681     1.0  0.64153  0.59533  0.90299  1.0000
  H   H1682     1.0  0.61761  0.59723  0.90472  1.0000
  H   H1683     1.0  0.65863  0.57219  0.92207  1.0000
  H   H1684     1.0  0.64746  0.55854  0.94054  1.0000
  H   H1685     1.0  0.64700  0.58245  0.94096  1.0000
  H   H1686     1.0  0.62032  0.56573  0.90187  1.0000
  H   H1687     1.0  0.64394  0.56110  0.90223  1.0000
  H   H1688     1.0  0.62920  0.54877  0.91875  1.0000
  H   H1689     1.0  0.62523  0.57111  0.96183  1.0000
  H   H1690     1.0  0.59492  0.57915  0.91624  1.0000
  H   H1691     1.0  0.53115  0.59538  0.87825  1.0000
  C   C1415     1.0  0.53235  0.51627  0.87340  1.0000
  C   C1416     1.0  0.53176  0.62434  0.99317  1.0000
  H   H1692     1.0  0.52970  0.52830  0.86392  1.0000
  H   H1693     1.0  0.61517  0.55258  0.79186  1.0000
  S   S381      1.0  0.58835  0.52828  0.86952  1.0000
  C   C1417     1.0  0.62527  0.51139  0.81656  1.0000
  H   H1694     1.0  0.61567  0.53490  0.97902  1.0000
  H   H1695     1.0  0.50777  0.53461  0.90623  1.0000
  C   C1418     1.0  0.64416  0.51992  0.94310  1.0000
  S   S382      1.0  0.64652  0.53689  0.99846  1.0000
  Fe  Fe190     1.0  0.62498  0.51842  0.90214  1.0000
  C   C1419     1.0  0.61971  0.53826  0.79464  1.0000
  H   H1696     1.0  0.52893  0.62033  0.83258  1.0000
  C   C1420     1.0  0.62615  0.52838  0.78018  1.0000
  C   C1421     1.0  0.62795  0.52588  0.95351  1.0000
  H   H1697     1.0  0.51298  0.65625  0.78589  1.0000
  H   H1698     1.0  0.60001  0.65441  0.76687  1.0000
  H   H1699     1.0  0.51706  0.63587  0.95152  1.0000
  H   H1700     1.0  0.51064  0.70094  0.98266  1.0000
  H   H1701     1.0  0.61531  0.52628  0.94848  1.0000
  C   C1422     1.0  0.52825  0.63462  0.97631  1.0000
  H   H1702     1.0  0.55441  0.57379  0.83833  1.0000
  C   C1423     1.0  0.53453  0.60458  0.86557  1.0000
  C   C1424     1.0  0.51901  0.58783  0.84968  1.0000
  C   C1425     1.0  0.64460  0.53040  0.97737  1.0000
  H   H1703     1.0  0.61410  0.53761  0.82366  1.0000
  H   H1704     1.0  0.51351  0.58680  0.98827  1.0000
  Fe  Fe191     1.0  0.58773  0.51236  0.89721  1.0000
  H   H1705     1.0  0.59525  0.50390  0.79882  1.0000
  H   H1706     1.0  0.52389  0.61638  0.86539  1.0000
  C   C1426     1.0  0.51445  0.61059  0.96859  1.0000
  H   H1707     1.0  0.63756  0.60748  0.75837  1.0000
  H   H1708     1.0  0.52551  0.65614  0.81441  1.0000
  C   C1427     1.0  0.62505  0.61551  0.75535  1.0000
  C   C1428     1.0  0.54484  0.51542  0.88550  1.0000
  H   H1709     1.0  0.55239  0.61367  0.83228  1.0000
  C   C1429     1.0  0.63222  0.50992  0.78401  1.0000
  H   H1710     1.0  0.53963  0.60205  0.82066  1.0000
  C   C1430     1.0  0.51760  0.60018  0.98502  1.0000
  H   H1711     1.0  0.56653  0.61667  0.99785  1.0000
  H   H1712     1.0  0.56459  0.58715  0.85035  1.0000
  C   C1431     1.0  0.61915  0.52982  0.81271  1.0000
  H   H1713     1.0  0.59739  0.57013  0.98205  1.0000
  H   H1714     1.0  0.55597  0.64938  0.98730  1.0000
  C   C1432     1.0  0.58005  0.57641  0.94248  1.0000
  H   H1715     1.0  0.56726  0.57780  0.93733  1.0000
  C   C1433     1.0  0.51804  0.56903  0.85092  1.0000
  H   H1716     1.0  0.54718  0.60997  0.86633  1.0000
  H   H1717     1.0  0.58917  0.51020  0.95273  1.0000
  H   H1718     1.0  0.50492  0.69929  0.95190  1.0000
  H   H1719     1.0  0.60554  0.57686  0.75687  1.0000
  S   S383      1.0  0.51068  0.65111  0.85189  1.0000
  C   C1434     1.0  0.50462  0.65394  0.79876  1.0000
  H   H1720     1.0  0.58159  0.50498  0.75768  1.0000
  C   C1435     1.0  0.57133  0.50518  0.81752  1.0000
  C   C1436     1.0  0.54625  0.64933  0.99991  1.0000
  C   C1437     1.0  0.60393  0.64228  0.76051  1.0000
  H   H1721     1.0  0.67297  0.51490  0.94202  1.0000
  H   H1722     1.0  0.53448  0.65975  0.99746  1.0000
  H   H1723     1.0  0.57615  0.51397  0.82519  1.0000
  C   C1438     1.0  0.50430  0.68983  0.98028  1.0000
  S   S384      1.0  0.62700  0.53998  0.75773  1.0000
  H   H1724     1.0  0.60076  0.50595  0.76857  1.0000
  H   H1725     1.0  0.51350  0.51101  0.93149  1.0000
  C   C1439     1.0  0.61996  0.63120  0.76352  1.0000
  H   H1726     1.0  0.54604  0.50391  0.83484  1.0000
  C   C1440     1.0  0.50258  0.59964  0.84904  1.0000
  H   H1727     1.0  0.50220  0.61407  0.84836  1.0000
  Fe  Fe192     1.0  0.50261  0.61577  0.91462  1.0000
  H   H1728     1.0  0.52728  0.53890  0.00357  1.0000
