data_image0
_chemical_formula_structural       H2CH2FeHSFeSCSCH2FeHSH3SFeSCFeS2FeSFeS3HS2FeSFe2SHSFeS2FeHFeHFeCS2FeS2FeSHFeSFeS3FeS2FeS2FeSFeS3FeS2FeS2FeSFeS3C2H5CHC4H7C6H4C6H4C3H2C6H4CH4C6H4C6H4C6H4C6H4C6H4C3SC2H2CH3FeHC2HC2NH4CH2CH5CHC2HSCNC4NCHCH11CNC9H15SH3CHCHCNH2CH4C2H2NCSC2HC2H3CHCSC2H3C2H3C2NHCHSC2HSCHCHCHCHNHC8HC3H2CH10CHCHNC8H12SC2H2NCH5C2H12SCH4NC4H2SCH6CH9CHC3HC2H3NH2CH2NC9H8CHN2CH4C3SHC2Fe2CSHSH2NCH2SC2HC2FeC2H2FeS2FeSFeS3FeS2FeSCFeSFeS3CFeS2FeS2FeHFeS3NH4CFeHSFeCSFeSCHS2FeSHFeS2FeSFeS3HFeS2CFeCS2CHC4SCHC9H4C2FeH4C2HC6H4C6H4CH3CHC8H3CH2C2H3C7H4C6H4C6H4C6H2C2H2C4H3NH2C2H2S2HSH2CH2CH2CH11CHC2NHC6HCH6SH3NC3H8CNH5C3HSHNC9H14NH2C5HNH2CH7CHC3HNCH2C5HCHCHCH5SCSCH2C3SHCH2CH2CHCHCHCH2SH2CH3CH2C2H4FeSH2CHNC9H14NH2CHC2HC4HCH6CSCHC4H3FeCH3CH2CH4CH2CHCHCHCHC3NH2CH2C2H4CHC2H2CHSH2SFeS2FeS2FeSFeS3FeS2FeS2FeSFeS3FeS2FeSFeSFeS3FeS2FeS2FeSFeS3CHFeS3FeSFeCSFeS2FeSCFeSFeS3FeS2HSHFeSFeSCSFeSFeS2FeSFeS2C6H4C6H3C6H5C2HCHCHCHC4HCHN2HC6H4CH3CH2SHC7H4C6H4C6H4C6NH2C7H4C6H3C6H4C7H8CH3C2HC2SCH2C2HC3HCFeCH4C3H4SH2SCHCHC2HCHCHNC9H15C3HCH2C5H3C3FeSHCH2N2CHC3HCHCHCH10CHC2HC2HNC7SCH13CH2SHCHC2NH2CH2CH2CHCHS2CH2CHCH4CH5C2H2CH5CH5SNCFeSHC2H2CHNC9H12CHNC9H20CNC9H14NC6H11CSH5C2H2C2HCH2CHCHC2HCH2CHC2H4CNH2C4SHC5SC2HC2HCH2N2HSC2FeH3CH3NC9H13CH2C3H2C5SCHC2H4CHC2HCFeH3SC2H3C2HC2FeH7CH4CHCH4SHSCH3FeCH2FeSCFeCFeSFe2S2FeHSH2CHSFeS2FeS2FeCFeS3FeS2FeSHFeS3FeS2FeS2Fe2S3FeS2FeS2FeHFeS3FeS2FeS2FeSCFeS2FeSFeS4FeS2FeSFeS2C2HC7H4C6H4C3H2CH3CH2SCHCHC2HC6H4C3H3C6H6C3H2CHC7H4C6H4C6H4CH3C2H5C2SH5C6H4C6H4C2H2C6H3CHCSC3H4NH2SNC9H14C3H2FeCNC2SNHC3H8NC4H8CHCH3C2H3C2HCH3SCHCNHC3H2CNC2H5CH2C3H2NC9H14NC8H9C3HCHC2H3CFeNC3H3CHCH2CH2C2NC3HSC6NC9H11CH2NC9H15CH4CH3C3HCHCFeHCH2CHCHSCHCSC2H4CH4SH2C6HC3H9CH2C2H2C2H2NC9H3CH3CH2CHCHNC6H14SHSH2CHSH2SH2CSH2SH2SH2SCHFeCHC2SHFeHFeCH3CHSC3H2CH5SCSCH2C2HNC2HCH3CNHCHS2C3H4SCH3FeC3H4C5HCH2NH3FeC2H2C3SFeH3SH2C2H3CHCHC2HC2SHSH4CHCHCSH2CH3CH2CH2C3HNHCSNCHFeS2FeS2FeSFeS3CFeS2FeSCFeSFeS2H5CH2SHFeSH2C2FeSH2SHFeSFeHSHNCHC2HCNCNHCH3C3H3CHNH3C2H7C7H4CHCH2CHCSC5HNH2CHC6H4C6H4C5H3FeHC3HSCH5CSH3CHC2H2CHCHCH5C2H3C3HC2HC2H5CHC2H2SH2CNCHC3HCH5SC4H3C2H2CFeC2HNCHCHSHC3HCH4CHSH2CHCHSFeHC4H5C4H2CSH2S2H2FeSHFe2S2FeSHSCH2FeS2FeSFe3S3FeCSFeS2FeHFeHS3HC3HC2HCHCHCH2CHC3HC2HSHCH2SC6HCH3C9H4CHC5H4C6H5CHCHCHC2NCHCH2C3FeHS2CHNHCHC3H6CHC3HCHNH2SH2SHCHCHC2H3C2H2FeH3NHCH3CHNC9H16SH6C2HC2HCHC2SCHCH4FeHNHCHC4H3NH5C2HCFeSFeS2Fe2S3FeSFeS2FeSFeS2FeS2FeS2FeSFeS3FeS2FeS2FeSFeS3FeSFeS2FeSFeS3CSFeS2FeSFeS3FeS2FeSHFeHFeS3FeS2FeS2FeSFeS3FeSCFeS2FeCFeS3FeS2FeSHFeHFeS3HNH2C2H2C2SH3SH2C7H4CH2CHC4H6FeC7H4C6H4C6H4C6H4C6H4C2H5C5H2C2HCH2C3NCH2C2HC6H4C6H4C6H4C6H4C6H4C5HCH5CFeH2CHCHNCH2C3H4CH3CH2C2H3CNC9H15CH7CNCSC2SNCH3CH2CHCHC2HC2NHC5NC5HCH2C3HCH5C2HSHC3HC2HC3HCH2SH3CHC2H4SCHNC6H12NHCHSC3HCH5NC9H14NC7NCH11NCH2CHCNCH4NHC7H4SH3NC9HCH12CHCH3NC9H9CH2CHNC5H2CHCH9C4HCHSHC2HC2H3CH4NC7H10C2H3C3HC2HC2HCHCH3CHSCH4C2H2FeS3HCHC2HCH2CHCH2CH3C3H2C2H2SH3C2HFeHC5HC2H4CHSH2C2H2NCHCH4CH4C2H3C2HNH3C2H3C2H2C3HC2HC2H5SCFeH5CHFeH4C4HCHCH7CH2CH4CHC3H2CHCHCH3C5NC4HCH2SHCHC2H2SHCHCH5CH3CHCHC2HSCHCH2FeS2FeSCFeHFeS3CFeSFeSFeSFeS2FeSFeSH2SHFeSFeS3C2NSH2FeSFeS2CFeS3FeS2FeS2FeSFeS2FeS2FeS2FeHFeS3FeS2FeSFe2S3C2SFeSCFeS2FeS2FeSFeS3HC5H4C7H4C6H4C6H4C6H4C6H4C6H6SCH5CHC5H3SCH3C6H4C6H5C2HCH4C6H5CHCH2C7H5C3HCHC9H10SH3C2H2C3HCH2CHCH2CH3CNCHC7H5CH6CHNC9HSHC2HC2HCHCH2NC9H14C2HSH2C2HCSCNSC2H5NC3H3C2HNHCHC2NHCH3NC8H7FeHNH7SH2CH2FeH4FeCH2C2HFeCHCH2SHC2NC9H12CHNC9H16CSCH2C3H2SCHC2HNC8H11NC3H8NC9H12C2HCH6CH2CH3C2HFeC3H5SHCHC6H4SCH9CSCH2CH4CHCHNC9H14NC9H10C2HCHSCSCHCNS2H3CHS2C2HC3S2NCHFeHC2SCNCH2CH3SC2H3CH2C5SC3H3CHC2HC2HC2FeCH2FeCH2C2H4C3H2SC2H5CH3CH2NH2CHC3H2CH8CH4CFeHCH2C3HCH3C2HSHCHCHCHCNCHSHC2H2CH3CSC2H2SH3CHS2HFe2SH2SHFeS2FeSFeSFeS3FeCHFeS2CHFeS3HC5FeSC2H2FeSCFe3SFeS2FeS2Fe2S3CH2C7H4C2NSCHC2HCFeH2C6H5SCH3CHCH3CHC7H4C2H2C6H4CHCHCHC6H4C2H7CSCH2NC9H14NC9H11CHSNSHS2H3CHCHCH2C2H2CH11CSCHC2HCH3SNHC4H6CH5CSHC2H3CHCHNCHCH2C2H2CH4NC4H5C7H6NC7HSH2CH2CH2CH3C4HSHCHFeS2FeSHFeSFeS3FeHSC2SFeS2FeHCSFeS2FeSFeS2FeSFeS4C2FeS2C4SCHNHFeS2FeC3H2S2H2CSH3CHC2HSCH3FeHNH3C8H5CH2CH2C2FeHC2H4C6H4CH2C4H3C6H4C6H4C6H4CH3SCSFeC3H6CHCH3CFeNC9H16CH2FeH3CHC6SHCH4C3NHC3H3C2NHC2SC2H2C2HCHFeSNC3H3FeHCH2C2NH2SCHCHSH2FeCH3C2H7CNC5H4CSH4C7H7SCHNC6HCH17CH2CH2C4HSCNHSC2H2C2H2CNCH2C2HCH2CHCHCH3CHCHSHC2H3CHC2H2SC2H2CNHCH2C2HNHSC4HCSHC2H2FeS2FeS2FeSFeS3H3C2SFeHSFeS2FeSFeCS2FeS2FeSFeHCS2FeS2FeS2FeHFeS3FeS3FeSFeS2FeSCFeSCFe2S3C3HC6H4C6H4C6H4C6H7SC2HCH2C2HSH2CSH2C6H5C6H6NHCHCH3C4H6SHC3H5CSHNHC2H2SCHCFeH2C2HCH2CH3CHC2H2CHC3H2FeCH2CH9NHC4HC3H3NH4SHCNC9H14NC9H14CH7CH2C2HC3HCHCNHC4HC2HC3HSC3SH5CHCH3CNC9H6C2NH6C2H3C2HC3HC3H3NC4SC4SHC3NHCH2CHC3H6CH2CH3CH5SFeS2FeSFeS2FeS2FeS2FeSFeS2FeS2FeSFeS4FeS2FeSHFeHFeS2FeS2FeS2FeSFeS3HCHFeCSH3CNSCHSC2NCHC6H2CHFeHC2HC2H6CHC2HC6H4C6H5C3HSC2H2C4H2SHC6H4C6H4C4HFeH7C3SCHC3H12CH3C2HC4HCH2CH5CHC2HC2H3CSH2CH2SH6CNC9H16CH2NC4SH2CH3C3HCHCH4CH2CHCFeNC9H15SH2C6H2CH2CH3CHCH2NH2C2HCHSH5CNCH3SCHFeHCH2NH2C2H3C2H3CH4CH2C3H2C3HNCHC3HSC2HCSNC2H4NH3NC9H14C2HCHCH3C2SHCH2NH2C3HNC9H5CH3C2H2C2H2C5HCHC2HSCH2SHCH4C2H3CHFeHFeHSCHSHCFeC2HSHFeSFeSFeCSFeS2FeHS2CHSHFeS2FeS2FeSFeS3FeS2FeSFeHFeSFeS2FeSFeS2FeS2FeSHFeSFeS3FeS2FeS2FeS2FeS2FeSFeS3FeS3FeSFeS2H2C6H4C6H4FeHC5H3C6H6CH5C3H2C6H4C2H2CH2CH2C6H4C6H4C6H6C3HCH5C3SH2C8H4C6H4C4H2CSC4H3C4FeH2CNH2C2SCNH4CHC6H5NC9H12NCHCHNC2HCH2NC9H16FeHCH2SH2CH3NHCH2FeC2HCNC4HCH2C2HCH9CH3NC3H2CHCH3CH2CH3C5HFeC5HCH3C6H6NCH2C3HC2H2C3H6C2HNHC10HFeC2SCH6NC9H7CH6C4H5SHCNHCHCHSCHS2FeHCH2CHFeHSCHCH2C3HSHC3HC2HC2H4CSCHCH3N2C3H3CH5CHSNC2H2CH3CH2CHCH2SH2NC2HCH6CH4CH3C2H3CHCHCHC2HNCSCHSH2CSC5HC2H3CSHSCH5CH2CH2SH3SCH2CH2C3H2SC5H2FeC2H2C2H2CSC3HNCS2HCHC2H7C2HCHCH5CFeHNHC2H4C4H2CHCH4CH3C2HCHSH2CH2C3HC3H4CHCHC3H2CHCSCH4NH3CSCHC2H5CHCH4C2H2CH4C2HCH5FeS2FeS2FeCFeS2FeS2FeS2FeCFeS2FeSFeSFeS2FeS2FeSCFeS3FeS2FeS2FeCFeHS2FeS2FeS2FeCFeS3FeS2FeS2FeHFeS3FeS2FeS2FeSFeS3FeS2FeS2FeSFeS3FeHSFeHC2HFeSCSH2C2SC2HCH2CHC6H2CHC6H4C6H7C2H2CH3CHC6H8CH5CSC6H4CHC4H5CHC6H4CH2C6H4SC6H6NH2CHC6H4CHSHCHCHC7H4NC9H11CH4CH4CHC3HC3HCHCH2CHNC9HSH10CHNC2H6NC9SH3C2HCHCHCH2C2HFeH4CNCH3CHCH2CH3C2HNCNHC4HNCH4CH2C2H2CHCHSH2CH3C2H2C2H3SH3C2H3CH2SH3NC6H14CHC2H2CNSH2C2HCHCH4CH4C3H6CH2CH3CS2CH4SC4H2CS2H3NC6H2CH12CHC4H4NC4H6CH2C8HFeHCHC2HCHSH4FeHC2H3CHNCHCH5CH3C2HCNHCHNC2HCH2C2HCHCHC2H2CH2C4HC2H3C2HCH2CH2CHC2H2C2H3FeH5CH2C2HCSC4HCH2C3HNHCH2C4H3CHSHC3HCHC2H2C2H2SCHCH2C4HSH5CHCH3NHFeSFeS2FeHFeS3CSHFeSCFeSFeS2H3CHCHCHCH2CHFeCSCSHCH2NS2HFeS2FeS3CH2C4HC2HC3NHFeHCH2CNHCFeC5H3C6H6CHSH2CSH4CHC2HCHC6H4C6H5CHCH2SCHCH2C2H4C2HC2HFeNSHCHCHC2H2NHC2SCH9CH3C2H5CHCHCHCHSC2HCH2CHSHCFeH4CFeS2FeCHFeH3S2FeS2FeSCFeSFeS3CFeS2FeSCFeSFeS2CFeS2FeHSFeSH2S2HC2H2NHCHNCH2C4H2C2HC3HCHCH5C3H2C5HC2H2C2SH8C6H5C4H2SHS2H2CHC7H4C6H4CH2CHC2H3CH2CH3C2HCH2C4H3CSHFeNCH3C4HC2H2CHCHNHCHCNH2CH7C3HCFeCHCH2C3NC2HCHCSNH4CHSH4C3H2CH2C2H2CHC3HCH2SCHSH2C4H4NHFeSHFeS2FeSFeS5FeSFeS2FeSFeSFeS3FeS2FeS2FeSFeS3HC2H2CFeS3Fe2S2FeSFeS2FeSFeS3FeSHFeS2FeSFeS3FeS2FeS3HFeSH2FeS2FeS2FeSFeS4C4HCH2CHC6H4C6H3C6H4C6H4C6H4C6H4CHC4H4C3H2CH4C2HCHSC6H4C6H2CHC6H4C6H4C6H4CH2CH2CHC4H4CH2C2H7CHCH4C2H4NC2HCH3C4H3NC6H2CH10CHCNHCHC2H2NC9H13C2HCSH2C2H4C2H3CH2CHNC9H14CH2C2HCHNH2C2HCH6CH2CHCH4CHC3H2CH2CFeC4HCH4NC3NCH4FeH2C2H2C5SCNC9H16CHNH2C2HCH3CH2SHNCH2CNCH4C2NH2C2HCHCNC9HCH13C3H2NC9H14CH4C4H2CHC3H2CH7C2HC3NC9H12CNHCHSCNHFeCHFeCH2SCH2CFeHSHSCH2FeH2C3S2CFeHSHFeHSHCH3C4HC2HSCHC2H3SCSCHSC3SCH2FeCSC2HC2H2CHCH3CSC2H3NH8C2HCH2CH2SNH6CH2C4H3CH2CHSC3HC2SC2NCH5SHC2H2SCHC2H3CH4CSH2C2HCH2FeHCNSHCH4C2H2CSCH6CH3CNSC2H2SHC2H3C2H2CHCH3C2SCHCH3CFeSFeS2FeSFeS3FeSHFeS2FeSFeS3FeS2FeS2CFeS2FeS2FeSFeS3FeS2FeS2FeSFeS5HFe2SFeS2FeS2FeSFeS3FeSHFeS2FeSFeS5HFeSFeSFeCH3C6H4CNC6H2CHC2H2C6H4CHNSC3HCHC6H4C6H4C6H3C6H4C6H5C4H7C6H4C6H4C3H2C6H4C2HC6H5C2H2SC2HCHC2H4C3H2C2SCSCHNC4H12C4H5CH4C3H2CHCNHCH3CH3CH2CHC2HSCH3C2NCH3C2HSHCH2C2HC2HCH2NC2H2CH6CFeHCH3SHSHC2H3C2SH2FeHCHCHCHCH5C2H2CNC6HC2H3CH8NHCHC2HFe2H11SH2CHNFeH2CFeCHCH2CHCH2C2H7C3SHC2HCHC2H4CH4SHC2H2NH2CH3SH2C3NC7H13C5H8NC7H12NC3H9CFeS2C3FeCHCH2CSCSNFeHCS2H2C4H2CH4CHCHCHCHNH2C3HCHC3SCH2CH3CH2C2HCHC2NH4CH2CH2CH2C7HCNCH3C4H2C2H3C2NCH4FeHNHCH2SHCHCH3CHCHCH2CHCH3CH3C2H3C7HSC2HC2HCHCNH3CH4CH2CH3C2H7CH5CH3CHCH2FeH6CHFeSHFeS2FeS2FeSFeS3FeS2CHFe2SFeSFeS2FeSFeS3FeHCFeS2H2CHS2HC2FeCHFeHSFeS2FeSCSH2FeHNH6CH4C4HCH2C6H4C4SHC2SHC6H4FeC9H5FeCHCH5C6H4C6H6SCHC5H3FeHCSHCH4CSH2SH3NC9H14NHCHCH2CHC3H3CH4S2HC4HC2HCHCH3NC8SH14C2H2CHSHNC4H3CHCH5NC2HCH2C2HFeH2CH4CH2NCHNC4HCHCH13C4H5C6NC2SC7HC2HCHC2H3CSC4HCH5CH2C5HC2HSCH2CNC3HSH2NH4CH2CH2CSC3SH2CFeS2FeS2FeSFeS3FeS2CH2C3S2FeSCFeS2FeHFeS3FeS2FeS2FeHFeCS2FeS2FeS2FeSFeS3HSC2SH2C2HCHCHC2HCHCHC6H4C6H4C6H2CH2CSHC2H4CHSHCH7CH4CHC6H4C6H4C6H4C7H3FeHC2H2C2HC2FeC2H2CH4CH2CN2H5C3HC2HFeH2CHC4NC9H13FeH2CNHSCHCHC2SCHC6SCHCH2C2SCSC2H3SHCH2CSH2CH3C2H5NHNH3CH2CHCHC2H6C2H4CNH5CH3C3NC9H14C3HC2NC2H5C2HC2NC2HC3NCH4SC2HC2H3CHFeHC3HCHCH3CHCHNSH2C2
_chemical_formula_sum              "H5184 C4320 Fe576 S1152 N288"
_cell_length_a       85.6725
_cell_length_b       85.7292
_cell_length_c       85.9378
_cell_angle_alpha    73.9956
_cell_angle_beta     73.9146
_cell_angle_gamma    73.9417

_space_group_name_H-M_alt    "P 1"
_space_group_IT_number       1

loop_
  _space_group_symop_operation_xyz
  'x, y, z'

loop_
  _atom_site_type_symbol
  _atom_site_label
  _atom_site_symmetry_multiplicity
  _atom_site_fract_x
  _atom_site_fract_y
  _atom_site_fract_z
  _atom_site_occupancy
  H   H1        1.0  0.34530  0.13832  0.12285  1.0000
  H   H2        1.0  0.32763  0.08094  0.26116  1.0000
  C   C1        1.0  0.28696  0.10139  0.42749  1.0000
  H   H3        1.0  0.26574  0.12279  0.42924  1.0000
  H   H4        1.0  0.27160  0.03097  0.05981  1.0000
  Fe  Fe1       1.0  0.28899  0.15504  0.39534  1.0000
  H   H5        1.0  0.20429  0.18127  0.29225  1.0000
  S   S1        1.0  0.26876  0.14519  0.39156  1.0000
  Fe  Fe2       1.0  0.32470  0.15809  0.38782  1.0000
  S   S2        1.0  0.34965  0.14653  0.37352  1.0000
  C   C2        1.0  0.12744  0.01143  0.30135  1.0000
  S   S3        1.0  0.31026  0.14069  0.40753  1.0000
  C   C3        1.0  0.14430  0.98511  0.26336  1.0000
  H   H6        1.0  0.09406  0.02253  0.28375  1.0000
  H   H7        1.0  0.08850  0.15933  0.19351  1.0000
  Fe  Fe3       1.0  0.41015  0.15670  0.27022  1.0000
  H   H8        1.0  0.11534  0.01669  0.27336  1.0000
  S   S4        1.0  0.40093  0.13418  0.27087  1.0000
  H   H9        1.0  0.24666  0.07719  0.19841  1.0000
  H   H10       1.0  0.28829  0.17045  0.08295  1.0000
  H   H11       1.0  0.18683  0.13434  0.29808  1.0000
  S   S5        1.0  0.42134  0.16048  0.28957  1.0000
  Fe  Fe4       1.0  0.28640  0.02007  0.14569  1.0000
  S   S6        1.0  0.25973  0.03372  0.14709  1.0000
  C   C4        1.0  0.34596  0.11246  0.12608  1.0000
  Fe  Fe5       1.0  0.29727  0.05056  0.14880  1.0000
  S   S7        1.0  0.27143  0.06602  0.15009  1.0000
  S   S8        1.0  0.31490  0.06642  0.14786  1.0000
  Fe  Fe6       1.0  0.26346  0.04340  0.16725  1.0000
  S   S9        1.0  0.24763  0.04654  0.19222  1.0000
  Fe  Fe7       1.0  0.27071  0.05492  0.12974  1.0000
  S   S10       1.0  0.26071  0.07108  0.10754  1.0000
  S   S11       1.0  0.28948  0.02835  0.16729  1.0000
  S   S12       1.0  0.29715  0.04080  0.12707  1.0000
  H   H12       1.0  0.00437  0.13503  0.25026  1.0000
  S   S13       1.0  0.27413  0.15596  0.05378  1.0000
  S   S14       1.0  0.05104  0.16416  0.29979  1.0000
  Fe  Fe8       1.0  0.29009  0.16072  0.00588  1.0000
  S   S15       1.0  0.27860  0.13951  0.02185  1.0000
  Fe  Fe9       1.0  0.26005  0.15899  0.03430  1.0000
  Fe  Fe10      1.0  0.29385  0.13852  0.03974  1.0000
  S   S16       1.0  0.30764  0.11563  0.05486  1.0000
  H   H13       1.0  0.36604  0.15928  0.21618  1.0000
  S   S17       1.0  0.30733  0.15811  0.02265  1.0000
  Fe  Fe11      1.0  0.05576  0.13300  0.25502  1.0000
  S   S18       1.0  0.03454  0.13923  0.27626  1.0000
  S   S19       1.0  0.06797  0.10828  0.24814  1.0000
  Fe  Fe12      1.0  0.05722  0.16879  0.23942  1.0000
  H   H14       1.0  0.20272  0.01271  0.21166  1.0000
  Fe  Fe13      1.0  0.04913  0.15730  0.27691  1.0000
  H   H15       1.0  0.19872  0.99420  0.23893  1.0000
  Fe  Fe14      1.0  0.02368  0.15953  0.25668  1.0000
  C   C5        1.0  0.21802  0.17473  0.04576  1.0000
  S   S20       1.0  0.07105  0.14941  0.25723  1.0000
  S   S21       1.0  0.04372  0.15183  0.23548  1.0000
  Fe  Fe15      1.0  0.18049  0.04536  0.26769  1.0000
  S   S22       1.0  0.16072  0.06304  0.25509  1.0000
  S   S23       1.0  0.19837  0.06005  0.26861  1.0000
  Fe  Fe16      1.0  0.16641  0.01526  0.26913  1.0000
  S   S24       1.0  0.14578  0.03116  0.25678  1.0000
  H   H16       1.0  0.27497  0.13409  0.44721  1.0000
  Fe  Fe17      1.0  0.16553  0.04426  0.23981  1.0000
  S   S25       1.0  0.17036  0.05004  0.21199  1.0000
  Fe  Fe18      1.0  0.14340  0.04811  0.27352  1.0000
  S   S26       1.0  0.12040  0.06087  0.28913  1.0000
  S   S27       1.0  0.18644  0.02732  0.25111  1.0000
  S   S28       1.0  0.16276  0.03140  0.28724  1.0000
  Fe  Fe19      1.0  0.36443  0.11839  0.20524  1.0000
  S   S29       1.0  0.34481  0.14124  0.19994  1.0000
  S   S30       1.0  0.38771  0.12665  0.20423  1.0000
  Fe  Fe20      1.0  0.34028  0.09597  0.20960  1.0000
  S   S31       1.0  0.31882  0.11754  0.20604  1.0000
  S   S32       1.0  0.33341  0.07148  0.21283  1.0000
  Fe  Fe21      1.0  0.33765  0.12791  0.18489  1.0000
  S   S33       1.0  0.33178  0.13885  0.15986  1.0000
  Fe  Fe22      1.0  0.32842  0.12830  0.22161  1.0000
  S   S34       1.0  0.31561  0.14159  0.24229  1.0000
  S   S35       1.0  0.35896  0.10617  0.18774  1.0000
  S   S36       1.0  0.34808  0.10562  0.22761  1.0000
  Fe  Fe23      1.0  0.25676  0.10688  0.32851  1.0000
  S   S37       1.0  0.24454  0.13223  0.31644  1.0000
  S   S38       1.0  0.28083  0.10612  0.33501  1.0000
  Fe  Fe24      1.0  0.22954  0.09115  0.32622  1.0000
  S   S39       1.0  0.21509  0.11551  0.31449  1.0000
  S   S40       1.0  0.21928  0.06834  0.33063  1.0000
  Fe  Fe25      1.0  0.24003  0.11940  0.29914  1.0000
  S   S41       1.0  0.24376  0.12747  0.27146  1.0000
  Fe  Fe26      1.0  0.22112  0.12561  0.33301  1.0000
  S   S42       1.0  0.20327  0.14406  0.34701  1.0000
  S   S43       1.0  0.25433  0.09441  0.30967  1.0000
  S   S44       1.0  0.23341  0.10091  0.34638  1.0000
  C   C6        1.0  0.19718  0.16265  0.33327  1.0000
  C   C7        1.0  0.20440  0.16487  0.31629  1.0000
  H   H17       1.0  0.30519  0.17733  0.09821  1.0000
  H   H18       1.0  0.28741  0.05689  0.21057  1.0000
  H   H19       1.0  0.37659  0.13047  0.30365  1.0000
  H   H20       1.0  0.12723  0.02459  0.30093  1.0000
  H   H21       1.0  0.21387  0.15508  0.31145  1.0000
  C   C8        1.0  0.36734  0.13029  0.31567  1.0000
  H   H22       1.0  0.30146  0.12076  0.45604  1.0000
  C   C9        1.0  0.22607  0.15745  0.99862  1.0000
  C   C10       1.0  0.32758  0.16028  0.15797  1.0000
  C   C11       1.0  0.38890  0.16336  0.15642  1.0000
  C   C12       1.0  0.48646  0.16552  0.29966  1.0000
  H   H23       1.0  0.25666  0.13724  0.99450  1.0000
  H   H24       1.0  0.13264  0.12994  0.33033  1.0000
  H   H25       1.0  0.10101  0.00609  0.32621  1.0000
  H   H26       1.0  0.31707  0.15913  0.18402  1.0000
  H   H27       1.0  0.37041  0.16431  0.24906  1.0000
  H   H28       1.0  0.16728  0.01047  0.21251  1.0000
  H   H29       1.0  0.27246  0.03539  0.11151  1.0000
  C   C13       1.0  0.29512  0.13911  0.24993  1.0000
  C   C14       1.0  0.28581  0.13798  0.23938  1.0000
  C   C15       1.0  0.26969  0.13508  0.24592  1.0000
  C   C16       1.0  0.26316  0.13274  0.26304  1.0000
  C   C17       1.0  0.27249  0.13398  0.27348  1.0000
  C   C18       1.0  0.28830  0.13750  0.26690  1.0000
  H   H30       1.0  0.29096  0.13954  0.22619  1.0000
  H   H31       1.0  0.26240  0.13441  0.23776  1.0000
  H   H32       1.0  0.26761  0.13215  0.28666  1.0000
  H   H33       1.0  0.29534  0.13860  0.27506  1.0000
  C   C19       1.0  0.20313  0.06224  0.28647  1.0000
  C   C20       1.0  0.20066  0.05090  0.30165  1.0000
  C   C21       1.0  0.20554  0.05288  0.31525  1.0000
  C   C22       1.0  0.21285  0.06619  0.31368  1.0000
  C   C23       1.0  0.21494  0.07769  0.29857  1.0000
  C   C24       1.0  0.20999  0.07576  0.28509  1.0000
  H   H34       1.0  0.19540  0.04041  0.30283  1.0000
  H   H35       1.0  0.20388  0.04396  0.32693  1.0000
  H   H36       1.0  0.22052  0.08799  0.29722  1.0000
  H   H37       1.0  0.21145  0.08481  0.27351  1.0000
  C   C25       1.0  0.27720  0.11600  0.43306  1.0000
  C   C26       1.0  0.10040  0.15649  0.29896  1.0000
  C   C27       1.0  0.08540  0.15576  0.29571  1.0000
  H   H38       1.0  0.11190  0.14841  0.29430  1.0000
  H   H39       1.0  0.08537  0.14706  0.28869  1.0000
  C   C28       1.0  0.08255  0.09533  0.25963  1.0000
  C   C29       1.0  0.08345  0.09854  0.27441  1.0000
  C   C30       1.0  0.09505  0.08782  0.28352  1.0000
  C   C31       1.0  0.10609  0.07424  0.27756  1.0000
  C   C32       1.0  0.10546  0.07127  0.26258  1.0000
  C   C33       1.0  0.09346  0.08161  0.25381  1.0000
  H   H40       1.0  0.07498  0.10907  0.27901  1.0000
  H   H41       1.0  0.09544  0.09010  0.29516  1.0000
  H   H42       1.0  0.11392  0.06080  0.25793  1.0000
  H   H43       1.0  0.09268  0.07902  0.24245  1.0000
  C   C34       1.0  0.09742  0.98861  0.29648  1.0000
  H   H44       1.0  0.28316  0.05886  0.19066  1.0000
  H   H45       1.0  0.14956  0.17492  0.28045  1.0000
  H   H46       1.0  0.30231  0.02236  0.09979  1.0000
  H   H47       1.0  0.31377  0.15715  0.12273  1.0000
  C   C35       1.0  0.22598  0.04884  0.19631  1.0000
  C   C36       1.0  0.21797  0.04632  0.18531  1.0000
  C   C37       1.0  0.20065  0.04738  0.18972  1.0000
  C   C38       1.0  0.19146  0.05097  0.20507  1.0000
  C   C39       1.0  0.19945  0.05415  0.21562  1.0000
  C   C40       1.0  0.21664  0.05294  0.21134  1.0000
  H   H48       1.0  0.22515  0.04321  0.17364  1.0000
  H   H49       1.0  0.19449  0.04498  0.18147  1.0000
  H   H50       1.0  0.19242  0.05739  0.22726  1.0000
  H   H51       1.0  0.22271  0.05497  0.21987  1.0000
  C   C41       1.0  0.31973  0.06744  0.16621  1.0000
  C   C42       1.0  0.31856  0.05467  0.18045  1.0000
  C   C43       1.0  0.32288  0.05587  0.19471  1.0000
  C   C44       1.0  0.32824  0.06991  0.19484  1.0000
  C   C45       1.0  0.32906  0.08278  0.18068  1.0000
  C   C46       1.0  0.32495  0.08149  0.16642  1.0000
  H   H52       1.0  0.31471  0.04369  0.18036  1.0000
  H   H53       1.0  0.32226  0.04583  0.20557  1.0000
  H   H54       1.0  0.33302  0.09373  0.18060  1.0000
  H   H55       1.0  0.32576  0.09147  0.15554  1.0000
  C   C47       1.0  0.27395  0.08310  0.09266  1.0000
  C   C48       1.0  0.29084  0.07997  0.09275  1.0000
  C   C49       1.0  0.30120  0.08968  0.08079  1.0000
  C   C50       1.0  0.29466  0.10287  0.06891  1.0000
  C   C51       1.0  0.27775  0.10609  0.06885  1.0000
  C   C52       1.0  0.26746  0.09611  0.08060  1.0000
  H   H56       1.0  0.29599  0.07003  0.10197  1.0000
  H   H57       1.0  0.31427  0.08701  0.08085  1.0000
  H   H58       1.0  0.27258  0.11625  0.05973  1.0000
  H   H59       1.0  0.25440  0.09862  0.08046  1.0000
  C   C53       1.0  0.39731  0.13225  0.25225  1.0000
  C   C54       1.0  0.38754  0.12127  0.25291  1.0000
  C   C55       1.0  0.38430  0.11962  0.23831  1.0000
  C   C56       1.0  0.39126  0.12858  0.22287  1.0000
  C   C57       1.0  0.40118  0.13942  0.22220  1.0000
  C   C58       1.0  0.40398  0.14146  0.23684  1.0000
  H   H60       1.0  0.38258  0.11388  0.26474  1.0000
  H   H61       1.0  0.37685  0.11104  0.23896  1.0000
  H   H62       1.0  0.40685  0.14615  0.21031  1.0000
  H   H63       1.0  0.41170  0.14979  0.23614  1.0000
  C   C59       1.0  0.27252  0.13500  0.37525  1.0000
  C   C60       1.0  0.25936  0.12971  0.37305  1.0000
  C   C61       1.0  0.26182  0.12115  0.36053  1.0000
  C   C62       1.0  0.27761  0.11733  0.35042  1.0000
  C   C63       1.0  0.29090  0.12237  0.35277  1.0000
  C   C64       1.0  0.28831  0.13148  0.36497  1.0000
  H   H64       1.0  0.24721  0.13210  0.38115  1.0000
  H   H65       1.0  0.25153  0.11724  0.35892  1.0000
  H   H66       1.0  0.30318  0.11921  0.34515  1.0000
  H   H67       1.0  0.29857  0.13541  0.36670  1.0000
  C   C65       1.0  0.35978  0.15995  0.35677  1.0000
  C   C66       1.0  0.37445  0.15328  0.34633  1.0000
  C   C67       1.0  0.38229  0.16361  0.33234  1.0000
  S   S45       1.0  0.29829  0.15650  0.45050  1.0000
  C   C68       1.0  0.26858  0.02725  0.10592  1.0000
  C   C69       1.0  0.22310  0.17013  0.36461  1.0000
  H   H68       1.0  0.37968  0.14006  0.34905  1.0000
  H   H69       1.0  0.39354  0.15836  0.32432  1.0000
  C   C70       1.0  0.19642  0.98491  0.23344  1.0000
  H   H70       1.0  0.16454  0.99894  0.23366  1.0000
  H   H71       1.0  0.24427  0.13413  0.98249  1.0000
  H   H72       1.0  0.24816  0.17128  0.32626  1.0000
  Fe  Fe27      1.0  0.30331  0.16059  0.42235  1.0000
  H   H73       1.0  0.39133  0.15366  0.16767  1.0000
  C   C71       1.0  0.26623  0.98716  0.14028  1.0000
  C   C72       1.0  0.10024  0.14965  0.19169  1.0000
  H   H74       1.0  0.37330  0.13343  0.32406  1.0000
  C   C73       1.0  0.24952  0.07279  0.23014  1.0000
  C   C74       1.0  0.26181  0.08166  0.21993  1.0000
  N   N1        1.0  0.09929  0.13414  0.20466  1.0000
  H   H75       1.0  0.13078  0.00411  0.31330  1.0000
  H   H76       1.0  0.31097  0.08392  0.42793  1.0000
  H   H77       1.0  0.20462  0.98251  0.18829  1.0000
  H   H78       1.0  0.26003  0.99848  0.14462  1.0000
  C   C75       1.0  0.26239  0.99306  0.07051  1.0000
  H   H79       1.0  0.37991  0.17390  0.22878  1.0000
  H   H80       1.0  0.09813  0.02745  0.31501  1.0000
  C   C76       1.0  0.24543  0.08686  0.25224  1.0000
  H   H81       1.0  0.33840  0.13000  0.33781  1.0000
  H   H82       1.0  0.25995  0.10494  0.24748  1.0000
  H   H83       1.0  0.14021  0.99835  0.26224  1.0000
  H   H84       1.0  0.23930  0.08887  0.26460  1.0000
  H   H85       1.0  0.34439  0.15902  0.22463  1.0000
  C   C77       1.0  0.28238  0.12272  0.44339  1.0000
  H   H86       1.0  0.21374  0.99498  0.20317  1.0000
  C   C78       1.0  0.33218  0.17052  0.14255  1.0000
  C   C79       1.0  0.24022  0.16603  0.33813  1.0000
  H   H87       1.0  0.46455  0.16159  0.29470  1.0000
  S   S46       1.0  0.23317  0.15813  0.03885  1.0000
  C   C80       1.0  0.30145  0.16546  0.10234  1.0000
  N   N2        1.0  0.28672  0.11813  0.11920  1.0000
  C   C81       1.0  0.27881  0.11564  0.13716  1.0000
  C   C82       1.0  0.27471  0.11642  0.11050  1.0000
  C   C83       1.0  0.30170  0.10461  0.11674  1.0000
  C   C84       1.0  0.29166  0.13441  0.11320  1.0000
  N   N3        1.0  0.26964  0.07909  0.20289  1.0000
  C   C85       1.0  0.30173  0.13867  0.12135  1.0000
  H   H88       1.0  0.23041  0.15023  0.01015  1.0000
  C   C86       1.0  0.30632  0.15406  0.11611  1.0000
  H   H89       1.0  0.32407  0.17585  0.43906  1.0000
  H   H90       1.0  0.26817  0.12619  0.13973  1.0000
  H   H91       1.0  0.27404  0.10396  0.14171  1.0000
  H   H92       1.0  0.24779  0.15400  0.34366  1.0000
  H   H93       1.0  0.26311  0.12627  0.11180  1.0000
  H   H94       1.0  0.27092  0.10422  0.11548  1.0000
  H   H95       1.0  0.28019  0.11694  0.09708  1.0000
  H   H96       1.0  0.29848  0.09214  0.12068  1.0000
  H   H97       1.0  0.30828  0.10617  0.10347  1.0000
  H   H98       1.0  0.30622  0.13014  0.13186  1.0000
  H   H99       1.0  0.44006  0.17429  0.31527  1.0000
  C   C87       1.0  0.09845  0.01454  0.31435  1.0000
  N   N4        1.0  0.30207  0.08208  0.26132  1.0000
  C   C88       1.0  0.30194  0.09486  0.24567  1.0000
  C   C89       1.0  0.29647  0.09098  0.27517  1.0000
  C   C90       1.0  0.31947  0.07275  0.26134  1.0000
  C   C91       1.0  0.29156  0.07051  0.26243  1.0000
  C   C92       1.0  0.29528  0.06113  0.25007  1.0000
  C   C93       1.0  0.27761  0.06802  0.27570  1.0000
  C   C94       1.0  0.28568  0.04998  0.25096  1.0000
  C   C95       1.0  0.26806  0.05686  0.27645  1.0000
  C   C96       1.0  0.27209  0.04786  0.26411  1.0000
  H   H100      1.0  0.28911  0.10201  0.24502  1.0000
  H   H101      1.0  0.30953  0.10394  0.24455  1.0000
  H   H102      1.0  0.30713  0.08940  0.23452  1.0000
  H   H103      1.0  0.28355  0.09858  0.27560  1.0000
  H   H104      1.0  0.30441  0.09981  0.27380  1.0000
  H   H105      1.0  0.29695  0.08222  0.28738  1.0000
  H   H106      1.0  0.32525  0.06719  0.25024  1.0000
  H   H107      1.0  0.32007  0.06245  0.27252  1.0000
  H   H108      1.0  0.30577  0.06223  0.23967  1.0000
  H   H109      1.0  0.27378  0.07448  0.28570  1.0000
  H   H110      1.0  0.28886  0.04284  0.24145  1.0000
  H   H111      1.0  0.25741  0.05523  0.28666  1.0000
  H   H112      1.0  0.26461  0.03925  0.26476  1.0000
  H   H113      1.0  0.15988  0.16008  0.26757  1.0000
  H   H114      1.0  0.15498  0.08530  0.19996  1.0000
  S   S47       1.0  0.11935  0.16771  0.31292  1.0000
  H   H115      1.0  0.26714  0.01580  0.11561  1.0000
  H   H116      1.0  0.17749  0.08506  0.30945  1.0000
  H   H117      1.0  0.15865  0.11999  0.34083  1.0000
  C   C97       1.0  0.13015  0.09300  0.21377  1.0000
  H   H118      1.0  0.18065  0.18093  0.07286  1.0000
  C   C98       1.0  0.31839  0.17621  0.45191  1.0000
  H   H119      1.0  0.25689  0.16723  0.35854  1.0000
  C   C99       1.0  0.29190  0.16156  0.09380  1.0000
  N   N5        1.0  0.18935  0.99293  0.21851  1.0000
  H   H120      1.0  0.27525  0.99224  0.10451  1.0000
  H   H121      1.0  0.31860  0.17209  0.05130  1.0000
  C   C100      1.0  0.35582  0.16034  0.22739  1.0000
  H   H122      1.0  0.26844  0.05306  0.20894  1.0000
  H   H123      1.0  0.26127  0.01323  0.04920  1.0000
  H   H124      1.0  0.16659  0.13259  0.29838  1.0000
  H   H125      1.0  0.13766  0.00749  0.29101  1.0000
  C   C101      1.0  0.30741  0.10120  0.44279  1.0000
  C   C102      1.0  0.09553  0.13869  0.22096  1.0000
  H   H126      1.0  0.28785  0.04729  0.08533  1.0000
  H   H127      1.0  0.12332  0.98286  0.25550  1.0000
  N   N6        1.0  0.11121  0.00945  0.29998  1.0000
  C   C103      1.0  0.39135  0.17775  0.18341  1.0000
  S   S48       1.0  0.29601  0.99379  0.14099  1.0000
  C   C104      1.0  0.36836  0.17524  0.23866  1.0000
  C   C105      1.0  0.17347  0.00480  0.22319  1.0000
  H   H128      1.0  0.29598  0.00326  0.10489  1.0000
  C   C106      1.0  0.26550  0.09332  0.22663  1.0000
  C   C107      1.0  0.29700  0.01465  0.09495  1.0000
  H   H129      1.0  0.35594  0.16863  0.16651  1.0000
  H   H130      1.0  0.27454  0.10076  0.21981  1.0000
  H   H131      1.0  0.48525  0.15717  0.31172  1.0000
  C   C108      1.0  0.14386  0.09519  0.20082  1.0000
  H   H132      1.0  0.28767  0.11441  0.14496  1.0000
  C   C109      1.0  0.12893  0.12283  0.18998  1.0000
  S   S49       1.0  0.99674  0.16931  0.25418  1.0000
  C   C110      1.0  0.10712  0.02106  0.28454  1.0000
  C   C111      1.0  0.27748  0.06124  0.20336  1.0000
  H   H133      1.0  0.18147  0.13458  0.27904  1.0000
  H   H134      1.0  0.34649  0.10961  0.13907  1.0000
  H   H135      1.0  0.12832  0.11768  0.31008  1.0000
  C   C112      1.0  0.08518  0.12788  0.20362  1.0000
  C   C113      1.0  0.28278  0.08865  0.19405  1.0000
  H   H136      1.0  0.13067  0.08138  0.22296  1.0000
  H   H137      1.0  0.30625  0.01082  0.08397  1.0000
  H   H138      1.0  0.25060  0.09766  0.19216  1.0000
  C   C114      1.0  0.32108  0.16699  0.17214  1.0000
  C   C115      1.0  0.47461  0.16812  0.29009  1.0000
  N   N7        1.0  0.37765  0.17897  0.16055  1.0000
  H   H139      1.0  0.11032  0.15532  0.19209  1.0000
  C   C116      1.0  0.36218  0.17490  0.17203  1.0000
  H   H140      1.0  0.29762  0.06946  0.42081  1.0000
  S   S50       1.0  0.17033  0.98717  0.27546  1.0000
  C   C117      1.0  0.27046  0.01888  0.06754  1.0000
  C   C118      1.0  0.20109  0.00281  0.20647  1.0000
  H   H141      1.0  0.28862  0.08605  0.18146  1.0000
  S   S51       1.0  0.28059  0.17307  0.41204  1.0000
  C   C119      1.0  0.27245  0.99725  0.09237  1.0000
  H   H142      1.0  0.30256  0.13088  0.98159  1.0000
  C   C120      1.0  0.07035  0.16576  0.30220  1.0000
  H   H143      1.0  0.14463  0.07042  0.31320  1.0000
  C   C121      1.0  0.28310  0.03995  0.07946  1.0000
  H   H144      1.0  0.34258  0.16795  0.30389  1.0000
  C   C122      1.0  0.18241  0.18076  0.98256  1.0000
  H   H145      1.0  0.24580  0.06393  0.22582  1.0000
  N   N8        1.0  0.35119  0.14198  0.31396  1.0000
  H   H146      1.0  0.32884  0.15165  0.33074  1.0000
  C   C123      1.0  0.35429  0.15888  0.30608  1.0000
  C   C124      1.0  0.30240  0.09440  0.43242  1.0000
  C   C125      1.0  0.34332  0.13677  0.30345  1.0000
  C   C126      1.0  0.35180  0.13532  0.28700  1.0000
  C   C127      1.0  0.32724  0.13301  0.30905  1.0000
  C   C128      1.0  0.34473  0.13020  0.27692  1.0000
  C   C129      1.0  0.32033  0.12781  0.29889  1.0000
  C   C130      1.0  0.32909  0.12638  0.28287  1.0000
  H   H147      1.0  0.18750  0.16782  0.98191  1.0000
  C   C131      1.0  0.14326  0.11006  0.18895  1.0000
  C   C132      1.0  0.20106  0.15796  0.27217  1.0000
  C   C133      1.0  0.25118  0.14299  0.98335  1.0000
  H   H148      1.0  0.13306  0.09166  0.28142  1.0000
  H   H149      1.0  0.17653  0.15812  0.31073  1.0000
  C   C134      1.0  0.16602  0.16200  0.30429  1.0000
  H   H150      1.0  0.21182  0.16861  0.36160  1.0000
  H   H151      1.0  0.15124  0.06763  0.29226  1.0000
  H   H152      1.0  0.36407  0.13797  0.28187  1.0000
  H   H153      1.0  0.31972  0.13390  0.32125  1.0000
  H   H154      1.0  0.35146  0.12899  0.26446  1.0000
  H   H155      1.0  0.30812  0.12479  0.30353  1.0000
  H   H156      1.0  0.32375  0.12231  0.27502  1.0000
  H   H157      1.0  0.17548  0.01515  0.22732  1.0000
  H   H158      1.0  0.12932  0.13398  0.18037  1.0000
  H   H159      1.0  0.35900  0.14933  0.23733  1.0000
  C   C135      1.0  0.10052  0.16759  0.30827  1.0000
  H   H160      1.0  0.25763  0.98530  0.06569  1.0000
  C   C136      1.0  0.11577  0.10565  0.21490  1.0000
  H   H161      1.0  0.20555  0.14477  0.27632  1.0000
  N   N9        1.0  0.34402  0.12457  0.07424  1.0000
  C   C137      1.0  0.34532  0.11006  0.06732  1.0000
  C   C138      1.0  0.32802  0.13625  0.07203  1.0000
  C   C139      1.0  0.35790  0.13273  0.06422  1.0000
  C   C140      1.0  0.34469  0.12014  0.09202  1.0000
  C   C141      1.0  0.34455  0.13255  0.10016  1.0000
  C   C142      1.0  0.34532  0.10368  0.10179  1.0000
  C   C143      1.0  0.34530  0.12867  0.11688  1.0000
  C   C144      1.0  0.34592  0.09999  0.11857  1.0000
  H   H162      1.0  0.35724  0.10083  0.06826  1.0000
  H   H163      1.0  0.33475  0.10382  0.07358  1.0000
  H   H164      1.0  0.34475  0.11386  0.05394  1.0000
  H   H165      1.0  0.31728  0.13047  0.07907  1.0000
  H   H166      1.0  0.32703  0.13998  0.05877  1.0000
  H   H167      1.0  0.32632  0.14786  0.07624  1.0000
  H   H168      1.0  0.37015  0.12456  0.06605  1.0000
  H   H169      1.0  0.35802  0.13580  0.05072  1.0000
  H   H170      1.0  0.35709  0.14466  0.06743  1.0000
  H   H171      1.0  0.34379  0.14542  0.09369  1.0000
  H   H172      1.0  0.34538  0.09338  0.09682  1.0000
  H   H173      1.0  0.34632  0.08736  0.12586  1.0000
  S   S52       1.0  0.42659  0.17051  0.24891  1.0000
  C   C145      1.0  0.25729  0.09585  0.24255  1.0000
  C   C146      1.0  0.21294  0.16681  0.26178  1.0000
  H   H174      1.0  0.23221  0.06835  0.25359  1.0000
  H   H175      1.0  0.12396  0.09521  0.30180  1.0000
  N   N10       1.0  0.17117  0.15726  0.28798  1.0000
  C   C147      1.0  0.25669  0.08428  0.19297  1.0000
  H   H176      1.0  0.27111  0.04796  0.07663  1.0000
  H   H177      1.0  0.08574  0.01432  0.31369  1.0000
  H   H178      1.0  0.33729  0.16539  0.13156  1.0000
  H   H179      1.0  0.29226  0.03830  0.06768  1.0000
  H   H180      1.0  0.21792  0.15061  0.99631  1.0000
  C   C148      1.0  0.28700  0.14630  0.09909  1.0000
  C   C149      1.0  0.11471  0.12099  0.20308  1.0000
  H   H181      1.0  0.10542  0.10335  0.22512  1.0000
  H   H182      1.0  0.10604  0.14291  0.22256  1.0000
  H   H183      1.0  0.10222  0.14743  0.17906  1.0000
  H   H184      1.0  0.08431  0.14895  0.22229  1.0000
  H   H185      1.0  0.09284  0.12821  0.23155  1.0000
  H   H186      1.0  0.36340  0.15920  0.29400  1.0000
  H   H187      1.0  0.40112  0.16568  0.14858  1.0000
  H   H188      1.0  0.07333  0.13746  0.20478  1.0000
  H   H189      1.0  0.31068  0.10411  0.12415  1.0000
  H   H190      1.0  0.27771  0.10229  0.19223  1.0000
  H   H191      1.0  0.27966  0.14415  0.09181  1.0000
  H   H192      1.0  0.08758  0.12405  0.19166  1.0000
  S   S53       1.0  0.30374  0.17110  0.37475  1.0000
  C   C150      1.0  0.34088  0.14244  0.33095  1.0000
  H   H193      1.0  0.08278  0.11693  0.21373  1.0000
  H   H194      1.0  0.29302  0.08524  0.20082  1.0000
  H   H195      1.0  0.35954  0.16356  0.31397  1.0000
  H   H196      1.0  0.15569  0.15621  0.31266  1.0000
  N   N11       1.0  0.28225  0.09436  0.41593  1.0000
  C   C151      1.0  0.26466  0.10113  0.41435  1.0000
  C   C152      1.0  0.29317  0.09826  0.39932  1.0000
  C   C153      1.0  0.28440  0.07602  0.42155  1.0000
  C   C154      1.0  0.26445  0.00879  0.06127  1.0000
  H   H197      1.0  0.38347  0.15765  0.14954  1.0000
  H   H198      1.0  0.30639  0.09183  0.39915  1.0000
  S   S54       1.0  0.03640  0.17811  0.25927  1.0000
  C   C155      1.0  0.30541  0.16804  0.46028  1.0000
  H   H199      1.0  0.25668  0.16288  0.99786  1.0000
  H   H200      1.0  0.26237  0.11457  0.40847  1.0000
  H   H201      1.0  0.26119  0.09516  0.40619  1.0000
  H   H202      1.0  0.25590  0.09932  0.42665  1.0000
  H   H203      1.0  0.10855  0.03384  0.28362  1.0000
  H   H204      1.0  0.28925  0.09475  0.38964  1.0000
  C   C156      1.0  0.20413  0.17110  0.05799  1.0000
  H   H205      1.0  0.00530  0.16724  0.21448  1.0000
  H   H206      1.0  0.27975  0.07069  0.41369  1.0000
  H   H207      1.0  0.19643  0.00929  0.19495  1.0000
  H   H208      1.0  0.16157  0.17567  0.30309  1.0000
  H   H209      1.0  0.15398  0.11164  0.17887  1.0000
  H   H210      1.0  0.17946  0.17364  0.35253  1.0000
  H   H211      1.0  0.31932  0.09578  0.44626  1.0000
  H   H212      1.0  0.18092  0.09754  0.33019  1.0000
  H   H213      1.0  0.26193  0.08214  0.18015  1.0000
  C   C157      1.0  0.27469  0.01335  0.08335  1.0000
  H   H214      1.0  0.20334  0.15829  0.06352  1.0000
  C   C158      1.0  0.17683  0.13888  0.29092  1.0000
  C   C159      1.0  0.24893  0.17952  0.35418  1.0000
  C   C160      1.0  0.11129  0.99221  0.29971  1.0000
  H   H215      1.0  0.36569  0.11728  0.32078  1.0000
  C   C161      1.0  0.26637  0.98731  0.08604  1.0000
  C   C162      1.0  0.29738  0.11528  0.44832  1.0000
  H   H216      1.0  0.22951  0.15758  0.37042  1.0000
  H   H217      1.0  0.25607  0.03372  0.10333  1.0000
  H   H218      1.0  0.29293  0.11182  0.39543  1.0000
  N   N12       1.0  0.28076  0.02371  0.09062  1.0000
  H   H219      1.0  0.13145  0.11152  0.28518  1.0000
  H   H220      1.0  0.27749  0.07259  0.43460  1.0000
  C   C163      1.0  0.24154  0.07533  0.24607  1.0000
  H   H221      1.0  0.14692  0.15432  0.28778  1.0000
  H   H222      1.0  0.34719  0.14620  0.33860  1.0000
  N   N13       1.0  0.15069  0.09207  0.29503  1.0000
  C   C164      1.0  0.16334  0.09578  0.27958  1.0000
  C   C165      1.0  0.15333  0.07376  0.30113  1.0000
  C   C166      1.0  0.13406  0.09797  0.29074  1.0000
  C   C167      1.0  0.15252  0.09985  0.30765  1.0000
  C   C168      1.0  0.14004  0.11284  0.31395  1.0000
  C   C169      1.0  0.16737  0.09474  0.31374  1.0000
  C   C170      1.0  0.14233  0.12001  0.32573  1.0000
  C   C171      1.0  0.16949  0.10189  0.32559  1.0000
  C   C172      1.0  0.15698  0.11448  0.33161  1.0000
  H   H223      1.0  0.17624  0.09069  0.28151  1.0000
  H   H224      1.0  0.16244  0.09012  0.26974  1.0000
  H   H225      1.0  0.16191  0.10940  0.27460  1.0000
  H   H226      1.0  0.16622  0.06787  0.30277  1.0000
  H   H227      1.0  0.34080  0.16723  0.25758  1.0000
  H   H228      1.0  0.21830  0.16952  0.00136  1.0000
  H   H229      1.0  0.38974  0.16517  0.18895  1.0000
  H   H230      1.0  0.18273  0.17616  0.00798  1.0000
  C   C173      1.0  0.15635  0.16183  0.28055  1.0000
  H   H231      1.0  0.40334  0.17767  0.20249  1.0000
  N   N14       1.0  0.24027  0.15968  0.98433  1.0000
  N   N15       1.0  0.35346  0.17616  0.23250  1.0000
  C   C174      1.0  0.33882  0.17742  0.24655  1.0000
  H   H232      1.0  0.08650  0.99820  0.29446  1.0000
  H   H233      1.0  0.25970  0.17343  0.97647  1.0000
  H   H234      1.0  0.21884  0.17775  0.37419  1.0000
  H   H235      1.0  0.22978  0.16268  0.33537  1.0000
  C   C175      1.0  0.47608  0.17883  0.27445  1.0000
  C   C176      1.0  0.35313  0.17705  0.35332  1.0000
  C   C177      1.0  0.18492  0.17537  0.33939  1.0000
  S   S55       1.0  0.29460  0.16699  0.97771  1.0000
  H   H236      1.0  0.32739  0.17641  0.24345  1.0000
  C   C178      1.0  0.18415  0.16615  0.27705  1.0000
  C   C179      1.0  0.25009  0.16977  0.98765  1.0000
  Fe  Fe28      1.0  0.28664  0.17566  0.03582  1.0000
  Fe  Fe29      1.0  0.43587  0.17667  0.26823  1.0000
  C   C180      1.0  0.07052  0.17683  0.31149  1.0000
  S   S56       1.0  0.38882  0.17858  0.27227  1.0000
  H   H237      1.0  0.22577  0.16034  0.25829  1.0000
  S   S57       1.0  0.31946  0.17685  0.40359  1.0000
  H   H238      1.0  0.36453  0.16638  0.18386  1.0000
  H   H239      1.0  0.34064  0.17185  0.06532  1.0000
  N   N16       1.0  0.23414  0.17775  0.34952  1.0000
  C   C181      1.0  0.08557  0.17796  0.31427  1.0000
  H   H240      1.0  0.01429  0.16861  0.19263  1.0000
  H   H241      1.0  0.02181  0.17755  0.20505  1.0000
  S   S58       1.0  0.27056  0.18030  0.01755  1.0000
  C   C182      1.0  0.01038  0.17552  0.20279  1.0000
  C   C183      1.0  0.37568  0.18073  0.32899  1.0000
  H   H242      1.0  0.24232  0.18132  0.99158  1.0000
  C   C184      1.0  0.19895  0.17968  0.30540  1.0000
  C   C185      1.0  0.99174  0.14078  0.24889  1.0000
  Fe  Fe30      1.0  0.04501  0.13781  0.71952  1.0000
  C   C186      1.0  0.25868  0.04206  0.86404  1.0000
  C   C187      1.0  0.19542  0.99111  0.68506  1.0000
  H   H243      1.0  0.31334  0.12139  0.53886  1.0000
  H   H244      1.0  0.00390  0.15184  0.71047  1.0000
  Fe  Fe31      1.0  0.21706  0.07131  0.78616  1.0000
  S   S59       1.0  0.23932  0.05283  0.77659  1.0000
  S   S60       1.0  0.19586  0.07984  0.77298  1.0000
  Fe  Fe32      1.0  0.23336  0.07622  0.81142  1.0000
  S   S61       1.0  0.22768  0.09007  0.83214  1.0000
  Fe  Fe33      1.0  0.25393  0.07029  0.77777  1.0000
  S   S62       1.0  0.27493  0.07534  0.75602  1.0000
  S   S63       1.0  0.23156  0.08977  0.78529  1.0000
  S   S64       1.0  0.21660  0.05937  0.81299  1.0000
  Fe  Fe34      1.0  0.24609  0.14065  0.90100  1.0000
  S   S65       1.0  0.26221  0.11534  0.90730  1.0000
  S   S66       1.0  0.21864  0.14732  0.91099  1.0000
  Fe  Fe35      1.0  0.27462  0.15587  0.87913  1.0000
  S   S67       1.0  0.29340  0.13185  0.88344  1.0000
  C   C188      1.0  0.00191  0.17646  0.68327  1.0000
  Fe  Fe36      1.0  0.27420  0.12027  0.88008  1.0000
  S   S68       1.0  0.28150  0.10152  0.86374  1.0000
  Fe  Fe37      1.0  0.27970  0.12925  0.91023  1.0000
  S   S69       1.0  0.29232  0.12072  0.93211  1.0000
  S   S70       1.0  0.25662  0.14460  0.87364  1.0000
  S   S71       1.0  0.26249  0.15408  0.90607  1.0000
  C   C189      1.0  0.31669  0.13111  0.49677  1.0000
  Fe  Fe38      1.0  0.23912  0.11713  0.60517  1.0000
  S   S72       1.0  0.24580  0.13053  0.62049  1.0000
  S   S73       1.0  0.25052  0.12184  0.57788  1.0000
  Fe  Fe39      1.0  0.21356  0.10298  0.63363  1.0000
  S   S74       1.0  0.21792  0.11506  0.65156  1.0000
  S   S75       1.0  0.19210  0.09029  0.64194  1.0000
  Fe  Fe40      1.0  0.21851  0.13735  0.63070  1.0000
  H   H245      1.0  0.31570  0.12761  0.64661  1.0000
  Fe  Fe41      1.0  0.24487  0.10717  0.64014  1.0000
  S   S76       1.0  0.26341  0.09970  0.65633  1.0000
  S   S77       1.0  0.21164  0.12614  0.61364  1.0000
  S   S78       1.0  0.24070  0.09280  0.62387  1.0000
  N   N17       1.0  0.33737  0.13349  0.51140  1.0000
  H   H246      1.0  0.32867  0.15917  0.80626  1.0000
  H   H247      1.0  0.32646  0.15966  0.50799  1.0000
  H   H248      1.0  0.00631  0.16625  0.80265  1.0000
  H   H249      1.0  0.28807  0.16247  0.48354  1.0000
  C   C190      1.0  0.24630  0.17770  0.60510  1.0000
  Fe  Fe42      1.0  0.32624  0.15198  0.68258  1.0000
  H   H250      1.0  0.30061  0.17834  0.76835  1.0000
  S   S79       1.0  0.35050  0.13715  0.67118  1.0000
  Fe  Fe43      1.0  0.29852  0.15602  0.71300  1.0000
  C   C191      1.0  0.22380  0.17813  0.89427  1.0000
  S   S80       1.0  0.28828  0.14735  0.74026  1.0000
  Fe  Fe44      1.0  0.29080  0.16542  0.67878  1.0000
  S   S81       1.0  0.27187  0.16777  0.66419  1.0000
  C   C192      1.0  0.07110  0.17165  0.67199  1.0000
  H   H251      1.0  0.30372  0.15392  0.82304  1.0000
  S   S82       1.0  0.30326  0.14157  0.69339  1.0000
  S   S83       1.0  0.32283  0.16406  0.70362  1.0000
  Fe  Fe45      1.0  0.15610  0.99648  0.73290  1.0000
  S   S84       1.0  0.13644  0.01411  0.74701  1.0000
  H   H252      1.0  0.18194  0.00976  0.66807  1.0000
  Fe  Fe46      1.0  0.17712  0.02248  0.71527  1.0000
  S   S85       1.0  0.15952  0.04223  0.72784  1.0000
  S   S86       1.0  0.20186  0.02612  0.69892  1.0000
  Fe  Fe47      1.0  0.15772  0.02209  0.75082  1.0000
  S   S87       1.0  0.16040  0.02329  0.77575  1.0000
  Fe  Fe48      1.0  0.13976  0.03290  0.72277  1.0000
  S   S88       1.0  0.12036  0.05251  0.71094  1.0000
  S   S89       1.0  0.17713  0.00315  0.73867  1.0000
  S   S90       1.0  0.15768  0.01453  0.70826  1.0000
  H   H253      1.0  0.16302  0.12604  0.67409  1.0000
  Fe  Fe49      1.0  0.04402  0.10870  0.74848  1.0000
  S   S91       1.0  0.03297  0.11599  0.72595  1.0000
  S   S92       1.0  0.05651  0.08296  0.75980  1.0000
  C   C193      1.0  0.12077  0.13512  0.67134  1.0000
  Fe  Fe50      1.0  0.01170  0.13160  0.74073  1.0000
  C   C194      1.0  0.39651  0.16885  0.68685  1.0000
  S   S93       1.0  0.05799  0.12916  0.74075  1.0000
  S   S94       1.0  0.02165  0.12245  0.76395  1.0000
  C   C195      1.0  0.33687  0.15519  0.61666  1.0000
  H   H254      1.0  0.27013  0.06650  0.89027  1.0000
  C   C196      1.0  0.16856  0.17368  0.87105  1.0000
  C   C197      1.0  0.36828  0.16517  0.69665  1.0000
  C   C198      1.0  0.30723  0.15780  0.62756  1.0000
  C   C199      1.0  0.24755  0.05644  0.86901  1.0000
  S   S95       1.0  0.27860  0.18120  0.86470  1.0000
  C   C200      1.0  0.38505  0.15886  0.69065  1.0000
  H   H255      1.0  0.30007  0.15076  0.90574  1.0000
  C   C201      1.0  0.13535  0.12265  0.66776  1.0000
  C   C202      1.0  0.35013  0.12364  0.87002  1.0000
  C   C203      1.0  0.07806  0.16996  0.76298  1.0000
  C   C204      1.0  0.10195  0.06007  0.72438  1.0000
  C   C205      1.0  0.09832  0.05217  0.74111  1.0000
  C   C206      1.0  0.08382  0.05880  0.75174  1.0000
  C   C207      1.0  0.07320  0.07362  0.74581  1.0000
  C   C208      1.0  0.07672  0.08143  0.72904  1.0000
  C   C209      1.0  0.09095  0.07451  0.71830  1.0000
  H   H256      1.0  0.10662  0.04092  0.74583  1.0000
  H   H257      1.0  0.08101  0.05263  0.76468  1.0000
  H   H258      1.0  0.06853  0.09283  0.72436  1.0000
  H   H259      1.0  0.09351  0.08044  0.70529  1.0000
  C   C210      1.0  0.29589  0.11952  0.52664  1.0000
  C   C211      1.0  0.33745  0.15092  0.50233  1.0000
  Fe  Fe51      1.0  0.31790  0.17016  0.54989  1.0000
  H   H260      1.0  0.31764  0.16890  0.91957  1.0000
  H   H261      1.0  0.20425  0.08448  0.70935  1.0000
  H   H262      1.0  0.32514  0.14200  0.65029  1.0000
  H   H263      1.0  0.18086  0.14105  0.88617  1.0000
  C   C212      1.0  0.34015  0.13189  0.52814  1.0000
  C   C213      1.0  0.18467  0.16681  0.61731  1.0000
  H   H264      1.0  0.09520  0.11161  0.69981  1.0000
  C   C214      1.0  0.19499  0.07238  0.65762  1.0000
  C   C215      1.0  0.18118  0.06609  0.66757  1.0000
  C   C216      1.0  0.18324  0.05191  0.68034  1.0000
  C   C217      1.0  0.19919  0.04375  0.68287  1.0000
  C   C218      1.0  0.21304  0.04983  0.67268  1.0000
  C   C219      1.0  0.21092  0.06433  0.66026  1.0000
  H   H265      1.0  0.16886  0.07218  0.66544  1.0000
  H   H266      1.0  0.17250  0.04720  0.68806  1.0000
  H   H267      1.0  0.22543  0.04334  0.67432  1.0000
  H   H268      1.0  0.22164  0.06905  0.65248  1.0000
  C   C220      1.0  0.26575  0.11831  0.65923  1.0000
  C   C221      1.0  0.25360  0.13284  0.65626  1.0000
  C   C222      1.0  0.25575  0.14798  0.65752  1.0000
  C   C223      1.0  0.26967  0.14859  0.66255  1.0000
  C   C224      1.0  0.28160  0.13398  0.66608  1.0000
  C   C225      1.0  0.27969  0.11883  0.66437  1.0000
  H   H269      1.0  0.24242  0.13247  0.65307  1.0000
  H   H270      1.0  0.24655  0.15917  0.65459  1.0000
  H   H271      1.0  0.29255  0.13438  0.66963  1.0000
  H   H272      1.0  0.28910  0.10761  0.66675  1.0000
  C   C226      1.0  0.01817  0.17957  0.67661  1.0000
  H   H273      1.0  0.22348  0.14327  0.86368  1.0000
  H   H274      1.0  0.29308  0.15333  0.54660  1.0000
  H   H275      1.0  0.33688  0.18017  0.88531  1.0000
  C   C227      1.0  0.18730  0.16974  0.63152  1.0000
  H   H276      1.0  0.28267  0.02546  0.86677  1.0000
  C   C228      1.0  0.29284  0.15381  0.96592  1.0000
  C   C229      1.0  0.19520  0.14898  0.85422  1.0000
  C   C230      1.0  0.30336  0.16262  0.89806  1.0000
  C   C231      1.0  0.32484  0.16916  0.83640  1.0000
  C   C232      1.0  0.29149  0.13367  0.94537  1.0000
  C   C233      1.0  0.28573  0.15092  0.94133  1.0000
  C   C234      1.0  0.28683  0.16096  0.95131  1.0000
  C   C235      1.0  0.46445  0.16557  0.59650  1.0000
  H   H277      1.0  0.28063  0.15658  0.93043  1.0000
  H   H278      1.0  0.16158  0.99310  0.67058  1.0000
  H   H279      1.0  0.12029  0.08930  0.69418  1.0000
  C   C236      1.0  0.30976  0.16786  0.84795  1.0000
  H   H280      1.0  0.04377  0.17410  0.70885  1.0000
  H   H281      1.0  0.32745  0.16703  0.59408  1.0000
  C   C237      1.0  0.22532  0.99965  0.78431  1.0000
  C   C238      1.0  0.32157  0.12932  0.51178  1.0000
  H   H282      1.0  0.30736  0.15576  0.85448  1.0000
  H   H283      1.0  0.33399  0.15802  0.83408  1.0000
  H   H284      1.0  0.29816  0.12932  0.48513  1.0000
  C   C239      1.0  0.07586  0.17913  0.77496  1.0000
  C   C240      1.0  0.18546  0.06433  0.77446  1.0000
  C   C241      1.0  0.18789  0.04921  0.78594  1.0000
  C   C242      1.0  0.17990  0.03674  0.78649  1.0000
  C   C243      1.0  0.16977  0.03925  0.77533  1.0000
  C   C244      1.0  0.16728  0.05440  0.76392  1.0000
  C   C245      1.0  0.17501  0.06698  0.76358  1.0000
  H   H285      1.0  0.19593  0.04712  0.79439  1.0000
  H   H286      1.0  0.18184  0.02505  0.79537  1.0000
  H   H287      1.0  0.15930  0.05647  0.75545  1.0000
  H   H288      1.0  0.17306  0.07869  0.75474  1.0000
  C   C246      1.0  0.28009  0.09453  0.75308  1.0000
  C   C247      1.0  0.29213  0.09954  0.73916  1.0000
  C   C248      1.0  0.29501  0.11562  0.73541  1.0000
  C   C249      1.0  0.28591  0.12673  0.74561  1.0000
  C   C250      1.0  0.27438  0.12148  0.75995  1.0000
  C   C251      1.0  0.27148  0.10538  0.76371  1.0000
  H   H289      1.0  0.29903  0.09107  0.73108  1.0000
  H   H290      1.0  0.30438  0.11936  0.72470  1.0000
  H   H291      1.0  0.26733  0.13003  0.76789  1.0000
  H   H292      1.0  0.26238  0.10150  0.77463  1.0000
  C   C252      1.0  0.24309  0.09387  0.83989  1.0000
  C   C253      1.0  0.23809  0.10406  0.85148  1.0000
  C   C254      1.0  0.24980  0.10679  0.85857  1.0000
  C   C255      1.0  0.26661  0.09911  0.85434  1.0000
  C   C256      1.0  0.27163  0.08895  0.84271  1.0000
  C   C257      1.0  0.25994  0.08645  0.83538  1.0000
  H   H293      1.0  0.22507  0.10966  0.85514  1.0000
  H   H294      1.0  0.24579  0.11448  0.86764  1.0000
  H   H295      1.0  0.28460  0.08295  0.83940  1.0000
  H   H296      1.0  0.26394  0.07857  0.82649  1.0000
  C   C258      1.0  0.39204  0.16582  0.64788  1.0000
  C   C259      1.0  0.39535  0.14853  0.65007  1.0000
  C   C260      1.0  0.38246  0.13995  0.65694  1.0000
  C   C261      1.0  0.36616  0.14855  0.66196  1.0000
  C   C262      1.0  0.36269  0.16592  0.65958  1.0000
  C   C263      1.0  0.22931  0.16871  0.94196  1.0000
  H   H297      1.0  0.40799  0.14169  0.64660  1.0000
  H   H298      1.0  0.38519  0.12656  0.65871  1.0000
  C   C264      1.0  0.29741  0.12653  0.96003  1.0000
  C   C265      1.0  0.13472  0.10604  0.67640  1.0000
  H   H299      1.0  0.30186  0.11320  0.96330  1.0000
  H   H300      1.0  0.33830  0.15780  0.91177  1.0000
  C   C266      1.0  0.27907  0.12144  0.58649  1.0000
  C   C267      1.0  0.26957  0.12740  0.57437  1.0000
  C   C268      1.0  0.27470  0.13885  0.55994  1.0000
  C   C269      1.0  0.28916  0.14456  0.55778  1.0000
  H   H301      1.0  0.16796  0.10658  0.66776  1.0000
  H   H302      1.0  0.27518  0.11254  0.59763  1.0000
  H   H303      1.0  0.26730  0.14354  0.55059  1.0000
  N   N18       1.0  0.19738  0.15545  0.86765  1.0000
  H   H304      1.0  0.03564  0.17759  0.79399  1.0000
  H   H305      1.0  0.33769  0.12554  0.63992  1.0000
  C   C270      1.0  0.33994  0.11979  0.88565  1.0000
  C   C271      1.0  0.32483  0.15894  0.91270  1.0000
  H   H306      1.0  0.24318  0.07610  0.88185  1.0000
  H   H307      1.0  0.23195  0.16033  0.59357  1.0000
  S   S96       1.0  0.02293  0.15406  0.73257  1.0000
  S   S97       1.0  0.40891  0.17574  0.64013  1.0000
  H   H308      1.0  0.28828  0.13195  0.83671  1.0000
  S   S98       1.0  0.25697  0.05802  0.80371  1.0000
  H   H309      1.0  0.20250  0.13150  0.88427  1.0000
  H   H310      1.0  0.17448  0.98710  0.77316  1.0000
  C   C272      1.0  0.19341  0.14368  0.88371  1.0000
  H   H311      1.0  0.20367  0.99918  0.68355  1.0000
  H   H312      1.0  0.18254  0.14669  0.85649  1.0000
  C   C273      1.0  0.21527  0.15577  0.86438  1.0000
  H   H313      1.0  0.24256  0.14759  0.95608  1.0000
  H   H314      1.0  0.02201  0.14743  0.69445  1.0000
  C   C274      1.0  0.32370  0.17939  0.88728  1.0000
  H   H315      1.0  0.19370  0.14878  0.89421  1.0000
  H   H316      1.0  0.21806  0.15954  0.87453  1.0000
  H   H317      1.0  0.47504  0.16336  0.58582  1.0000
  H   H318      1.0  0.99542  0.11191  0.72181  1.0000
  H   H319      1.0  0.22706  0.98376  0.69184  1.0000
  H   H320      1.0  0.35712  0.11386  0.86346  1.0000
  H   H321      1.0  0.32143  0.14724  0.92080  1.0000
  H   H322      1.0  0.34316  0.16528  0.86450  1.0000
  H   H323      1.0  0.07794  0.16282  0.66428  1.0000
  H   H324      1.0  0.99921  0.16254  0.66027  1.0000
  H   H325      1.0  0.28958  0.04100  0.88296  1.0000
  C   C275      1.0  0.23589  0.16030  0.95596  1.0000
  H   H326      1.0  0.00679  0.13506  0.70060  1.0000
  C   C276      1.0  0.18604  0.17192  0.86839  1.0000
  C   C277      1.0  0.33702  0.16564  0.60063  1.0000
  N   N19       1.0  0.24865  0.11405  0.71766  1.0000
  H   H327      1.0  0.19738  0.15788  0.84206  1.0000
  C   C278      1.0  0.26577  0.10426  0.71287  1.0000
  C   C279      1.0  0.24725  0.13090  0.70667  1.0000
  C   C280      1.0  0.23647  0.10568  0.71580  1.0000
  C   C281      1.0  0.22445  0.09920  0.72940  1.0000
  C   C282      1.0  0.23642  0.10379  0.69992  1.0000
  C   C283      1.0  0.21294  0.09174  0.72700  1.0000
  H   H328      1.0  0.06655  0.15680  0.75266  1.0000
  C   C284      1.0  0.29866  0.13858  0.56991  1.0000
  H   H329      1.0  0.22377  0.02258  0.79106  1.0000
  H   H330      1.0  0.26865  0.10224  0.70005  1.0000
  H   H331      1.0  0.23432  0.13840  0.70925  1.0000
  H   H332      1.0  0.25575  0.13782  0.70832  1.0000
  H   H333      1.0  0.25071  0.13047  0.69333  1.0000
  H   H334      1.0  0.22360  0.09973  0.74205  1.0000
  S   S99       1.0  0.20679  0.16236  0.63671  1.0000
  H   H335      1.0  0.20378  0.08706  0.73754  1.0000
  H   H336      1.0  0.26465  0.00867  0.86699  1.0000
  H   H337      1.0  0.15165  0.99252  0.79795  1.0000
  N   N20       1.0  0.15054  0.12632  0.65542  1.0000
  C   C285      1.0  0.14950  0.14430  0.64794  1.0000
  C   C286      1.0  0.16509  0.12032  0.66334  1.0000
  C   C287      1.0  0.15364  0.11769  0.64172  1.0000
  H   H338      1.0  0.14737  0.15164  0.65748  1.0000
  H   H339      1.0  0.23626  0.17199  0.88930  1.0000
  H   H340      1.0  0.13949  0.14962  0.64079  1.0000
  H   H341      1.0  0.17667  0.12329  0.65444  1.0000
  H   H342      1.0  0.14286  0.12161  0.63562  1.0000
  H   H343      1.0  0.16490  0.12029  0.63204  1.0000
  H   H344      1.0  0.15596  0.10394  0.64606  1.0000
  H   H345      1.0  0.11993  0.14808  0.66530  1.0000
  C   C288      1.0  0.31075  0.12324  0.52678  1.0000
  N   N21       1.0  0.99908  0.15953  0.68600  1.0000
  H   H346      1.0  0.23584  0.06179  0.86521  1.0000
  H   H347      1.0  0.33516  0.12686  0.61071  1.0000
  H   H348      1.0  0.38907  0.14636  0.68842  1.0000
  H   H349      1.0  0.46748  0.15610  0.60764  1.0000
  H   H350      1.0  0.27713  0.11970  0.82038  1.0000
  C   C289      1.0  0.29138  0.12168  0.51169  1.0000
  C   C290      1.0  0.33077  0.13237  0.89409  1.0000
  C   C291      1.0  0.29826  0.16857  0.47701  1.0000
  H   H351      1.0  0.33895  0.10701  0.89122  1.0000
  S   S100      1.0  0.34024  0.17451  0.52975  1.0000
  H   H352      1.0  0.31346  0.12750  0.62000  1.0000
  N   N22       1.0  0.22084  0.03791  0.73567  1.0000
  C   C292      1.0  0.22474  0.02027  0.73442  1.0000
  C   C293      1.0  0.22050  0.03820  0.75295  1.0000
  C   C294      1.0  0.20382  0.04580  0.73281  1.0000
  C   C295      1.0  0.23323  0.04656  0.72313  1.0000
  C   C296      1.0  0.23421  0.04854  0.70596  1.0000
  C   C297      1.0  0.24496  0.05269  0.72741  1.0000
  C   C298      1.0  0.24579  0.05661  0.69385  1.0000
  C   C299      1.0  0.25665  0.06054  0.71520  1.0000
  C   C300      1.0  0.25698  0.06263  0.69845  1.0000
  H   H353      1.0  0.22390  0.01902  0.72215  1.0000
  H   H354      1.0  0.23754  0.01393  0.73624  1.0000
  H   H355      1.0  0.21596  0.01318  0.74396  1.0000
  H   H356      1.0  0.23235  0.03106  0.75672  1.0000
  H   H357      1.0  0.21047  0.03247  0.76196  1.0000
  H   H358      1.0  0.21796  0.05117  0.75463  1.0000
  H   H359      1.0  0.20028  0.05899  0.73393  1.0000
  H   H360      1.0  0.20245  0.04550  0.72045  1.0000
  H   H361      1.0  0.19437  0.03926  0.74193  1.0000
  H   H362      1.0  0.22608  0.04371  0.70180  1.0000
  H   H363      1.0  0.24549  0.05150  0.74011  1.0000
  H   H364      1.0  0.24612  0.05820  0.68079  1.0000
  H   H365      1.0  0.26557  0.06492  0.71881  1.0000
  H   H366      1.0  0.26591  0.06891  0.68899  1.0000
  N   N23       1.0  0.31151  0.16807  0.78979  1.0000
  H   H367      1.0  0.20403  0.13689  0.85289  1.0000
  H   H368      1.0  0.29659  0.15127  0.77559  1.0000
  C   C301      1.0  0.00838  0.14800  0.69836  1.0000
  C   C302      1.0  0.30181  0.15500  0.79791  1.0000
  C   C303      1.0  0.29518  0.14763  0.78892  1.0000
  C   C304      1.0  0.29901  0.14900  0.81539  1.0000
  C   C305      1.0  0.28640  0.13505  0.79703  1.0000
  H   H369      1.0  0.02881  0.16968  0.67380  1.0000
  N   N24       1.0  0.32113  0.16243  0.89602  1.0000
  H   H370      1.0  0.16707  0.17093  0.60205  1.0000
  H   H371      1.0  0.01888  0.15202  0.66574  1.0000
  C   C306      1.0  0.24317  0.16444  0.58512  1.0000
  H   H372      1.0  0.08994  0.16778  0.75438  1.0000
  H   H373      1.0  0.35109  0.12387  0.48958  1.0000
  H   H374      1.0  0.28160  0.12950  0.78992  1.0000
  H   H375      1.0  0.35897  0.14310  0.85051  1.0000
  H   H376      1.0  0.35185  0.13556  0.52751  1.0000
  H   H377      1.0  0.31962  0.16262  0.76530  1.0000
  H   H378      1.0  0.23516  0.17380  0.61397  1.0000
  C   C307      1.0  0.29781  0.13652  0.97043  1.0000
  H   H379      1.0  0.99649  0.15751  0.78306  1.0000
  C   C308      1.0  0.29018  0.13645  0.82335  1.0000
  C   C309      1.0  0.32859  0.16195  0.79288  1.0000
  C   C310      1.0  0.23979  0.04161  0.84697  1.0000
  H   H380      1.0  0.21214  0.99116  0.70920  1.0000
  N   N25       1.0  0.25517  0.03315  0.85330  1.0000
  C   C311      1.0  0.06065  0.16650  0.68721  1.0000
  H   H381      1.0  0.30031  0.16447  0.88585  1.0000
  H   H382      1.0  0.32990  0.14016  0.53518  1.0000
  C   C312      1.0  0.24631  0.11608  0.73483  1.0000
  C   C313      1.0  0.16907  0.17306  0.61312  1.0000
  C   C314      1.0  0.10638  0.11464  0.69110  1.0000
  C   C315      1.0  0.04954  0.16641  0.77325  1.0000
  C   C316      1.0  0.25320  0.01624  0.86272  1.0000
  H   H383      1.0  0.22848  0.04227  0.85716  1.0000
  C   C317      1.0  0.31304  0.17316  0.77154  1.0000
  H   H384      1.0  0.24214  0.16566  0.57218  1.0000
  C   C318      1.0  0.04743  0.17547  0.78524  1.0000
  H   H385      1.0  0.28287  0.17433  0.94778  1.0000
  C   C319      1.0  0.22929  0.00944  0.79273  1.0000
  H   H386      1.0  0.35100  0.14670  0.63639  1.0000
  H   H387      1.0  0.31937  0.14271  0.60209  1.0000
  H   H388      1.0  0.25038  0.00928  0.85496  1.0000
  H   H389      1.0  0.33723  0.15301  0.48904  1.0000
  H   H390      1.0  0.26770  0.09185  0.72146  1.0000
  S   S101      1.0  0.05847  0.14578  0.69326  1.0000
  C   C320      1.0  0.06485  0.16374  0.76200  1.0000
  S   S102      1.0  0.03241  0.15941  0.77235  1.0000
  C   C321      1.0  0.36256  0.17283  0.60020  1.0000
  H   H391      1.0  0.09549  0.14071  0.68531  1.0000
  H   H392      1.0  0.26634  0.02639  0.82951  1.0000
  C   C322      1.0  0.19622  0.17711  0.91121  1.0000
  C   C323      1.0  0.10656  0.13107  0.68287  1.0000
  C   C324      1.0  0.26921  0.03161  0.83869  1.0000
  S   S103      1.0  0.24554  0.01438  0.81398  1.0000
  H   H393      1.0  0.24541  0.10799  0.68907  1.0000
  C   C325      1.0  0.26679  0.05944  0.88345  1.0000
  H   H394      1.0  0.28076  0.02317  0.84202  1.0000
  H   H395      1.0  0.30107  0.12214  0.59353  1.0000
  C   C326      1.0  0.34199  0.15280  0.87106  1.0000
  H   H396      1.0  0.16325  0.16315  0.87260  1.0000
  H   H397      1.0  0.34876  0.15487  0.50243  1.0000
  C   C327      1.0  0.27777  0.04516  0.87918  1.0000
  H   H398      1.0  0.19472  0.16008  0.60929  1.0000
  C   C328      1.0  0.27374  0.03645  0.86978  1.0000
  H   H399      1.0  0.23372  0.12350  0.73923  1.0000
  C   C329      1.0  0.33148  0.14930  0.88706  1.0000
  H   H400      1.0  0.27220  0.04396  0.83223  1.0000
  C   C330      1.0  0.22491  0.09627  0.69768  1.0000
  H   H401      1.0  0.00239  0.14129  0.67165  1.0000
  H   H402      1.0  0.30417  0.16589  0.61579  1.0000
  S   S104      1.0  0.28402  0.17917  0.69920  1.0000
  H   H403      1.0  0.37249  0.17937  0.59381  1.0000
  H   H404      1.0  0.27527  0.11064  0.71333  1.0000
  C   C331      1.0  0.32564  0.13482  0.64108  1.0000
  H   H405      1.0  0.23773  0.03493  0.83852  1.0000
  H   H406      1.0  0.34114  0.11890  0.53552  1.0000
  H   H407      1.0  0.40945  0.16407  0.68155  1.0000
  C   C332      1.0  0.28389  0.12949  0.81418  1.0000
  H   H408      1.0  0.16655  0.99677  0.80609  1.0000
  H   H409      1.0  0.28773  0.11509  0.53825  1.0000
  C   C333      1.0  0.16123  0.98652  0.80554  1.0000
  C   C334      1.0  0.17146  0.98803  0.67736  1.0000
  H   H410      1.0  0.26182  0.14375  0.97249  1.0000
  H   H411      1.0  0.27211  0.17238  0.57972  1.0000
  H   H412      1.0  0.16126  0.14652  0.63901  1.0000
  H   H413      1.0  0.30716  0.16603  0.63562  1.0000
  Fe  Fe52      1.0  0.24015  0.04212  0.80328  1.0000
  S   S105      1.0  0.31419  0.17463  0.66638  1.0000
  H   H414      1.0  0.32422  0.13567  0.48486  1.0000
  H   H415      1.0  0.22951  0.17945  0.68207  1.0000
  C   C335      1.0  0.12046  0.10215  0.68790  1.0000
  H   H416      1.0  0.35164  0.10905  0.50893  1.0000
  N   N26       1.0  0.10597  0.09097  0.76357  1.0000
  C   C336      1.0  0.10001  0.07570  0.77330  1.0000
  C   C337      1.0  0.10205  0.09530  0.74692  1.0000
  C   C338      1.0  0.12439  0.08693  0.76120  1.0000
  C   C339      1.0  0.09748  0.10483  0.77216  1.0000
  C   C340      1.0  0.10624  0.11389  0.77710  1.0000
  C   C341      1.0  0.07983  0.10976  0.77571  1.0000
  C   C342      1.0  0.09774  0.12696  0.78515  1.0000
  C   C343      1.0  0.07149  0.12282  0.78377  1.0000
  C   C344      1.0  0.08042  0.13132  0.78857  1.0000
  H   H417      1.0  0.10657  0.06481  0.76755  1.0000
  H   H418      1.0  0.10198  0.07250  0.78617  1.0000
  H   H419      1.0  0.08652  0.07701  0.77419  1.0000
  H   H420      1.0  0.08849  0.09756  0.74763  1.0000
  H   H421      1.0  0.10810  0.08512  0.74004  1.0000
  H   H422      1.0  0.10619  0.10680  0.73925  1.0000
  H   H423      1.0  0.12828  0.08312  0.77330  1.0000
  H   H424      1.0  0.13026  0.07636  0.75482  1.0000
  H   H425      1.0  0.12989  0.09762  0.75335  1.0000
  H   H426      1.0  0.11965  0.11118  0.77488  1.0000
  H   H427      1.0  0.07229  0.10361  0.77217  1.0000
  H   H428      1.0  0.10459  0.13388  0.78866  1.0000
  H   H429      1.0  0.05800  0.12652  0.78611  1.0000
  H   H430      1.0  0.07391  0.14156  0.79467  1.0000
  N   N27       1.0  0.32347  0.14589  0.62477  1.0000
  H   H431      1.0  0.25384  0.15400  0.58763  1.0000
  H   H432      1.0  0.25720  0.16778  0.60824  1.0000
  C   C345      1.0  0.34971  0.17427  0.59256  1.0000
  H   H433      1.0  0.25551  0.12260  0.73575  1.0000
  C   C346      1.0  0.36269  0.16289  0.61602  1.0000
  C   C347      1.0  0.29371  0.12688  0.58417  1.0000
  H   H434      1.0  0.47879  0.16612  0.62318  1.0000
  C   C348      1.0  0.24022  0.00216  0.80347  1.0000
  C   C349      1.0  0.32285  0.13532  0.61394  1.0000
  C   C350      1.0  0.25161  0.06488  0.87863  1.0000
  C   C351      1.0  0.00516  0.15364  0.67023  1.0000
  H   H435      1.0  0.22532  0.09488  0.68538  1.0000
  C   C352      1.0  0.21313  0.09032  0.71118  1.0000
  H   H436      1.0  0.24817  0.10384  0.74371  1.0000
  H   H437      1.0  0.24285  0.01684  0.87388  1.0000
  H   H438      1.0  0.18737  0.17005  0.91959  1.0000
  H   H439      1.0  0.18889  0.99090  0.78230  1.0000
  H   H440      1.0  0.32281  0.12875  0.90606  1.0000
  H   H441      1.0  0.24046  0.05446  0.83977  1.0000
  C   C353      1.0  0.21246  0.16896  0.90518  1.0000
  S   S106      1.0  0.31678  0.14548  0.56749  1.0000
  C   C354      1.0  0.18294  0.99738  0.67595  1.0000
  H   H442      1.0  0.36370  0.12482  0.50257  1.0000
  C   C355      1.0  0.35004  0.15422  0.62422  1.0000
  C   C356      1.0  0.30433  0.17678  0.48546  1.0000
  C   C357      1.0  0.35156  0.12232  0.50274  1.0000
  C   C358      1.0  0.23228  0.98256  0.78640  1.0000
  H   H443      1.0  0.21670  0.00525  0.77622  1.0000
  H   H444      1.0  0.14520  0.09585  0.67416  1.0000
  H   H445      1.0  0.29683  0.15127  0.63374  1.0000
  Fe  Fe53      1.0  0.03478  0.14358  0.75447  1.0000
  C   C359      1.0  0.99308  0.16721  0.80430  1.0000
  H   H446      1.0  0.23090  0.16237  0.93212  1.0000
  H   H447      1.0  0.30302  0.18088  0.81017  1.0000
  H   H448      1.0  0.27973  0.11899  0.51169  1.0000
  C   C360      1.0  0.30178  0.12741  0.49678  1.0000
  H   H449      1.0  0.29497  0.17276  0.90411  1.0000
  H   H450      1.0  0.35015  0.17264  0.66359  1.0000
  C   C361      1.0  0.24685  0.98494  0.80595  1.0000
  H   H451      1.0  0.19429  0.98772  0.80732  1.0000
  H   H452      1.0  0.37271  0.16179  0.62198  1.0000
  H   H453      1.0  0.45334  0.16302  0.59414  1.0000
  H   H454      1.0  0.29886  0.17692  0.49839  1.0000
  C   C362      1.0  0.05178  0.17800  0.69709  1.0000
  H   H455      1.0  0.35940  0.15745  0.69907  1.0000
  H   H456      1.0  0.45104  0.17619  0.62532  1.0000
  C   C363      1.0  0.17431  0.17879  0.64161  1.0000
  H   H457      1.0  0.33497  0.15040  0.78821  1.0000
  C   C364      1.0  0.23385  0.16827  0.96913  1.0000
  H   H458      1.0  0.33637  0.17137  0.78677  1.0000
  C   C365      1.0  0.37563  0.17458  0.65244  1.0000
  H   H459      1.0  0.22205  0.17736  0.66543  1.0000
  C   C366      1.0  0.48423  0.17586  0.61427  1.0000
  H   H460      1.0  0.21922  0.16433  0.85242  1.0000
  C   C367      1.0  0.35117  0.14010  0.86277  1.0000
  C   C368      1.0  0.06050  0.18186  0.78606  1.0000
  C   C369      1.0  0.36288  0.18151  0.69893  1.0000
  N   N28       1.0  0.24537  0.18010  0.58758  1.0000
  H   H461      1.0  0.21239  0.18151  0.60217  1.0000
  H   H462      1.0  0.17616  0.18090  0.65275  1.0000
  C   C370      1.0  0.15608  0.18210  0.62326  1.0000
  H   H463      1.0  0.34973  0.18189  0.58017  1.0000
  H   H464      1.0  0.43621  0.18207  0.61270  1.0000
  C   C371      1.0  0.29777  0.18223  0.85073  1.0000
  C   C372      1.0  0.17123  0.19464  0.02897  1.0000
  H   H465      1.0  0.25678  0.18658  0.34349  1.0000
  H   H466      1.0  0.46350  0.19668  0.20355  1.0000
  H   H467      1.0  0.08791  0.34005  0.07338  1.0000
  H   H468      1.0  0.27654  0.20305  0.42215  1.0000
  C   C373      1.0  0.14922  0.26120  0.98605  1.0000
  H   H469      1.0  0.07406  0.20738  0.18500  1.0000
  C   C374      1.0  0.42117  0.21528  0.30855  1.0000
  C   C375      1.0  0.33869  0.32535  0.12550  1.0000
  H   H470      1.0  0.09511  0.29886  0.10240  1.0000
  H   H471      1.0  0.36280  0.34467  0.11002  1.0000
  C   C376      1.0  0.37301  0.18979  0.14500  1.0000
  H   H472      1.0  0.45465  0.20989  0.29113  1.0000
  S   S107      1.0  0.28716  0.21571  0.38571  1.0000
  H   H473      1.0  0.21081  0.27873  0.43039  1.0000
  H   H474      1.0  0.48204  0.21299  0.29133  1.0000
  S   S108      1.0  0.39689  0.20807  0.22932  1.0000
  Fe  Fe54      1.0  0.19123  0.29218  0.38107  1.0000
  S   S109      1.0  0.16591  0.29565  0.39799  1.0000
  S   S110      1.0  0.20343  0.31306  0.36499  1.0000
  Fe  Fe55      1.0  0.19611  0.25471  0.38889  1.0000
  S   S111      1.0  0.17106  0.25528  0.40603  1.0000
  S   S112      1.0  0.21099  0.22947  0.38525  1.0000
  Fe  Fe56      1.0  0.16209  0.27667  0.38642  1.0000
  S   S113      1.0  0.13884  0.28124  0.37663  1.0000
  Fe  Fe57      1.0  0.17759  0.27389  0.41592  1.0000
  S   S114      1.0  0.17560  0.26797  0.44384  1.0000
  S   S115      1.0  0.18669  0.27464  0.36851  1.0000
  S   S116      1.0  0.20331  0.27189  0.39978  1.0000
  Fe  Fe58      1.0  0.44293  0.28986  0.16274  1.0000
  S   S117      1.0  0.42591  0.30960  0.17597  1.0000
  S   S118      1.0  0.47112  0.28302  0.15980  1.0000
  Fe  Fe59      1.0  0.41343  0.27744  0.15905  1.0000
  S   S119      1.0  0.39484  0.29661  0.17171  1.0000
  S   S120      1.0  0.40118  0.25801  0.15675  1.0000
  Fe  Fe60      1.0  0.41111  0.31419  0.15661  1.0000
  S   S121      1.0  0.39856  0.33889  0.14309  1.0000
  Fe  Fe61      1.0  0.41134  0.28993  0.18960  1.0000
  S   S122      1.0  0.40079  0.28290  0.21688  1.0000
  S   S123      1.0  0.42887  0.29557  0.14230  1.0000
  S   S124      1.0  0.42930  0.26984  0.17790  1.0000
  Fe  Fe62      1.0  0.18394  0.27422  0.04375  1.0000
  S   S125      1.0  0.16516  0.26229  0.06379  1.0000
  S   S126      1.0  0.20394  0.28128  0.05131  1.0000
  Fe  Fe63      1.0  0.17204  0.26708  0.01608  1.0000
  S   S127      1.0  0.15230  0.25476  0.03426  1.0000
  Fe  Fe64      1.0  0.14747  0.27573  0.04707  1.0000
  S   S128      1.0  0.12180  0.28955  0.05731  1.0000
  Fe  Fe65      1.0  0.17197  0.24259  0.04908  1.0000
  S   S129      1.0  0.17474  0.21588  0.06248  1.0000
  S   S130      1.0  0.16582  0.28927  0.02774  1.0000
  S   S131      1.0  0.19213  0.25330  0.03021  1.0000
  Fe  Fe66      1.0  0.02773  0.25787  0.15967  1.0000
  S   S132      1.0  0.01365  0.28416  0.15295  1.0000
  S   S133      1.0  0.01820  0.24292  0.18476  1.0000
  Fe  Fe67      1.0  0.05210  0.25986  0.12630  1.0000
  S   S134      1.0  0.03953  0.28613  0.11681  1.0000
  S   S135      1.0  0.07624  0.24578  0.11295  1.0000
  Fe  Fe68      1.0  0.03895  0.28997  0.14178  1.0000
  S   S136      1.0  0.04876  0.31129  0.14331  1.0000
  Fe  Fe69      1.0  0.01549  0.27753  0.12886  1.0000
  S   S137      1.0  0.07064  0.18431  0.21677  1.0000
  S   S138      1.0  0.05284  0.26420  0.15063  1.0000
  S   S139      1.0  0.02818  0.25079  0.13628  1.0000
  C   C377      1.0  0.27893  0.20182  0.43452  1.0000
  H   H475      1.0  0.32279  0.32988  0.20000  1.0000
  Fe  Fe70      1.0  0.20932  0.34244  0.10175  1.0000
  S   S140      1.0  0.20309  0.33327  0.12926  1.0000
  S   S141      1.0  0.19064  0.33953  0.08897  1.0000
  S   S142      1.0  0.23423  0.34693  0.13182  1.0000
  Fe  Fe71      1.0  0.23031  0.32387  0.12736  1.0000
  S   S143      1.0  0.23978  0.29877  0.14241  1.0000
  Fe  Fe72      1.0  0.20742  0.35721  0.13090  1.0000
  C   C378      1.0  0.35053  0.19036  0.21841  1.0000
  S   S144      1.0  0.23670  0.33141  0.09955  1.0000
  Fe  Fe73      1.0  0.35303  0.24493  0.09966  1.0000
  S   S145      1.0  0.32885  0.25318  0.11676  1.0000
  S   S146      1.0  0.37345  0.25881  0.09508  1.0000
  Fe  Fe74      1.0  0.34078  0.21703  0.09324  1.0000
  S   S147      1.0  0.31603  0.22303  0.11031  1.0000
  C   C379      1.0  0.21053  0.22295  0.34440  1.0000
  Fe  Fe75      1.0  0.31700  0.24944  0.09818  1.0000
  S   S148      1.0  0.29469  0.26596  0.08896  1.0000
  Fe  Fe76      1.0  0.33055  0.22591  0.12700  1.0000
  S   S149      1.0  0.32547  0.21466  0.15422  1.0000
  S   S150      1.0  0.34100  0.24356  0.07990  1.0000
  S   S151      1.0  0.35552  0.21770  0.11107  1.0000
  Fe  Fe77      1.0  0.12073  0.21804  0.33576  1.0000
  S   S152      1.0  0.13217  0.23497  0.31319  1.0000
  S   S153      1.0  0.11387  0.22546  0.36051  1.0000
  H   H476      1.0  0.27155  0.19312  0.44373  1.0000
  S   S154      1.0  0.13375  0.20715  0.29258  1.0000
  H   H477      1.0  0.37027  0.31237  0.14768  1.0000
  Fe  Fe78      1.0  0.14932  0.21142  0.30734  1.0000
  S   S155      1.0  0.17682  0.20897  0.29778  1.0000
  Fe  Fe79      1.0  0.11534  0.22894  0.30088  1.0000
  S   S156      1.0  0.10136  0.24717  0.28272  1.0000
  C   C380      1.0  0.43277  0.18613  0.30908  1.0000
  S   S157      1.0  0.10207  0.21401  0.32390  1.0000
  Fe  Fe80      1.0  0.11044  0.33274  0.21910  1.0000
  S   S158      1.0  0.13503  0.32459  0.20259  1.0000
  Fe  Fe81      1.0  0.09328  0.31227  0.20729  1.0000
  S   S159      1.0  0.11655  0.30308  0.18967  1.0000
  S   S160      1.0  0.07175  0.30061  0.21025  1.0000
  Fe  Fe82      1.0  0.12914  0.29943  0.21031  1.0000
  S   S161      1.0  0.14776  0.27618  0.21760  1.0000
  Fe  Fe83      1.0  0.11981  0.32924  0.18361  1.0000
  S   S162      1.0  0.12769  0.34132  0.15691  1.0000
  S   S163      1.0  0.10567  0.30705  0.22857  1.0000
  C   C381      1.0  0.11491  0.25190  0.26356  1.0000
  C   C382      1.0  0.10831  0.26133  0.24988  1.0000
  C   C383      1.0  0.11886  0.26703  0.23501  1.0000
  C   C384      1.0  0.13591  0.26425  0.23407  1.0000
  C   C385      1.0  0.14271  0.25406  0.24743  1.0000
  C   C386      1.0  0.13219  0.24770  0.26217  1.0000
  H   H478      1.0  0.09499  0.26482  0.25094  1.0000
  H   H479      1.0  0.11367  0.27431  0.22444  1.0000
  H   H480      1.0  0.15592  0.25188  0.24674  1.0000
  H   H481      1.0  0.13737  0.24054  0.27275  1.0000
  C   C387      1.0  0.17069  0.36514  0.15130  1.0000
  C   C388      1.0  0.15959  0.36244  0.16662  1.0000
  C   C389      1.0  0.14572  0.35606  0.16814  1.0000
  C   C390      1.0  0.14319  0.35200  0.15446  1.0000
  C   C391      1.0  0.15390  0.35537  0.13900  1.0000
  C   C392      1.0  0.16763  0.36196  0.13742  1.0000
  H   H482      1.0  0.13720  0.35401  0.17995  1.0000
  H   H483      1.0  0.15199  0.35234  0.12834  1.0000
  H   H484      1.0  0.17609  0.36419  0.12548  1.0000
  C   C393      1.0  0.25354  0.28677  0.12874  1.0000
  C   C394      1.0  0.26799  0.27599  0.13309  1.0000
  C   C395      1.0  0.28034  0.26853  0.12114  1.0000
  C   C396      1.0  0.27818  0.27194  0.10489  1.0000
  C   C397      1.0  0.26326  0.28183  0.10088  1.0000
  C   C398      1.0  0.25089  0.28912  0.11285  1.0000
  H   H485      1.0  0.26998  0.27403  0.14544  1.0000
  H   H486      1.0  0.29178  0.26074  0.12432  1.0000
  H   H487      1.0  0.26159  0.28448  0.08831  1.0000
  H   H488      1.0  0.23944  0.29688  0.10967  1.0000
  H   H489      1.0  0.16741  0.19932  0.04065  1.0000
  C   C399      1.0  0.48294  0.24361  0.19300  1.0000
  C   C400      1.0  0.35473  0.36929  0.15802  1.0000
  H   H490      1.0  0.48022  0.29155  0.20550  1.0000
  C   C401      1.0  0.04003  0.20509  0.21660  1.0000
  H   H491      1.0  0.43393  0.23852  0.20215  1.0000
  C   C402      1.0  0.38584  0.18673  0.16862  1.0000
  H   H492      1.0  0.14000  0.19202  0.42511  1.0000
  C   C403      1.0  0.37825  0.30943  0.13576  1.0000
  H   H493      1.0  0.18934  0.21289  0.37868  1.0000
  C   C404      1.0  0.03340  0.22754  0.19358  1.0000
  C   C405      1.0  0.04981  0.22361  0.18468  1.0000
  C   C406      1.0  0.12213  0.33827  0.11419  1.0000
  C   C407      1.0  0.30409  0.20999  0.06118  1.0000
  H   H494      1.0  0.07321  0.30435  0.10280  1.0000
  C   C408      1.0  0.02864  0.21845  0.20963  1.0000
  H   H495      1.0  0.05351  0.23048  0.17217  1.0000
  N   N29       1.0  0.45002  0.21758  0.21461  1.0000
  N   N30       1.0  0.99835  0.19146  0.19858  1.0000
  H   H496      1.0  0.01602  0.22163  0.21661  1.0000
  C   C409      1.0  0.05502  0.30832  0.16197  1.0000
  C   C410      1.0  0.05095  0.29549  0.17542  1.0000
  C   C411      1.0  0.05600  0.29330  0.19024  1.0000
  C   C412      1.0  0.06554  0.30361  0.19155  1.0000
  C   C413      1.0  0.06982  0.31629  0.17801  1.0000
  C   C414      1.0  0.06429  0.31884  0.16338  1.0000
  H   H497      1.0  0.04355  0.28751  0.17456  1.0000
  H   H498      1.0  0.05241  0.28367  0.20069  1.0000
  H   H499      1.0  0.07698  0.32445  0.17900  1.0000
  H   H500      1.0  0.06700  0.32912  0.15327  1.0000
  C   C415      1.0  0.19192  0.20052  0.05598  1.0000
  H   H501      1.0  0.20591  0.21507  0.30955  1.0000
  H   H502      1.0  0.22676  0.32496  0.44561  1.0000
  H   H503      1.0  0.22579  0.23564  0.41970  1.0000
  C   C416      1.0  0.33708  0.30555  0.22157  1.0000
  H   H504      1.0  0.11197  0.36290  0.26196  1.0000
  H   H505      1.0  0.14263  0.21021  0.01790  1.0000
  S   S164      1.0  0.99343  0.28581  0.11643  1.0000
  H   H506      1.0  0.03604  0.19797  0.22880  1.0000
  C   C417      1.0  0.20999  0.21295  0.32100  1.0000
  C   C418      1.0  0.19444  0.32294  0.07901  1.0000
  C   C419      1.0  0.18127  0.32008  0.07416  1.0000
  C   C420      1.0  0.18391  0.30719  0.06588  1.0000
  C   C421      1.0  0.19982  0.29717  0.06228  1.0000
  C   C422      1.0  0.21292  0.29986  0.06738  1.0000
  C   C423      1.0  0.21024  0.31265  0.07576  1.0000
  H   H507      1.0  0.16905  0.32808  0.07655  1.0000
  H   H508      1.0  0.17380  0.30533  0.06185  1.0000
  H   H509      1.0  0.22528  0.29224  0.06454  1.0000
  H   H510      1.0  0.22047  0.31477  0.07942  1.0000
  C   C424      1.0  0.10906  0.27675  0.07171  1.0000
  C   C425      1.0  0.11568  0.26020  0.07852  1.0000
  C   C426      1.0  0.10544  0.25065  0.09097  1.0000
  C   C427      1.0  0.08863  0.25764  0.09672  1.0000
  C   C428      1.0  0.08201  0.27404  0.08957  1.0000
  C   C429      1.0  0.09217  0.28353  0.07706  1.0000
  H   H511      1.0  0.12867  0.25478  0.07431  1.0000
  H   H512      1.0  0.11058  0.23788  0.09630  1.0000
  H   H513      1.0  0.06898  0.27932  0.09342  1.0000
  H   H514      1.0  0.08687  0.29608  0.07138  1.0000
  C   C430      1.0  0.39346  0.25878  0.13943  1.0000
  C   C431      1.0  0.40009  0.26692  0.12344  1.0000
  C   C432      1.0  0.39411  0.26654  0.10987  1.0000
  C   C433      1.0  0.38127  0.25831  0.11223  1.0000
  C   C434      1.0  0.37453  0.25033  0.12825  1.0000
  C   C435      1.0  0.38069  0.25048  0.14176  1.0000
  H   H515      1.0  0.41012  0.27312  0.12147  1.0000
  H   H516      1.0  0.39948  0.27259  0.09747  1.0000
  H   H517      1.0  0.36461  0.24399  0.13021  1.0000
  H   H518      1.0  0.37546  0.24418  0.15409  1.0000
  C   C436      1.0  0.38151  0.34979  0.15554  1.0000
  C   C437      1.0  0.36910  0.36141  0.14820  1.0000
  C   C438      1.0  0.22475  0.19422  0.34224  1.0000
  C   C439      1.0  0.35304  0.36627  0.17517  1.0000
  C   C440      1.0  0.36581  0.35522  0.18246  1.0000
  C   C441      1.0  0.37992  0.34677  0.17269  1.0000
  N   N31       1.0  0.23317  0.30075  0.46116  1.0000
  H   H519      1.0  0.36469  0.35301  0.19569  1.0000
  H   H520      1.0  0.38965  0.33807  0.17838  1.0000
  C   C442      1.0  0.47374  0.20892  0.30293  1.0000
  C   C443      1.0  0.13281  0.26566  0.37126  1.0000
  C   C444      1.0  0.11585  0.26557  0.37523  1.0000
  C   C445      1.0  0.11028  0.25344  0.37145  1.0000
  C   C446      1.0  0.12147  0.24161  0.36302  1.0000
  C   C447      1.0  0.13845  0.24194  0.35849  1.0000
  C   C448      1.0  0.14419  0.25375  0.36292  1.0000
  H   H521      1.0  0.10698  0.27472  0.38163  1.0000
  H   H522      1.0  0.09718  0.25320  0.37513  1.0000
  H   H523      1.0  0.14722  0.23279  0.35205  1.0000
  H   H524      1.0  0.15733  0.25373  0.35976  1.0000
  C   C449      1.0  0.19082  0.32853  0.35282  1.0000
  C   C450      1.0  0.19814  0.33734  0.33742  1.0000
  C   C451      1.0  0.18817  0.34928  0.32727  1.0000
  C   C452      1.0  0.17086  0.35273  0.33272  1.0000
  C   C453      1.0  0.16357  0.34420  0.34827  1.0000
  C   C454      1.0  0.17350  0.33202  0.35824  1.0000
  H   H525      1.0  0.21154  0.33465  0.33318  1.0000
  H   H526      1.0  0.15017  0.34687  0.35257  1.0000
  H   H527      1.0  0.16777  0.32538  0.37015  1.0000
  C   C455      1.0  0.39561  0.22937  0.22671  1.0000
  C   C456      1.0  0.39600  0.23592  0.23978  1.0000
  C   C457      1.0  0.39696  0.25260  0.23693  1.0000
  C   C458      1.0  0.39762  0.26267  0.22099  1.0000
  C   C459      1.0  0.39647  0.25627  0.20812  1.0000
  C   C460      1.0  0.39534  0.23970  0.21099  1.0000
  H   H528      1.0  0.39573  0.22813  0.25205  1.0000
  H   H529      1.0  0.39765  0.25756  0.24696  1.0000
  H   H530      1.0  0.39665  0.26402  0.19584  1.0000
  H   H531      1.0  0.39491  0.23477  0.20084  1.0000
  C   C461      1.0  0.26636  0.21991  0.38405  1.0000
  C   C462      1.0  0.25894  0.20687  0.38531  1.0000
  C   C463      1.0  0.24192  0.20997  0.38574  1.0000
  C   C464      1.0  0.23230  0.22617  0.38447  1.0000
  C   C465      1.0  0.23978  0.23935  0.38267  1.0000
  C   C466      1.0  0.25682  0.23621  0.38250  1.0000
  C   C467      1.0  0.36120  0.18743  0.33958  1.0000
  H   H532      1.0  0.23614  0.19974  0.38738  1.0000
  H   H533      1.0  0.23249  0.25194  0.38135  1.0000
  H   H534      1.0  0.26254  0.24636  0.38136  1.0000
  H   H535      1.0  0.35607  0.20068  0.33705  1.0000
  H   H536      1.0  0.35584  0.27225  0.16313  1.0000
  H   H537      1.0  0.29423  0.22095  0.05957  1.0000
  H   H538      1.0  0.28162  0.24187  0.42870  1.0000
  H   H539      1.0  0.36060  0.34048  0.13230  1.0000
  C   C468      1.0  0.41966  0.19541  0.33442  1.0000
  H   H540      1.0  0.36144  0.29961  0.08190  1.0000
  H   H541      1.0  0.35313  0.18635  0.17501  1.0000
  H   H542      1.0  0.13944  0.34996  0.21558  1.0000
  C   C469      1.0  0.38179  0.31485  0.10607  1.0000
  C   C470      1.0  0.36837  0.33678  0.12062  1.0000
  H   H543      1.0  0.08547  0.18645  0.32157  1.0000
  C   C471      1.0  0.47404  0.30890  0.17167  1.0000
  C   C472      1.0  0.33985  0.30646  0.18001  1.0000
  S   S165      1.0  0.41595  0.19990  0.26984  1.0000
  C   C473      1.0  0.24915  0.30320  0.46269  1.0000
  H   H544      1.0  0.46065  0.31281  0.17366  1.0000
  H   H545      1.0  0.47672  0.32862  0.18118  1.0000
  C   C474      1.0  0.33588  0.32994  0.19956  1.0000
  C   C475      1.0  0.18598  0.19199  0.31145  1.0000
  H   H546      1.0  0.45996  0.24372  0.18840  1.0000
  C   C476      1.0  0.32948  0.19591  0.07101  1.0000
  C   C477      1.0  0.21943  0.19743  0.32716  1.0000
  C   C478      1.0  0.11183  0.33484  0.09201  1.0000
  H   H547      1.0  0.14510  0.23519  0.41512  1.0000
  C   C479      1.0  0.15137  0.21773  0.01784  1.0000
  Fe  Fe84      1.0  0.40094  0.18351  0.28982  1.0000
  C   C480      1.0  0.35439  0.31395  0.12385  1.0000
  H   H548      1.0  0.29233  0.19562  0.43361  1.0000
  H   H549      1.0  0.47632  0.29502  0.23349  1.0000
  H   H550      1.0  0.21100  0.23037  0.05789  1.0000
  H   H551      1.0  0.38409  0.19305  0.13547  1.0000
  C   C481      1.0  0.17469  0.30988  0.45811  1.0000
  C   C482      1.0  0.17432  0.29910  0.44851  1.0000
  C   C483      1.0  0.17642  0.28201  0.45516  1.0000
  H   H552      1.0  0.36386  0.20145  0.14733  1.0000
  H   H553      1.0  0.24227  0.38070  0.17508  1.0000
  H   H554      1.0  0.17289  0.32311  0.45293  1.0000
  H   H555      1.0  0.17219  0.30403  0.43607  1.0000
  S   S166      1.0  0.09540  0.33906  0.19953  1.0000
  H   H556      1.0  0.33126  0.31825  0.17746  1.0000
  H   H557      1.0  0.39369  0.31889  0.10374  1.0000
  S   S167      1.0  0.10707  0.34822  0.23783  1.0000
  C   C484      1.0  0.13401  0.23397  0.41167  1.0000
  H   H558      1.0  0.36524  0.28133  0.20572  1.0000
  C   C485      1.0  0.32515  0.19401  0.15563  1.0000
  H   H559      1.0  0.08488  0.19188  0.27752  1.0000
  C   C486      1.0  0.25162  0.27877  0.42475  1.0000
  C   C487      1.0  0.35873  0.28582  0.19567  1.0000
  H   H560      1.0  0.32864  0.18419  0.21521  1.0000
  C   C488      1.0  0.34117  0.32114  0.08318  1.0000
  H   H561      1.0  0.37043  0.36410  0.13490  1.0000
  C   C489      1.0  0.34441  0.21721  0.19121  1.0000
  H   H562      1.0  0.13117  0.34199  0.11832  1.0000
  N   N32       1.0  0.10940  0.29707  0.28074  1.0000
  C   C490      1.0  0.11107  0.31404  0.27108  1.0000
  C   C491      1.0  0.12384  0.28517  0.27337  1.0000
  C   C492      1.0  0.09393  0.29415  0.27855  1.0000
  C   C493      1.0  0.10881  0.29453  0.29864  1.0000
  C   C494      1.0  0.10699  0.27897  0.30949  1.0000
  C   C495      1.0  0.10994  0.30715  0.30585  1.0000
  C   C496      1.0  0.10636  0.27621  0.32645  1.0000
  C   C497      1.0  0.10921  0.30427  0.32286  1.0000
  C   C498      1.0  0.10745  0.28885  0.33311  1.0000
  H   H563      1.0  0.12272  0.31703  0.27160  1.0000
  H   H564      1.0  0.11165  0.31533  0.25769  1.0000
  H   H565      1.0  0.10023  0.32375  0.27532  1.0000
  H   H566      1.0  0.13576  0.28722  0.27433  1.0000
  H   H567      1.0  0.12441  0.28630  0.25998  1.0000
  H   H568      1.0  0.12332  0.27208  0.27957  1.0000
  H   H569      1.0  0.08272  0.30255  0.28434  1.0000
  H   H570      1.0  0.09378  0.29621  0.26521  1.0000
  H   H571      1.0  0.09242  0.28118  0.28412  1.0000
  H   H572      1.0  0.10594  0.26878  0.30495  1.0000
  H   H573      1.0  0.11122  0.31940  0.29865  1.0000
  H   H574      1.0  0.10496  0.26420  0.33447  1.0000
  H   H575      1.0  0.10986  0.31409  0.32819  1.0000
  H   H576      1.0  0.10686  0.28670  0.34627  1.0000
  H   H577      1.0  0.16972  0.19986  0.33314  1.0000
  C   C499      1.0  0.24875  0.22749  0.42826  1.0000
  C   C500      1.0  0.10882  0.33258  0.12574  1.0000
  C   C501      1.0  0.33099  0.18736  0.14140  1.0000
  H   H578      1.0  0.48528  0.25353  0.18219  1.0000
  C   C502      1.0  0.00783  0.20291  0.18549  1.0000
  H   H579      1.0  0.33484  0.31365  0.23047  1.0000
  H   H580      1.0  0.36567  0.28790  0.12350  1.0000
  C   C503      1.0  0.35429  0.29726  0.12450  1.0000
  C   C504      1.0  0.23735  0.27594  0.42221  1.0000
  C   C505      1.0  0.10838  0.37848  0.19569  1.0000
  C   C506      1.0  0.47922  0.20466  0.31767  1.0000
  C   C507      1.0  0.23498  0.29202  0.44787  1.0000
  H   H581      1.0  0.31494  0.18900  0.18196  1.0000
  H   H582      1.0  0.16470  0.22718  0.98366  1.0000
  H   H583      1.0  0.34443  0.29324  0.22681  1.0000
  C   C508      1.0  0.44691  0.20169  0.31800  1.0000
  C   C509      1.0  0.22198  0.31739  0.45794  1.0000
  C   C510      1.0  0.33954  0.29229  0.12639  1.0000
  Fe  Fe85      1.0  0.29701  0.18814  0.39237  1.0000
  S   S168      1.0  0.38542  0.19410  0.31187  1.0000
  H   H584      1.0  0.47326  0.19549  0.34398  1.0000
  C   C511      1.0  0.28136  0.21528  0.45441  1.0000
  H   H585      1.0  0.07184  0.18846  0.25672  1.0000
  H   H586      1.0  0.25024  0.37360  0.15590  1.0000
  N   N33       1.0  0.13497  0.21679  0.41034  1.0000
  N   N34       1.0  0.43039  0.19967  0.31767  1.0000
  C   C512      1.0  0.13900  0.20510  0.42569  1.0000
  H   H587      1.0  0.13369  0.20237  0.38496  1.0000
  C   C513      1.0  0.14817  0.21236  0.39597  1.0000
  C   C514      1.0  0.43925  0.22507  0.20236  1.0000
  C   C515      1.0  0.16446  0.21483  0.39367  1.0000
  H   H588      1.0  0.38504  0.21094  0.15100  1.0000
  C   C516      1.0  0.17711  0.21063  0.38025  1.0000
  H   H589      1.0  0.20915  0.31665  0.45816  1.0000
  C   C517      1.0  0.48918  0.27951  0.20838  1.0000
  H   H590      1.0  0.12316  0.23830  0.42129  1.0000
  C   C518      1.0  0.48497  0.28271  0.23617  1.0000
  H   H591      1.0  0.24728  0.30963  0.47294  1.0000
  H   H592      1.0  0.01223  0.19867  0.17358  1.0000
  H   H593      1.0  0.43952  0.18901  0.29591  1.0000
  H   H594      1.0  0.18875  0.20579  0.25709  1.0000
  H   H595      1.0  0.00042  0.21593  0.18328  1.0000
  H   H596      1.0  0.25519  0.31099  0.45115  1.0000
  H   H597      1.0  0.00188  0.20027  0.21828  1.0000
  H   H598      1.0  0.16764  0.22002  0.40221  1.0000
  H   H599      1.0  0.29492  0.20946  0.45250  1.0000
  H   H600      1.0  0.32482  0.30368  0.22129  1.0000
  C   C519      1.0  0.17403  0.20365  0.36887  1.0000
  H   H601      1.0  0.20614  0.21706  0.03755  1.0000
  C   C520      1.0  0.13833  0.35533  0.22590  1.0000
  C   C521      1.0  0.48954  0.18684  0.26847  1.0000
  H   H602      1.0  0.33513  0.33833  0.20775  1.0000
  C   C522      1.0  0.34811  0.30188  0.19339  1.0000
  C   C523      1.0  0.34811  0.30436  0.08333  1.0000
  H   H603      1.0  0.27503  0.20665  0.46495  1.0000
  N   N35       1.0  0.06660  0.24497  0.22991  1.0000
  C   C524      1.0  0.05412  0.25785  0.23798  1.0000
  C   C525      1.0  0.08134  0.25195  0.22027  1.0000
  C   C526      1.0  0.05916  0.24132  0.21793  1.0000
  C   C527      1.0  0.07159  0.23019  0.24278  1.0000
  C   C528      1.0  0.07899  0.23164  0.25506  1.0000
  C   C529      1.0  0.06915  0.21416  0.24371  1.0000
  C   C530      1.0  0.08376  0.21795  0.26738  1.0000
  S   S169      1.0  0.13898  0.19454  0.33070  1.0000
  C   C531      1.0  0.08123  0.20244  0.26791  1.0000
  H   H604      1.0  0.04967  0.26900  0.22871  1.0000
  H   H605      1.0  0.04310  0.25291  0.24589  1.0000
  H   H606      1.0  0.05926  0.26251  0.24594  1.0000
  H   H607      1.0  0.08673  0.25662  0.22802  1.0000
  H   H608      1.0  0.07815  0.26281  0.21014  1.0000
  H   H609      1.0  0.09134  0.24245  0.21457  1.0000
  H   H610      1.0  0.05564  0.25260  0.20835  1.0000
  H   H611      1.0  0.06805  0.23196  0.21111  1.0000
  H   H612      1.0  0.04757  0.23665  0.22422  1.0000
  H   H613      1.0  0.08107  0.24339  0.25534  1.0000
  H   H614      1.0  0.24559  0.18596  0.36459  1.0000
  H   H615      1.0  0.25196  0.22993  0.46632  1.0000
  H   H616      1.0  0.16451  0.37519  0.36367  1.0000
  C   C532      1.0  0.11815  0.21601  0.40934  1.0000
  H   H617      1.0  0.38085  0.29575  0.13709  1.0000
  H   H618      1.0  0.19335  0.21325  0.00967  1.0000
  S   S170      1.0  0.33485  0.37563  0.18778  1.0000
  H   H619      1.0  0.36567  0.22430  0.19358  1.0000
  C   C533      1.0  0.32439  0.30374  0.12788  1.0000
  H   H620      1.0  0.20904  0.24482  0.44536  1.0000
  C   C534      1.0  0.22196  0.28090  0.43236  1.0000
  C   C535      1.0  0.09793  0.32921  0.10349  1.0000
  N   N36       1.0  0.37031  0.31880  0.12161  1.0000
  H   H621      1.0  0.33741  0.33833  0.12523  1.0000
  H   H622      1.0  0.39044  0.31255  0.13430  1.0000
  C   C536      1.0  0.32395  0.32023  0.12751  1.0000
  H   H623      1.0  0.07716  0.32393  0.07675  1.0000
  H   H624      1.0  0.26683  0.24631  0.09750  1.0000
  C   C537      1.0  0.06845  0.33628  0.10378  1.0000
  H   H625      1.0  0.14396  0.26359  0.99838  1.0000
  H   H626      1.0  0.40825  0.21449  0.30906  1.0000
  C   C538      1.0  0.31788  0.18250  0.05644  1.0000
  H   H627      1.0  0.13282  0.24289  0.39972  1.0000
  C   C539      1.0  0.48320  0.31785  0.17592  1.0000
  H   H628      1.0  0.25552  0.22384  0.41676  1.0000
  S   S171      1.0  0.25966  0.36789  0.08963  1.0000
  S   S172      1.0  0.18526  0.36729  0.27504  1.0000
  C   C540      1.0  0.08742  0.32704  0.08014  1.0000
  H   H629      1.0  0.26627  0.19434  0.38604  1.0000
  H   H630      1.0  0.36986  0.31854  0.19330  1.0000
  C   C541      1.0  0.21988  0.20745  0.35072  1.0000
  H   H631      1.0  0.44397  0.19393  0.21750  1.0000
  C   C542      1.0  0.12419  0.35537  0.23880  1.0000
  H   H632      1.0  0.11718  0.36846  0.20228  1.0000
  H   H633      1.0  0.13413  0.34372  0.08842  1.0000
  H   H634      1.0  0.08015  0.30537  0.11996  1.0000
  H   H635      1.0  0.33504  0.19503  0.12950  1.0000
  C   C543      1.0  0.09696  0.32802  0.12052  1.0000
  H   H636      1.0  0.40775  0.20624  0.19079  1.0000
  H   H637      1.0  0.33996  0.27949  0.12650  1.0000
  H   H638      1.0  0.25794  0.29110  0.46582  1.0000
  H   H639      1.0  0.34213  0.22731  0.18069  1.0000
  H   H640      1.0  0.22305  0.20591  0.36245  1.0000
  C   C544      1.0  0.12372  0.33926  0.09737  1.0000
  C   C545      1.0  0.35351  0.28036  0.17160  1.0000
  H   H641      1.0  0.26355  0.27501  0.41669  1.0000
  H   H642      1.0  0.48208  0.26948  0.21247  1.0000
  C   C546      1.0  0.45497  0.19941  0.21533  1.0000
  H   H643      1.0  0.15578  0.19530  0.36215  1.0000
  H   H644      1.0  0.22947  0.19419  0.02875  1.0000
  H   H645      1.0  0.06890  0.34958  0.09842  1.0000
  H   H646      1.0  0.22237  0.19177  0.97701  1.0000
  H   H647      1.0  0.15108  0.20576  0.42766  1.0000
  C   C547      1.0  0.45795  0.20725  0.30300  1.0000
  H   H648      1.0  0.44551  0.19295  0.34484  1.0000
  H   H649      1.0  0.01906  0.20379  0.18902  1.0000
  H   H650      1.0  0.17803  0.23100  0.00274  1.0000
  H   H651      1.0  0.05809  0.33366  0.10011  1.0000
  H   H652      1.0  0.11375  0.33607  0.07879  1.0000
  S   S173      1.0  0.18933  0.37064  0.14974  1.0000
  N   N37       1.0  0.27499  0.21811  0.43921  1.0000
  C   C548      1.0  0.48222  0.29501  0.16479  1.0000
  Fe  Fe86      1.0  0.23845  0.35542  0.10423  1.0000
  S   S174      1.0  0.15796  0.36737  0.32028  1.0000
  H   H653      1.0  0.37606  0.32109  0.09517  1.0000
  C   C549      1.0  0.47694  0.21810  0.22072  1.0000
  C   C550      1.0  0.46880  0.19901  0.33259  1.0000
  H   H654      1.0  0.34491  0.37752  0.15227  1.0000
  H   H655      1.0  0.44657  0.21426  0.24116  1.0000
  C   C551      1.0  0.06139  0.21045  0.19189  1.0000
  H   H656      1.0  0.06357  0.21173  0.23504  1.0000
  N   N38       1.0  0.23575  0.23181  0.05811  1.0000
  C   C552      1.0  0.21766  0.23368  0.06554  1.0000
  C   C553      1.0  0.23816  0.24371  0.04189  1.0000
  C   C554      1.0  0.24210  0.21479  0.05484  1.0000
  C   C555      1.0  0.24421  0.23533  0.06925  1.0000
  C   C556      1.0  0.25787  0.22385  0.07530  1.0000
  C   C557      1.0  0.23905  0.25087  0.07406  1.0000
  C   C558      1.0  0.26573  0.22781  0.08554  1.0000
  C   C559      1.0  0.24703  0.25470  0.08424  1.0000
  C   C560      1.0  0.26039  0.24320  0.08992  1.0000
  H   H657      1.0  0.21144  0.24666  0.06664  1.0000
  H   H658      1.0  0.31301  0.29979  0.12926  1.0000
  H   H659      1.0  0.21542  0.22554  0.07813  1.0000
  H   H660      1.0  0.23286  0.25683  0.04305  1.0000
  H   H661      1.0  0.23203  0.24151  0.03307  1.0000
  H   H662      1.0  0.25165  0.24274  0.03604  1.0000
  H   H663      1.0  0.24075  0.20508  0.06649  1.0000
  H   H664      1.0  0.23531  0.21245  0.04669  1.0000
  H   H665      1.0  0.25539  0.21287  0.04822  1.0000
  H   H666      1.0  0.26301  0.21189  0.07202  1.0000
  H   H667      1.0  0.22899  0.26034  0.06969  1.0000
  H   H668      1.0  0.27635  0.21904  0.08975  1.0000
  C   C561      1.0  0.33029  0.18236  0.06439  1.0000
  H   H669      1.0  0.12931  0.20782  0.43686  1.0000
  N   N39       1.0  0.14114  0.28204  0.10893  1.0000
  C   C562      1.0  0.15065  0.29278  0.11167  1.0000
  C   C563      1.0  0.15208  0.26522  0.10922  1.0000
  C   C564      1.0  0.13755  0.28896  0.09214  1.0000
  C   C565      1.0  0.12535  0.28089  0.12139  1.0000
  C   C566      1.0  0.11486  0.27114  0.12033  1.0000
  C   C567      1.0  0.11984  0.28933  0.13473  1.0000
  C   C568      1.0  0.09973  0.27009  0.13169  1.0000
  C   C569      1.0  0.10466  0.28819  0.14604  1.0000
  C   C570      1.0  0.09461  0.27865  0.14449  1.0000
  H   H670      1.0  0.15433  0.28796  0.12386  1.0000
  H   H671      1.0  0.16239  0.29344  0.10201  1.0000
  H   H672      1.0  0.14337  0.30580  0.11103  1.0000
  H   H673      1.0  0.15445  0.25921  0.12184  1.0000
  H   H674      1.0  0.16433  0.26567  0.10040  1.0000
  H   H675      1.0  0.14660  0.25680  0.10551  1.0000
  H   H676      1.0  0.12847  0.30108  0.09160  1.0000
  H   H677      1.0  0.14896  0.29095  0.08245  1.0000
  H   H678      1.0  0.13229  0.28055  0.08824  1.0000
  H   H679      1.0  0.11819  0.26433  0.11058  1.0000
  H   H680      1.0  0.12693  0.29698  0.13669  1.0000
  H   H681      1.0  0.09187  0.26266  0.13047  1.0000
  H   H682      1.0  0.10056  0.29481  0.15608  1.0000
  H   H683      1.0  0.08277  0.27796  0.15317  1.0000
  H   H684      1.0  0.42064  0.18382  0.30905  1.0000
  H   H685      1.0  0.33605  0.29947  0.15932  1.0000
  H   H686      1.0  0.16197  0.36479  0.17741  1.0000
  H   H687      1.0  0.47710  0.27330  0.24089  1.0000
  H   H688      1.0  0.06473  0.33471  0.11750  1.0000
  H   H689      1.0  0.08935  0.21942  0.27665  1.0000
  C   C571      1.0  0.14558  0.20482  0.38435  1.0000
  N   N40       1.0  0.18460  0.30155  0.16853  1.0000
  C   C572      1.0  0.17209  0.31701  0.17126  1.0000
  C   C573      1.0  0.17860  0.28737  0.18082  1.0000
  C   C574      1.0  0.20026  0.30292  0.17184  1.0000
  C   C575      1.0  0.18749  0.29871  0.15161  1.0000
  C   C576      1.0  0.20100  0.28619  0.14593  1.0000
  C   C577      1.0  0.17709  0.30809  0.14033  1.0000
  C   C578      1.0  0.20453  0.28393  0.12971  1.0000
  C   C579      1.0  0.18084  0.30580  0.12409  1.0000
  C   C580      1.0  0.19455  0.29381  0.11878  1.0000
  H   H690      1.0  0.15947  0.31641  0.17066  1.0000
  H   H691      1.0  0.17079  0.31941  0.18370  1.0000
  H   H692      1.0  0.17573  0.32806  0.16195  1.0000
  H   H693      1.0  0.16670  0.28602  0.17899  1.0000
  H   H694      1.0  0.17622  0.28898  0.19377  1.0000
  H   H695      1.0  0.18775  0.27540  0.18000  1.0000
  H   H696      1.0  0.19818  0.30630  0.18397  1.0000
  H   H697      1.0  0.20985  0.29114  0.17231  1.0000
  H   H698      1.0  0.20592  0.31258  0.16207  1.0000
  H   H699      1.0  0.20930  0.27834  0.15381  1.0000
  H   H700      1.0  0.16647  0.31785  0.14345  1.0000
  H   H701      1.0  0.21539  0.27481  0.12548  1.0000
  H   H702      1.0  0.17350  0.31394  0.11534  1.0000
  H   H703      1.0  0.19764  0.29238  0.10607  1.0000
  N   N41       1.0  0.29506  0.32319  0.08854  1.0000
  C   C581      1.0  0.29189  0.33635  0.07370  1.0000
  C   C582      1.0  0.28566  0.31045  0.09019  1.0000
  C   C583      1.0  0.28819  0.33040  0.10351  1.0000
  C   C584      1.0  0.31319  0.31646  0.08692  1.0000
  C   C585      1.0  0.32069  0.29938  0.08712  1.0000
  C   C586      1.0  0.32396  0.32715  0.08496  1.0000
  H   H704      1.0  0.29797  0.33172  0.06210  1.0000
  H   H705      1.0  0.27833  0.34077  0.07388  1.0000
  H   H706      1.0  0.29639  0.34760  0.07286  1.0000
  H   H707      1.0  0.28989  0.30455  0.07925  1.0000
  H   H708      1.0  0.27211  0.31580  0.09124  1.0000
  H   H709      1.0  0.28688  0.30061  0.10159  1.0000
  H   H710      1.0  0.29348  0.34113  0.10271  1.0000
  H   H711      1.0  0.27445  0.33512  0.10536  1.0000
  H   H712      1.0  0.29058  0.32095  0.11488  1.0000
  H   H713      1.0  0.24303  0.26676  0.08750  1.0000
  H   H714      1.0  0.31911  0.34027  0.08469  1.0000
  C   C587      1.0  0.17266  0.20264  0.99865  1.0000
  S   S175      1.0  0.46171  0.18246  0.26170  1.0000
  H   H715      1.0  0.38535  0.30131  0.10640  1.0000
  H   H716      1.0  0.11730  0.20311  0.41003  1.0000
  H   H717      1.0  0.10828  0.22033  0.41972  1.0000
  H   H718      1.0  0.34336  0.28052  0.08525  1.0000
  H   H719      1.0  0.16781  0.19086  0.27511  1.0000
  C   C588      1.0  0.13943  0.25718  0.97758  1.0000
  C   C589      1.0  0.18002  0.21960  0.01266  1.0000
  H   H720      1.0  0.27995  0.22711  0.45816  1.0000
  H   H721      1.0  0.12669  0.25636  0.98352  1.0000
  C   C590      1.0  0.38870  0.20312  0.16219  1.0000
  C   C591      1.0  0.28606  0.38007  0.08859  1.0000
  H   H722      1.0  0.31362  0.29023  0.08852  1.0000
  C   C592      1.0  0.36219  0.31470  0.20585  1.0000
  H   H723      1.0  0.43573  0.23394  0.23099  1.0000
  H   H724      1.0  0.22244  0.24199  0.46833  1.0000
  C   C593      1.0  0.17747  0.30365  0.47427  1.0000
  H   H725      1.0  0.42840  0.21532  0.23436  1.0000
  C   C594      1.0  0.33788  0.29355  0.08528  1.0000
  H   H726      1.0  0.14785  0.22127  0.03011  1.0000
  C   C595      1.0  0.21887  0.19135  0.03847  1.0000
  C   C596      1.0  0.20848  0.18395  0.25615  1.0000
  H   H727      1.0  0.32361  0.20758  0.19192  1.0000
  C   C597      1.0  0.28424  0.22941  0.42579  1.0000
  H   H728      1.0  0.34158  0.33599  0.18680  1.0000
  H   H729      1.0  0.40712  0.19455  0.33368  1.0000
  C   C598      1.0  0.32442  0.18446  0.46033  1.0000
  H   H730      1.0  0.44613  0.22355  0.18963  1.0000
  C   C599      1.0  0.20554  0.22567  0.32960  1.0000
  C   C600      1.0  0.14945  0.37064  0.23885  1.0000
  H   H731      1.0  0.31567  0.22037  0.07416  1.0000
  H   H732      1.0  0.18380  0.20062  0.35836  1.0000
  H   H733      1.0  0.19813  0.23763  0.32482  1.0000
  H   H734      1.0  0.34914  0.32957  0.08154  1.0000
  C   C601      1.0  0.08330  0.30771  0.10621  1.0000
  N   N42       1.0  0.16893  0.20840  0.01430  1.0000
  H   H735      1.0  0.08686  0.32369  0.12994  1.0000
  H   H736      1.0  0.18452  0.18804  0.02812  1.0000
  C   C602      1.0  0.43980  0.22041  0.23099  1.0000
  C   C603      1.0  0.25689  0.22537  0.44127  1.0000
  C   C604      1.0  0.24692  0.23091  0.45580  1.0000
  C   C605      1.0  0.23171  0.23432  0.42980  1.0000
  S   S176      1.0  0.22992  0.37828  0.26339  1.0000
  H   H737      1.0  0.37116  0.20177  0.21683  1.0000
  C   C606      1.0  0.22227  0.23947  0.44424  1.0000
  C   C607      1.0  0.39663  0.20994  0.17011  1.0000
  C   C608      1.0  0.33400  0.20597  0.19754  1.0000
  C   C609      1.0  0.05643  0.20106  0.20782  1.0000
  C   C610      1.0  0.40176  0.20082  0.18464  1.0000
  S   S177      1.0  0.34497  0.19518  0.08136  1.0000
  C   C611      1.0  0.46835  0.23773  0.19670  1.0000
  C   C612      1.0  0.19129  0.18392  0.06327  1.0000
  H   H738      1.0  0.26207  0.28861  0.43856  1.0000
  C   C613      1.0  0.34252  0.29576  0.16938  1.0000
  C   C614      1.0  0.46503  0.22455  0.21058  1.0000
  H   H739      1.0  0.36953  0.30300  0.21211  1.0000
  C   C615      1.0  0.27250  0.37372  0.09900  1.0000
  H   H740      1.0  0.14897  0.22960  0.00864  1.0000
  H   H741      1.0  0.09912  0.31852  0.07524  1.0000
  N   N43       1.0  0.08463  0.32516  0.09835  1.0000
  N   N44       1.0  0.34578  0.31293  0.20480  1.0000
  H   H742      1.0  0.36098  0.32410  0.21308  1.0000
  S   S178      1.0  0.28852  0.19703  0.04543  1.0000
  C   C616      1.0  0.15833  0.20062  0.37102  1.0000
  C   C617      1.0  0.17910  0.27579  0.47137  1.0000
  Fe  Fe87      1.0  0.40577  0.19259  0.25221  1.0000
  H   H743      1.0  0.31214  0.32916  0.12868  1.0000
  H   H744      1.0  0.21780  0.19077  0.24833  1.0000
  H   H745      1.0  0.19390  0.35577  0.31523  1.0000
  C   C618      1.0  0.36154  0.27536  0.18477  1.0000
  H   H746      1.0  0.15426  0.26090  0.29728  1.0000
  H   H747      1.0  0.23817  0.26996  0.41231  1.0000
  H   H748      1.0  0.37022  0.26341  0.18638  1.0000
  N   N45       1.0  0.16299  0.31051  0.31937  1.0000
  C   C619      1.0  0.17215  0.32235  0.30648  1.0000
  C   C620      1.0  0.14668  0.32027  0.32666  1.0000
  C   C621      1.0  0.17269  0.30280  0.33249  1.0000
  C   C622      1.0  0.16037  0.29729  0.31293  1.0000
  C   C623      1.0  0.15194  0.28494  0.32378  1.0000
  C   C624      1.0  0.16625  0.29603  0.29602  1.0000
  C   C625      1.0  0.14972  0.27206  0.31812  1.0000
  C   C626      1.0  0.16400  0.28304  0.29052  1.0000
  C   C627      1.0  0.15581  0.27106  0.30155  1.0000
  H   H749      1.0  0.17384  0.33215  0.31170  1.0000
  H   H750      1.0  0.18489  0.31599  0.30096  1.0000
  H   H751      1.0  0.16528  0.32909  0.29646  1.0000
  H   H752      1.0  0.13979  0.31270  0.33776  1.0000
  H   H753      1.0  0.13867  0.32559  0.31742  1.0000
  H   H754      1.0  0.14818  0.33087  0.33085  1.0000
  H   H755      1.0  0.16567  0.29549  0.34372  1.0000
  H   H756      1.0  0.18455  0.29434  0.32793  1.0000
  H   H757      1.0  0.17602  0.31229  0.33682  1.0000
  H   H758      1.0  0.14713  0.28508  0.33681  1.0000
  H   H759      1.0  0.17280  0.30481  0.28680  1.0000
  H   H760      1.0  0.14330  0.26274  0.32665  1.0000
  H   H761      1.0  0.16882  0.28215  0.27764  1.0000
  C   C628      1.0  0.17957  0.18576  0.99750  1.0000
  H   H762      1.0  0.20705  0.23284  0.35114  1.0000
  H   H763      1.0  0.39889  0.22239  0.16490  1.0000
  C   C629      1.0  0.07392  0.20056  0.25614  1.0000
  C   C630      1.0  0.22077  0.28875  0.44501  1.0000
  C   C631      1.0  0.30468  0.19633  0.05488  1.0000
  H   H764      1.0  0.46135  0.19245  0.22564  1.0000
  H   H765      1.0  0.25936  0.36721  0.12437  1.0000
  C   C632      1.0  0.35766  0.21544  0.19843  1.0000
  C   C633      1.0  0.25056  0.28668  0.43738  1.0000
  C   C634      1.0  0.16571  0.26224  0.97848  1.0000
  C   C635      1.0  0.36070  0.20229  0.21187  1.0000
  C   C636      1.0  0.19213  0.19236  0.26095  1.0000
  S   S179      1.0  0.17856  0.26719  0.98854  1.0000
  C   C637      1.0  0.31631  0.20973  0.06936  1.0000
  H   H766      1.0  0.42839  0.21917  0.20547  1.0000
  C   C638      1.0  0.15081  0.36305  0.22586  1.0000
  C   C639      1.0  0.16947  0.21411  0.98386  1.0000
  H   H767      1.0  0.10758  0.33189  0.13883  1.0000
  H   H768      1.0  0.20855  0.29242  0.45246  1.0000
  H   H769      1.0  0.11480  0.22403  0.39760  1.0000
  H   H770      1.0  0.17787  0.22387  0.02435  1.0000
  C   C640      1.0  0.99171  0.19873  0.21348  1.0000
  H   H771      1.0  0.19191  0.37493  0.34313  1.0000
  C   C641      1.0  0.12296  0.36264  0.25201  1.0000
  C   C642      1.0  0.20568  0.20428  0.04345  1.0000
  H   H772      1.0  0.42704  0.21821  0.29513  1.0000
  C   C643      1.0  0.22987  0.23786  0.45717  1.0000
  Fe  Fe88      1.0  0.12168  0.19223  0.31635  1.0000
  H   H773      1.0  0.11182  0.37745  0.18249  1.0000
  H   H774      1.0  0.28090  0.23127  0.41367  1.0000
  H   H775      1.0  0.33611  0.18950  0.25031  1.0000
  S   S180      1.0  0.21165  0.36745  0.10355  1.0000
  C   C644      1.0  0.13563  0.37014  0.25212  1.0000
  C   C645      1.0  0.17932  0.19005  0.32847  1.0000
  H   H776      1.0  0.29794  0.22434  0.42374  1.0000
  H   H777      1.0  0.38059  0.34003  0.11882  1.0000
  H   H778      1.0  0.13438  0.37614  0.26208  1.0000
  C   C646      1.0  0.33701  0.19267  0.21086  1.0000
  C   C647      1.0  0.31986  0.18388  0.17098  1.0000
  H   H779      1.0  0.33468  0.19048  0.45383  1.0000
  C   C648      1.0  0.39918  0.18474  0.19125  1.0000
  C   C649      1.0  0.26978  0.37213  0.11621  1.0000
  Fe  Fe89      1.0  0.17034  0.38069  0.29527  1.0000
  H   H780      1.0  0.05894  0.18455  0.31661  1.0000
  H   H781      1.0  0.22219  0.18810  0.31997  1.0000
  H   H782      1.0  0.16347  0.18556  0.03071  1.0000
  H   H783      1.0  0.36720  0.18646  0.24340  1.0000
  H   H784      1.0  0.27830  0.37630  0.13600  1.0000
  H   H785      1.0  0.16141  0.36351  0.21549  1.0000
  H   H786      1.0  0.41757  0.20501  0.34168  1.0000
  C   C650      1.0  0.28041  0.37739  0.12280  1.0000
  H   H787      1.0  0.22080  0.37420  0.15669  1.0000
  H   H788      1.0  0.42024  0.22604  0.31387  1.0000
  H   H789      1.0  0.22050  0.32446  0.46757  1.0000
  H   H790      1.0  0.47513  0.20823  0.23161  1.0000
  C   C651      1.0  0.45284  0.19756  0.33286  1.0000
  H   H791      1.0  0.36685  0.18359  0.13929  1.0000
  C   C652      1.0  0.18014  0.18364  0.27126  1.0000
  H   H792      1.0  0.09580  0.37562  0.20097  1.0000
  H   H793      1.0  0.28830  0.38133  0.07532  1.0000
  H   H794      1.0  0.34182  0.18229  0.36130  1.0000
  H   H795      1.0  0.42503  0.18304  0.34154  1.0000
  S   S181      1.0  0.16431  0.38213  0.23698  1.0000
  H   H796      1.0  0.04160  0.23328  0.89404  1.0000
  S   S182      1.0  0.22952  0.37837  0.77316  1.0000
  C   C653      1.0  0.16357  0.20300  0.87044  1.0000
  H   H797      1.0  0.35369  0.22232  0.71738  1.0000
  H   H798      1.0  0.23351  0.27830  0.48019  1.0000
  H   H799      1.0  0.18831  0.30379  0.89597  1.0000
  Fe  Fe90      1.0  0.30160  0.20655  0.54497  1.0000
  C   C654      1.0  0.10936  0.25236  0.57468  1.0000
  H   H800      1.0  0.21173  0.20624  0.95202  1.0000
  H   H801      1.0  0.23110  0.27523  0.84762  1.0000
  Fe  Fe91      1.0  0.42242  0.23035  0.61188  1.0000
  S   S183      1.0  0.39907  0.25052  0.61263  1.0000
  C   C655      1.0  0.46230  0.21746  0.62599  1.0000
  Fe  Fe92      1.0  0.38735  0.23240  0.60766  1.0000
  C   C656      1.0  0.03553  0.20621  0.74809  1.0000
  Fe  Fe93      1.0  0.39249  0.23777  0.63934  1.0000
  S   S184      1.0  0.38259  0.25071  0.66071  1.0000
  Fe  Fe94      1.0  0.35775  0.22624  0.75679  1.0000
  Fe  Fe95      1.0  0.18818  0.28504  0.54280  1.0000
  S   S185      1.0  0.17210  0.31011  0.53529  1.0000
  S   S186      1.0  0.17964  0.26217  0.55877  1.0000
  Fe  Fe96      1.0  0.19244  0.31982  0.53902  1.0000
  H   H802      1.0  0.23854  0.29802  0.70783  1.0000
  S   S187      1.0  0.20739  0.29465  0.54827  1.0000
  H   H803      1.0  0.18059  0.18839  0.95692  1.0000
  H   H804      1.0  0.06735  0.24860  0.85448  1.0000
  C   C657      1.0  0.18566  0.34312  0.67410  1.0000
  H   H805      1.0  0.48174  0.33810  0.73417  1.0000
  S   S188      1.0  0.47629  0.31985  0.68674  1.0000
  Fe  Fe97      1.0  0.42661  0.30676  0.68071  1.0000
  S   S189      1.0  0.44815  0.29238  0.69218  1.0000
  S   S190      1.0  0.42457  0.30249  0.65674  1.0000
  Fe  Fe98      1.0  0.41217  0.32690  0.70745  1.0000
  S   S191      1.0  0.43290  0.31434  0.72106  1.0000
  S   S192      1.0  0.38749  0.34200  0.71829  1.0000
  Fe  Fe99      1.0  0.44969  0.31685  0.69562  1.0000
  C   C658      1.0  0.02088  0.22503  0.86939  1.0000
  Fe  Fe100     1.0  0.42983  0.29104  0.71637  1.0000
  S   S193      1.0  0.43017  0.26771  0.73619  1.0000
  S   S194      1.0  0.42920  0.33157  0.68226  1.0000
  S   S195      1.0  0.40805  0.30328  0.70466  1.0000
  Fe  Fe101     1.0  0.08221  0.23331  0.80826  1.0000
  S   S196      1.0  0.05766  0.24953  0.80366  1.0000
  S   S197      1.0  0.09403  0.24554  0.82111  1.0000
  Fe  Fe102     1.0  0.08135  0.21003  0.78725  1.0000
  S   S198      1.0  0.05709  0.22487  0.78099  1.0000
  H   H806      1.0  0.03825  0.19245  0.74991  1.0000
  Fe  Fe103     1.0  0.06779  0.24696  0.77733  1.0000
  S   S199      1.0  0.06246  0.26896  0.75671  1.0000
  S   S200      1.0  0.09285  0.23224  0.78132  1.0000
  S   S201      1.0  0.07316  0.20948  0.81458  1.0000
  Fe  Fe104     1.0  0.14176  0.24831  0.92389  1.0000
  S   S202      1.0  0.16327  0.25901  0.90751  1.0000
  S   S203      1.0  0.13332  0.24933  0.95121  1.0000
  Fe  Fe105     1.0  0.13467  0.23816  0.89507  1.0000
  S   S204      1.0  0.15569  0.24825  0.87662  1.0000
  S   S205      1.0  0.11990  0.22361  0.88824  1.0000
  Fe  Fe106     1.0  0.17013  0.23654  0.89658  1.0000
  Fe  Fe107     1.0  0.14697  0.26979  0.88913  1.0000
  S   S206      1.0  0.14539  0.29590  0.87393  1.0000
  S   S207      1.0  0.14986  0.22471  0.91440  1.0000
  S   S208      1.0  0.12459  0.26084  0.90618  1.0000
  Fe  Fe108     1.0  0.09048  0.22289  0.65512  1.0000
  S   S209      1.0  0.11170  0.20163  0.66048  1.0000
  S   S210      1.0  0.06451  0.22080  0.66903  1.0000
  Fe  Fe109     1.0  0.11304  0.24550  0.63254  1.0000
  S   S211      1.0  0.13629  0.22636  0.63615  1.0000
  S   S212      1.0  0.11534  0.27068  0.61624  1.0000
  Fe  Fe110     1.0  0.12259  0.20884  0.63334  1.0000
  H   H807      1.0  0.04892  0.21937  0.84483  1.0000
  Fe  Fe111     1.0  0.12347  0.22085  0.66287  1.0000
  S   S213      1.0  0.13494  0.21528  0.68486  1.0000
  S   S214      1.0  0.10021  0.22843  0.62751  1.0000
  S   S215      1.0  0.10132  0.24173  0.65977  1.0000
  Fe  Fe112     1.0  0.04945  0.22583  0.80782  1.0000
  S   S216      1.0  0.33397  0.24470  0.75383  1.0000
  S   S217      1.0  0.37837  0.22867  0.73410  1.0000
  Fe  Fe113     1.0  0.33229  0.24634  0.77985  1.0000
  S   S218      1.0  0.32276  0.27142  0.78639  1.0000
  S   S219      1.0  0.35720  0.22946  0.78203  1.0000
  Fe  Fe114     1.0  0.22343  0.35312  0.78270  1.0000
  S   S220      1.0  0.22056  0.34027  0.76456  1.0000
  C   C659      1.0  0.47896  0.24006  0.66023  1.0000
  Fe  Fe115     1.0  0.21733  0.32464  0.81201  1.0000
  S   S221      1.0  0.21428  0.30924  0.79639  1.0000
  S   S222      1.0  0.21623  0.31182  0.83874  1.0000
  Fe  Fe116     1.0  0.23599  0.31802  0.77820  1.0000
  S   S223      1.0  0.25440  0.29990  0.76421  1.0000
  Fe  Fe117     1.0  0.19909  0.33273  0.78428  1.0000
  S   S224      1.0  0.17542  0.33256  0.77802  1.0000
  S   S225      1.0  0.24074  0.33128  0.79491  1.0000
  S   S226      1.0  0.20026  0.34779  0.80140  1.0000
  S   S227      1.0  0.19239  0.28142  0.70633  1.0000
  Fe  Fe118     1.0  0.14524  0.29408  0.70724  1.0000
  S   S228      1.0  0.15783  0.26772  0.71601  1.0000
  S   S229      1.0  0.11873  0.30181  0.70440  1.0000
  Fe  Fe119     1.0  0.17103  0.27879  0.72812  1.0000
  S   S230      1.0  0.17739  0.26921  0.75315  1.0000
  Fe  Fe120     1.0  0.17793  0.27297  0.69338  1.0000
  S   S231      1.0  0.18878  0.25638  0.67505  1.0000
  S   S232      1.0  0.16450  0.29877  0.68377  1.0000
  C   C660      1.0  0.03260  0.22950  0.89003  1.0000
  C   C661      1.0  0.99203  0.20610  0.68405  1.0000
  H   H808      1.0  0.04551  0.26304  0.73364  1.0000
  C   C662      1.0  0.02008  0.22317  0.90252  1.0000
  C   C663      1.0  0.17626  0.31496  0.77094  1.0000
  C   C664      1.0  0.16220  0.31347  0.76670  1.0000
  C   C665      1.0  0.16251  0.29938  0.76129  1.0000
  C   C666      1.0  0.17678  0.28659  0.76039  1.0000
  C   C667      1.0  0.19075  0.28792  0.76492  1.0000
  C   C668      1.0  0.19059  0.30223  0.76990  1.0000
  H   H809      1.0  0.15110  0.32330  0.76746  1.0000
  H   H810      1.0  0.15164  0.29841  0.75792  1.0000
  H   H811      1.0  0.20180  0.27803  0.76422  1.0000
  H   H812      1.0  0.20158  0.30341  0.77283  1.0000
  C   C669      1.0  0.30396  0.27997  0.77989  1.0000
  C   C670      1.0  0.29499  0.29598  0.78164  1.0000
  C   C671      1.0  0.27970  0.30238  0.77672  1.0000
  C   C672      1.0  0.27362  0.29284  0.76985  1.0000
  C   C673      1.0  0.28276  0.27706  0.76783  1.0000
  C   C674      1.0  0.29770  0.27055  0.77311  1.0000
  H   H813      1.0  0.29975  0.30329  0.78696  1.0000
  H   H814      1.0  0.27273  0.31469  0.77804  1.0000
  H   H815      1.0  0.27806  0.26960  0.76260  1.0000
  H   H816      1.0  0.30411  0.25804  0.77219  1.0000
  C   C675      1.0  0.06345  0.19983  0.67624  1.0000
  C   C676      1.0  0.30996  0.35595  0.76094  1.0000
  C   C677      1.0  0.07268  0.18825  0.66661  1.0000
  H   H817      1.0  0.47959  0.20724  0.58003  1.0000
  H   H818      1.0  0.47371  0.27382  0.65393  1.0000
  C   C678      1.0  0.30347  0.18316  0.79670  1.0000
  H   H819      1.0  0.47891  0.24586  0.59409  1.0000
  H   H820      1.0  0.32005  0.18322  0.87504  1.0000
  H   H821      1.0  0.15464  0.32633  0.58727  1.0000
  C   C679      1.0  0.25154  0.35279  0.69728  1.0000
  H   H822      1.0  0.10939  0.19976  0.71188  1.0000
  H   H823      1.0  0.02180  0.24551  0.79296  1.0000
  S   S233      1.0  0.32642  0.19427  0.48734  1.0000
  C   C680      1.0  0.99527  0.22047  0.81619  1.0000
  H   H824      1.0  0.44476  0.19762  0.61567  1.0000
  C   C681      1.0  0.30968  0.21366  0.70663  1.0000
  H   H825      1.0  0.01787  0.23705  0.73721  1.0000
  C   C682      1.0  0.17878  0.29654  0.93801  1.0000
  C   C683      1.0  0.18060  0.20175  0.86787  1.0000
  H   H826      1.0  0.10108  0.24782  0.58613  1.0000
  C   C684      1.0  0.15110  0.22530  0.68185  1.0000
  C   C685      1.0  0.15505  0.22758  0.69569  1.0000
  C   C686      1.0  0.16701  0.23672  0.69360  1.0000
  C   C687      1.0  0.17510  0.24355  0.67768  1.0000
  C   C688      1.0  0.17178  0.24053  0.66385  1.0000
  C   C689      1.0  0.15971  0.23149  0.66592  1.0000
  H   H827      1.0  0.14863  0.22257  0.70806  1.0000
  H   H828      1.0  0.17010  0.23832  0.70434  1.0000
  H   H829      1.0  0.17810  0.24565  0.65153  1.0000
  H   H830      1.0  0.15699  0.22950  0.65518  1.0000
  C   C690      1.0  0.14600  0.25432  0.96145  1.0000
  C   C691      1.0  0.16247  0.25543  0.95389  1.0000
  C   C692      1.0  0.17229  0.25926  0.96242  1.0000
  H   H831      1.0  0.03361  0.19759  0.66815  1.0000
  H   H832      1.0  0.16775  0.25316  0.94155  1.0000
  H   H833      1.0  0.18506  0.25997  0.95650  1.0000
  C   C693      1.0  0.16498  0.30077  0.86468  1.0000
  C   C694      1.0  0.17904  0.29165  0.87095  1.0000
  C   C695      1.0  0.19468  0.29534  0.86313  1.0000
  C   C696      1.0  0.19643  0.30786  0.84875  1.0000
  C   C697      1.0  0.18241  0.31690  0.84238  1.0000
  C   C698      1.0  0.16667  0.31353  0.85049  1.0000
  H   H834      1.0  0.17793  0.28178  0.88183  1.0000
  H   H835      1.0  0.20546  0.28837  0.86814  1.0000
  H   H836      1.0  0.18364  0.32665  0.83133  1.0000
  H   H837      1.0  0.15586  0.32064  0.84557  1.0000
  H   H838      1.0  0.16425  0.25199  0.53973  1.0000
  H   H839      1.0  0.34624  0.20502  0.71720  1.0000
  C   C699      1.0  0.19143  0.19447  0.90641  1.0000
  C   C700      1.0  0.01233  0.20606  0.77137  1.0000
  C   C701      1.0  0.28511  0.34765  0.77916  1.0000
  H   H840      1.0  0.47434  0.20212  0.64563  1.0000
  H   H841      1.0  0.18199  0.28158  0.49322  1.0000
  C   C702      1.0  0.16453  0.26708  0.62145  1.0000
  H   H842      1.0  0.11571  0.22300  0.71743  1.0000
  C   C703      1.0  0.47531  0.21181  0.63448  1.0000
  C   C704      1.0  0.07882  0.27640  0.74158  1.0000
  C   C705      1.0  0.09561  0.26942  0.74199  1.0000
  C   C706      1.0  0.10817  0.27676  0.73030  1.0000
  C   C707      1.0  0.10387  0.29111  0.71834  1.0000
  C   C708      1.0  0.08715  0.29762  0.71766  1.0000
  C   C709      1.0  0.07470  0.29032  0.72922  1.0000
  H   H843      1.0  0.09893  0.25866  0.75148  1.0000
  H   H844      1.0  0.12108  0.27156  0.73080  1.0000
  H   H845      1.0  0.08375  0.30864  0.70840  1.0000
  H   H846      1.0  0.06178  0.29573  0.72879  1.0000
  C   C710      1.0  0.10206  0.23854  0.83934  1.0000
  C   C711      1.0  0.10926  0.24928  0.84353  1.0000
  C   C712      1.0  0.11506  0.24473  0.85831  1.0000
  C   C713      1.0  0.11354  0.22946  0.86914  1.0000
  C   C714      1.0  0.10644  0.21866  0.86489  1.0000
  C   C715      1.0  0.10083  0.22311  0.84999  1.0000
  H   H847      1.0  0.11019  0.26127  0.83540  1.0000
  H   H848      1.0  0.12042  0.25317  0.86150  1.0000
  H   H849      1.0  0.10530  0.20678  0.87320  1.0000
  H   H850      1.0  0.09549  0.21466  0.84683  1.0000
  C   C716      1.0  0.41550  0.25709  0.73581  1.0000
  C   C717      1.0  0.40986  0.25970  0.72132  1.0000
  C   C718      1.0  0.39827  0.25108  0.72101  1.0000
  C   C719      1.0  0.39223  0.23986  0.73516  1.0000
  C   C720      1.0  0.39763  0.23741  0.74977  1.0000
  C   C721      1.0  0.40936  0.24595  0.75005  1.0000
  H   H851      1.0  0.41491  0.26784  0.71013  1.0000
  H   H852      1.0  0.39421  0.25290  0.70969  1.0000
  H   H853      1.0  0.39312  0.22863  0.76071  1.0000
  H   H854      1.0  0.41371  0.24386  0.76129  1.0000
  C   C722      1.0  0.01387  0.19959  0.73180  1.0000
  H   H855      1.0  0.00028  0.25499  0.77627  1.0000
  H   H856      1.0  0.47167  0.26183  0.63298  1.0000
  H   H857      1.0  0.21977  0.30991  0.70132  1.0000
  C   C723      1.0  0.25755  0.36280  0.75399  1.0000
  C   C724      1.0  0.27271  0.36243  0.74234  1.0000
  H   H858      1.0  0.20066  0.33130  0.71740  1.0000
  H   H859      1.0  0.25336  0.35139  0.76006  1.0000
  H   H860      1.0  0.28011  0.35071  0.73953  1.0000
  H   H861      1.0  0.28108  0.25078  0.81727  1.0000
  H   H862      1.0  0.40087  0.19216  0.68595  1.0000
  C   C725      1.0  0.38982  0.36783  0.69093  1.0000
  C   C726      1.0  0.37944  0.36000  0.70475  1.0000
  S   S234      1.0  0.36363  0.19638  0.54563  1.0000
  H   H863      1.0  0.21861  0.29327  0.71877  1.0000
  H   H864      1.0  0.13941  0.30459  0.66305  1.0000
  H   H865      1.0  0.40313  0.36308  0.68868  1.0000
  H   H866      1.0  0.16399  0.31303  0.61351  1.0000
  H   H867      1.0  0.19764  0.31354  0.73361  1.0000
  C   C727      1.0  0.16163  0.26504  0.57445  1.0000
  C   C728      1.0  0.15402  0.28070  0.57811  1.0000
  C   C729      1.0  0.13965  0.28249  0.59085  1.0000
  C   C730      1.0  0.13298  0.26863  0.59996  1.0000
  C   C731      1.0  0.14050  0.25309  0.59609  1.0000
  C   C732      1.0  0.15480  0.25129  0.58340  1.0000
  H   H868      1.0  0.15927  0.29137  0.57126  1.0000
  H   H869      1.0  0.13383  0.29455  0.59379  1.0000
  H   H870      1.0  0.13510  0.24245  0.60259  1.0000
  H   H871      1.0  0.16044  0.23921  0.58046  1.0000
  C   C733      1.0  0.39443  0.26490  0.65970  1.0000
  C   C734      1.0  0.40508  0.27060  0.64487  1.0000
  C   C735      1.0  0.41417  0.28220  0.64411  1.0000
  C   C736      1.0  0.41307  0.28781  0.65828  1.0000
  C   C737      1.0  0.40264  0.28191  0.67321  1.0000
  C   C738      1.0  0.39318  0.27063  0.67386  1.0000
  H   H872      1.0  0.40616  0.26629  0.63389  1.0000
  H   H873      1.0  0.42213  0.28678  0.63248  1.0000
  H   H874      1.0  0.40156  0.28621  0.68419  1.0000
  H   H875      1.0  0.38481  0.26640  0.68528  1.0000
  C   C739      1.0  0.24568  0.26165  0.53819  1.0000
  C   C740      1.0  0.25280  0.24739  0.54865  1.0000
  H   H876      1.0  0.23268  0.26722  0.54173  1.0000
  H   H877      1.0  0.24531  0.24228  0.56034  1.0000
  C   C741      1.0  0.36443  0.20863  0.55873  1.0000
  C   C742      1.0  0.35137  0.22192  0.56252  1.0000
  C   C743      1.0  0.35271  0.23179  0.57253  1.0000
  C   C744      1.0  0.36681  0.22807  0.57931  1.0000
  C   C745      1.0  0.37966  0.21450  0.57588  1.0000
  C   C746      1.0  0.37858  0.20500  0.56538  1.0000
  H   H878      1.0  0.34050  0.22491  0.55729  1.0000
  H   H879      1.0  0.39225  0.35020  0.64173  1.0000
  H   H880      1.0  0.39059  0.21157  0.58096  1.0000
  C   C747      1.0  0.25338  0.34403  0.71318  1.0000
  H   H881      1.0  0.25249  0.29031  0.80573  1.0000
  C   C748      1.0  0.16404  0.28394  0.64512  1.0000
  S   S235      1.0  0.20192  0.28331  0.51687  1.0000
  C   C749      1.0  0.34625  0.20710  0.62011  1.0000
  C   C750      1.0  0.42446  0.22983  0.69470  1.0000
  C   C751      1.0  0.47897  0.32981  0.71371  1.0000
  H   H882      1.0  0.21580  0.19168  0.92951  1.0000
  H   H883      1.0  0.13991  0.26520  0.63364  1.0000
  H   H884      1.0  0.46552  0.33248  0.71714  1.0000
  H   H885      1.0  0.99837  0.21292  0.90822  1.0000
  N   N46       1.0  0.48779  0.27102  0.72144  1.0000
  H   H886      1.0  0.01365  0.19237  0.77388  1.0000
  H   H887      1.0  0.47004  0.28273  0.74039  1.0000
  S   S236      1.0  0.02464  0.22098  0.82321  1.0000
  N   N47       1.0  0.16711  0.27751  0.81954  1.0000
  C   C752      1.0  0.17360  0.29296  0.81307  1.0000
  C   C753      1.0  0.16314  0.27357  0.80547  1.0000
  C   C754      1.0  0.15134  0.28077  0.83199  1.0000
  C   C755      1.0  0.17944  0.26410  0.82746  1.0000
  C   C756      1.0  0.18451  0.26613  0.84101  1.0000
  C   C757      1.0  0.18661  0.24878  0.82226  1.0000
  C   C758      1.0  0.19577  0.25362  0.84907  1.0000
  C   C759      1.0  0.19801  0.23635  0.83034  1.0000
  C   C760      1.0  0.20255  0.23876  0.84375  1.0000
  H   H888      1.0  0.18583  0.29084  0.80425  1.0000
  H   H889      1.0  0.16499  0.30325  0.80645  1.0000
  H   H890      1.0  0.17541  0.29780  0.82302  1.0000
  H   H891      1.0  0.15420  0.28407  0.79948  1.0000
  H   H892      1.0  0.15737  0.26255  0.80958  1.0000
  H   H893      1.0  0.17445  0.27121  0.79552  1.0000
  H   H894      1.0  0.15287  0.28550  0.84218  1.0000
  H   H895      1.0  0.14153  0.29037  0.82637  1.0000
  H   H896      1.0  0.14647  0.26923  0.83784  1.0000
  H   H897      1.0  0.17957  0.27737  0.84565  1.0000
  H   H898      1.0  0.18357  0.24605  0.81205  1.0000
  H   H899      1.0  0.19898  0.25534  0.85975  1.0000
  H   H900      1.0  0.20326  0.22472  0.82628  1.0000
  H   H901      1.0  0.21115  0.22904  0.85022  1.0000
  C   C761      1.0  0.48817  0.33303  0.72330  1.0000
  C   C762      1.0  0.22520  0.30360  0.71233  1.0000
  C   C763      1.0  0.22608  0.18624  0.67001  1.0000
  H   H902      1.0  0.34964  0.18603  0.70295  1.0000
  H   H903      1.0  0.18713  0.20782  0.68327  1.0000
  Fe  Fe121     1.0  0.33921  0.19580  0.54071  1.0000
  C   C764      1.0  0.23277  0.20867  0.57178  1.0000
  N   N48       1.0  0.21300  0.20155  0.67163  1.0000
  C   C765      1.0  0.21882  0.22117  0.56858  1.0000
  C   C766      1.0  0.20289  0.21922  0.57726  1.0000
  S   S237      1.0  0.17838  0.31761  0.48564  1.0000
  N   N49       1.0  0.14400  0.26936  0.52992  1.0000
  H   H904      1.0  0.02703  0.19460  0.72820  1.0000
  C   C767      1.0  0.20091  0.34665  0.55856  1.0000
  C   C768      1.0  0.23687  0.26214  0.84943  1.0000
  C   C769      1.0  0.21901  0.19539  0.88945  1.0000
  H   H905      1.0  0.47110  0.25460  0.72572  1.0000
  H   H906      1.0  0.37073  0.36505  0.65954  1.0000
  H   H907      1.0  0.24641  0.32544  0.73405  1.0000
  H   H908      1.0  0.16208  0.33774  0.67563  1.0000
  H   H909      1.0  0.45182  0.20746  0.58559  1.0000
  H   H910      1.0  0.22078  0.20459  0.69233  1.0000
  H   H911      1.0  0.22032  0.23243  0.55922  1.0000
  H   H912      1.0  0.19214  0.22887  0.57466  1.0000
  N   N50       1.0  0.13401  0.28317  0.65850  1.0000
  C   C770      1.0  0.11912  0.27950  0.65578  1.0000
  C   C771      1.0  0.13669  0.27334  0.67503  1.0000
  C   C772      1.0  0.13001  0.30111  0.65875  1.0000
  C   C773      1.0  0.14927  0.27915  0.64569  1.0000
  H   H913      1.0  0.11665  0.28616  0.64329  1.0000
  H   H914      1.0  0.12056  0.26597  0.65691  1.0000
  H   H915      1.0  0.10769  0.28326  0.66514  1.0000
  H   H916      1.0  0.12578  0.27656  0.68511  1.0000
  H   H917      1.0  0.14770  0.27533  0.67803  1.0000
  H   H918      1.0  0.13872  0.25984  0.67572  1.0000
  H   H919      1.0  0.11805  0.30465  0.66761  1.0000
  H   H920      1.0  0.16470  0.28990  0.65436  1.0000
  C   C774      1.0  0.24766  0.28312  0.81828  1.0000
  H   H921      1.0  0.22785  0.20229  0.88084  1.0000
  C   C775      1.0  0.17855  0.19232  0.96843  1.0000
  H   H922      1.0  0.31757  0.23597  0.72979  1.0000
  H   H923      1.0  0.41489  0.22408  0.70371  1.0000
  H   H924      1.0  0.46736  0.26532  0.67544  1.0000
  C   C776      1.0  0.30429  0.37229  0.76403  1.0000
  C   C777      1.0  0.47781  0.23645  0.60546  1.0000
  H   H925      1.0  0.34719  0.21393  0.68703  1.0000
  H   H926      1.0  0.26466  0.19417  0.57884  1.0000
  H   H927      1.0  0.31872  0.21121  0.82469  1.0000
  C   C778      1.0  0.15947  0.25620  0.52811  1.0000
  C   C779      1.0  0.21848  0.19338  0.95318  1.0000
  H   H928      1.0  0.32531  0.37772  0.73346  1.0000
  C   C780      1.0  0.22635  0.35713  0.54863  1.0000
  H   H929      1.0  0.23402  0.22780  0.88054  1.0000
  H   H930      1.0  0.30158  0.20929  0.64969  1.0000
  H   H931      1.0  0.16475  0.26036  0.61235  1.0000
  S   S238      1.0  0.19730  0.22526  0.88908  1.0000
  C   C781      1.0  0.17078  0.34565  0.66906  1.0000
  H   H932      1.0  0.16959  0.26061  0.51791  1.0000
  C   C782      1.0  0.46406  0.26772  0.66327  1.0000
  N   N51       1.0  0.22338  0.31493  0.72337  1.0000
  H   H933      1.0  0.00195  0.23727  0.75569  1.0000
  C   C783      1.0  0.22877  0.30436  0.73863  1.0000
  C   C784      1.0  0.03856  0.25117  0.84735  1.0000
  C   C785      1.0  0.23303  0.32798  0.71471  1.0000
  H   H934      1.0  0.10170  0.20198  0.73990  1.0000
  H   H935      1.0  0.01976  0.22235  0.91543  1.0000
  C   C786      1.0  0.35538  0.38043  0.69685  1.0000
  N   N52       1.0  0.04636  0.23724  0.85940  1.0000
  C   C787      1.0  0.23101  0.33762  0.69875  1.0000
  C   C788      1.0  0.18838  0.29851  0.92190  1.0000
  H   H936      1.0  0.47448  0.29658  0.72035  1.0000
  H   H937      1.0  0.23766  0.18919  0.66116  1.0000
  H   H938      1.0  0.24229  0.29850  0.73599  1.0000
  H   H939      1.0  0.22205  0.29407  0.74430  1.0000
  H   H940      1.0  0.02074  0.22531  0.85676  1.0000
  C   C789      1.0  0.19677  0.35350  0.66579  1.0000
  H   H941      1.0  0.09883  0.21365  0.69663  1.0000
  H   H942      1.0  0.16869  0.33034  0.62997  1.0000
  C   C790      1.0  0.11302  0.26787  0.57188  1.0000
  C   C791      1.0  0.24431  0.33179  0.72183  1.0000
  C   C792      1.0  0.48724  0.32352  0.69950  1.0000
  H   H943      1.0  0.03157  0.24703  0.84062  1.0000
  H   H944      1.0  0.06221  0.21291  0.85936  1.0000
  N   N53       1.0  0.09028  0.29809  0.77656  1.0000
  C   C793      1.0  0.08813  0.30853  0.76001  1.0000
  C   C794      1.0  0.07738  0.28800  0.78269  1.0000
  C   C795      1.0  0.08738  0.30947  0.78781  1.0000
  C   C796      1.0  0.10689  0.28682  0.77631  1.0000
  C   C797      1.0  0.11925  0.28554  0.76149  1.0000
  C   C798      1.0  0.11083  0.27613  0.79121  1.0000
  C   C799      1.0  0.13425  0.27379  0.76166  1.0000
  C   C800      1.0  0.12591  0.26448  0.79123  1.0000
  C   C801      1.0  0.13758  0.26328  0.77646  1.0000
  H   H945      1.0  0.09734  0.31663  0.75470  1.0000
  H   H946      1.0  0.08942  0.30079  0.75109  1.0000
  H   H947      1.0  0.07553  0.31684  0.76056  1.0000
  H   H948      1.0  0.08000  0.27841  0.77528  1.0000
  H   H949      1.0  0.06470  0.29569  0.78187  1.0000
  H   H950      1.0  0.07680  0.28122  0.79583  1.0000
  H   H951      1.0  0.08707  0.30273  0.80091  1.0000
  H   H952      1.0  0.09739  0.31661  0.78402  1.0000
  H   H953      1.0  0.07525  0.31856  0.78776  1.0000
  H   H954      1.0  0.11762  0.29329  0.74955  1.0000
  H   H955      1.0  0.10204  0.27634  0.80293  1.0000
  H   H956      1.0  0.14343  0.27284  0.75024  1.0000
  H   H957      1.0  0.12828  0.25603  0.80273  1.0000
  H   H958      1.0  0.14925  0.25417  0.77639  1.0000
  N   N54       1.0  0.37662  0.33820  0.66355  1.0000
  C   C802      1.0  0.38874  0.33578  0.67384  1.0000
  C   C803      1.0  0.38598  0.33951  0.64604  1.0000
  C   C804      1.0  0.36781  0.32430  0.66972  1.0000
  C   C805      1.0  0.36922  0.31265  0.66012  1.0000
  C   C806      1.0  0.35779  0.32182  0.68605  1.0000
  C   C807      1.0  0.36085  0.29958  0.66645  1.0000
  C   C808      1.0  0.34957  0.30864  0.69227  1.0000
  C   C809      1.0  0.35111  0.29755  0.68249  1.0000
  H   H959      1.0  0.38267  0.33583  0.68704  1.0000
  H   H960      1.0  0.39775  0.32367  0.67352  1.0000
  H   H961      1.0  0.37760  0.34136  0.63752  1.0000
  H   H962      1.0  0.39608  0.32824  0.64447  1.0000
  H   H963      1.0  0.37695  0.31310  0.64779  1.0000
  H   H964      1.0  0.35639  0.33000  0.69416  1.0000
  H   H965      1.0  0.36231  0.29068  0.65900  1.0000
  H   H966      1.0  0.34200  0.30697  0.70475  1.0000
  H   H967      1.0  0.34489  0.28722  0.68736  1.0000
  C   C810      1.0  0.13661  0.27258  0.51535  1.0000
  C   C811      1.0  0.42401  0.23437  0.67796  1.0000
  C   C812      1.0  0.36223  0.36631  0.70768  1.0000
  H   H968      1.0  0.20088  0.23283  0.61091  1.0000
  C   C813      1.0  0.18081  0.30226  0.90852  1.0000
  H   H969      1.0  0.08067  0.19218  0.65476  1.0000
  C   C814      1.0  0.48465  0.19858  0.59012  1.0000
  C   C815      1.0  0.25258  0.25902  0.80721  1.0000
  H   H970      1.0  0.24475  0.21100  0.56458  1.0000
  H   H971      1.0  0.21710  0.34552  0.53461  1.0000
  H   H972      1.0  0.25639  0.26684  0.79468  1.0000
  C   C816      1.0  0.14884  0.28480  0.52967  1.0000
  Fe  Fe122     1.0  0.21968  0.29546  0.52147  1.0000
  N   N55       1.0  0.33026  0.21778  0.62676  1.0000
  C   C817      1.0  0.26953  0.23969  0.54399  1.0000
  C   C818      1.0  0.12421  0.27358  0.55748  1.0000
  C   C819      1.0  0.15014  0.27014  0.63373  1.0000
  H   H973      1.0  0.08717  0.21919  0.74688  1.0000
  H   H974      1.0  0.02294  0.23475  0.75687  1.0000
  H   H975      1.0  0.32977  0.20366  0.65188  1.0000
  C   C820      1.0  0.16416  0.33617  0.61867  1.0000
  H   H976      1.0  0.25566  0.21472  0.85926  1.0000
  C   C821      1.0  0.20285  0.20362  0.89554  1.0000
  H   H977      1.0  0.35419  0.36019  0.71825  1.0000
  H   H978      1.0  0.47789  0.22768  0.65942  1.0000
  C   C822      1.0  0.20989  0.23440  0.63137  1.0000
  H   H979      1.0  0.37701  0.23047  0.69843  1.0000
  H   H980      1.0  0.45148  0.21215  0.63076  1.0000
  C   C823      1.0  0.25587  0.23770  0.84088  1.0000
  C   C824      1.0  0.00845  0.21874  0.88197  1.0000
  N   N56       1.0  0.36828  0.20919  0.69809  1.0000
  C   C825      1.0  0.15609  0.33396  0.59476  1.0000
  C   C826      1.0  0.24034  0.34965  0.69010  1.0000
  C   C827      1.0  0.20022  0.21089  0.63042  1.0000
  H   H981      1.0  0.38874  0.19476  0.56242  1.0000
  S   S239      1.0  0.37886  0.22122  0.63466  1.0000
  C   C828      1.0  0.27922  0.24643  0.52892  1.0000
  C   C829      1.0  0.33011  0.23532  0.61807  1.0000
  C   C830      1.0  0.01113  0.23984  0.79676  1.0000
  C   C831      1.0  0.31611  0.19912  0.83080  1.0000
  C   C832      1.0  0.03330  0.23071  0.87300  1.0000
  C   C833      1.0  0.00802  0.21783  0.89850  1.0000
  N   N57       1.0  0.25723  0.30714  0.55086  1.0000
  C   C834      1.0  0.27419  0.31066  0.54521  1.0000
  C   C835      1.0  0.25918  0.28885  0.55392  1.0000
  C   C836      1.0  0.24842  0.31518  0.53711  1.0000
  C   C837      1.0  0.24743  0.31325  0.56599  1.0000
  C   C838      1.0  0.23152  0.30962  0.57376  1.0000
  C   C839      1.0  0.25304  0.32318  0.57323  1.0000
  C   C840      1.0  0.22204  0.31516  0.58808  1.0000
  C   C841      1.0  0.24345  0.32867  0.58755  1.0000
  C   C842      1.0  0.22805  0.32458  0.59503  1.0000
  H   H982      1.0  0.28147  0.30506  0.55507  1.0000
  H   H983      1.0  0.28141  0.30547  0.53412  1.0000
  H   H984      1.0  0.27372  0.32428  0.54145  1.0000
  H   H985      1.0  0.26469  0.28236  0.56493  1.0000
  H   H986      1.0  0.26739  0.28369  0.54313  1.0000
  H   H987      1.0  0.24718  0.28519  0.55600  1.0000
  H   H988      1.0  0.24695  0.32891  0.53424  1.0000
  H   H989      1.0  0.25527  0.31071  0.52554  1.0000
  H   H990      1.0  0.23578  0.31262  0.54008  1.0000
  H   H991      1.0  0.22609  0.30279  0.56859  1.0000
  H   H992      1.0  0.26460  0.32726  0.56790  1.0000
  C   C843      1.0  0.17219  0.20899  0.96906  1.0000
  H   H993      1.0  0.24769  0.33673  0.59252  1.0000
  H   H994      1.0  0.22049  0.32932  0.60583  1.0000
  N   N58       1.0  0.35990  0.29231  0.74710  1.0000
  C   C844      1.0  0.36002  0.27451  0.74895  1.0000
  C   C845      1.0  0.37587  0.29535  0.73575  1.0000
  C   C846      1.0  0.35942  0.29499  0.76353  1.0000
  C   C847      1.0  0.34540  0.30380  0.74087  1.0000
  C   C848      1.0  0.33025  0.29880  0.74320  1.0000
  C   C849      1.0  0.34556  0.32081  0.73341  1.0000
  C   C850      1.0  0.31643  0.30995  0.73787  1.0000
  C   C851      1.0  0.33172  0.33179  0.72792  1.0000
  C   C852      1.0  0.31722  0.32637  0.73012  1.0000
  H   H995      1.0  0.37164  0.26614  0.75231  1.0000
  H   H996      1.0  0.34994  0.27027  0.75921  1.0000
  H   H997      1.0  0.35899  0.27200  0.73727  1.0000
  H   H998      1.0  0.37597  0.29512  0.72283  1.0000
  H   H999      1.0  0.38678  0.28576  0.73943  1.0000
  H   H1000     1.0  0.37855  0.30732  0.73575  1.0000
  H   H1001     1.0  0.34770  0.29259  0.77254  1.0000
  H   H1002     1.0  0.37001  0.28653  0.76885  1.0000
  H   H1003     1.0  0.36003  0.30799  0.76279  1.0000
  H   H1004     1.0  0.32868  0.28636  0.74937  1.0000
  H   H1005     1.0  0.35625  0.32588  0.73186  1.0000
  H   H1006     1.0  0.30497  0.30582  0.73997  1.0000
  H   H1007     1.0  0.33209  0.34468  0.72209  1.0000
  H   H1008     1.0  0.30650  0.33501  0.72598  1.0000
  H   H1009     1.0  0.23070  0.21481  0.67253  1.0000
  C   C853      1.0  0.17975  0.28653  0.48085  1.0000
  H   H1010     1.0  0.18075  0.26257  0.47657  1.0000
  H   H1011     1.0  0.45195  0.27686  0.66360  1.0000
  H   H1012     1.0  0.20194  0.37410  0.64592  1.0000
  H   H1013     1.0  0.16918  0.21802  0.95805  1.0000
  C   C854      1.0  0.22473  0.18501  0.96738  1.0000
  H   H1014     1.0  0.04038  0.21160  0.73483  1.0000
  H   H1015     1.0  0.15553  0.36078  0.65178  1.0000
  H   H1016     1.0  0.07201  0.24439  0.73745  1.0000
  C   C855      1.0  0.00707  0.20907  0.74430  1.0000
  C   C856      1.0  0.37430  0.19189  0.69569  1.0000
  C   C857      1.0  0.99891  0.24522  0.78733  1.0000
  H   H1017     1.0  0.46159  0.28250  0.72366  1.0000
  C   C858      1.0  0.29734  0.20512  0.73577  1.0000
  H   H1018     1.0  0.05873  0.18870  0.79550  1.0000
  C   C859      1.0  0.20078  0.20484  0.58926  1.0000
  Fe  Fe123     1.0  0.32196  0.19233  0.51516  1.0000
  H   H1019     1.0  0.14860  0.19134  0.64573  1.0000
  C   C860      1.0  0.38191  0.21765  0.69609  1.0000
  H   H1020     1.0  0.31806  0.24365  0.62236  1.0000
  H   H1021     1.0  0.43713  0.22976  0.71306  1.0000
  C   C861      1.0  0.13194  0.26386  0.54526  1.0000
  H   H1022     1.0  0.06518  0.23337  0.87328  1.0000
  C   C862      1.0  0.22337  0.36269  0.56333  1.0000
  H   H1023     1.0  0.20173  0.29706  0.91978  1.0000
  S   S240      1.0  0.31409  0.21086  0.68627  1.0000
  C   C863      1.0  0.31286  0.22688  0.72688  1.0000
  H   H1024     1.0  0.13258  0.24040  0.53945  1.0000
  C   C864      1.0  0.35822  0.21900  0.68572  1.0000
  S   S241      1.0  0.18564  0.33810  0.55565  1.0000
  C   C865      1.0  0.32906  0.38059  0.74362  1.0000
  C   C866      1.0  0.19824  0.35181  0.57337  1.0000
  H   H1025     1.0  0.10410  0.23781  0.70321  1.0000
  H   H1026     1.0  0.31856  0.22509  0.65020  1.0000
  H   H1027     1.0  0.15832  0.28840  0.51830  1.0000
  H   H1028     1.0  0.17894  0.20068  0.91113  1.0000
  C   C867      1.0  0.27922  0.36349  0.78250  1.0000
  H   H1029     1.0  0.34671  0.19379  0.62633  1.0000
  H   H1030     1.0  0.09987  0.23968  0.72438  1.0000
  H   H1031     1.0  0.14937  0.35612  0.57752  1.0000
  H   H1032     1.0  0.20832  0.35151  0.66957  1.0000
  S   S242      1.0  0.30015  0.21768  0.76033  1.0000
  H   H1033     1.0  0.22619  0.31153  0.74838  1.0000
  H   H1034     1.0  0.25969  0.24613  0.80665  1.0000
  C   C868      1.0  0.31621  0.21271  0.62403  1.0000
  C   C869      1.0  0.31568  0.21212  0.60782  1.0000
  C   C870      1.0  0.30255  0.20872  0.63704  1.0000
  C   C871      1.0  0.30255  0.20738  0.60491  1.0000
  C   C872      1.0  0.28958  0.20381  0.63403  1.0000
  C   C873      1.0  0.28958  0.20314  0.61802  1.0000
  H   H1035     1.0  0.18834  0.20330  0.59598  1.0000
  C   C874      1.0  0.20347  0.20285  0.64606  1.0000
  C   C875      1.0  0.46358  0.22960  0.61128  1.0000
  C   C876      1.0  0.24934  0.25511  0.83690  1.0000
  H   H1036     1.0  0.29612  0.19410  0.71679  1.0000
  H   H1037     1.0  0.18960  0.28427  0.63298  1.0000
  H   H1038     1.0  0.35708  0.21061  0.62190  1.0000
  H   H1039     1.0  0.33212  0.23706  0.60443  1.0000
  H   H1040     1.0  0.34851  0.20816  0.60654  1.0000
  H   H1041     1.0  0.32534  0.21552  0.59720  1.0000
  H   H1042     1.0  0.36572  0.21905  0.67286  1.0000
  H   H1043     1.0  0.99383  0.21092  0.82741  1.0000
  H   H1044     1.0  0.27944  0.20054  0.64422  1.0000
  C   C877      1.0  0.28870  0.37559  0.77524  1.0000
  H   H1045     1.0  0.35466  0.35618  0.65789  1.0000
  H   H1046     1.0  0.24728  0.18939  0.60765  1.0000
  C   C878      1.0  0.21868  0.21151  0.67979  1.0000
  C   C879      1.0  0.21462  0.19236  0.59264  1.0000
  H   H1047     1.0  0.04585  0.20369  0.69894  1.0000
  H   H1048     1.0  0.20095  0.19057  0.65113  1.0000
  C   C880      1.0  0.47291  0.28377  0.72674  1.0000
  C   C881      1.0  0.44928  0.24066  0.68845  1.0000
  H   H1049     1.0  0.99915  0.21140  0.77660  1.0000
  H   H1050     1.0  0.36480  0.20171  0.72466  1.0000
  N   N59       1.0  0.09070  0.22010  0.72065  1.0000
  C   C882      1.0  0.10308  0.23063  0.71628  1.0000
  C   C883      1.0  0.08977  0.21090  0.73812  1.0000
  C   C884      1.0  0.09699  0.20760  0.71007  1.0000
  C   C885      1.0  0.07423  0.23078  0.71867  1.0000
  C   C886      1.0  0.06579  0.22982  0.70698  1.0000
  C   C887      1.0  0.06631  0.24292  0.72835  1.0000
  C   C888      1.0  0.05061  0.24065  0.70489  1.0000
  C   C889      1.0  0.05110  0.25367  0.72624  1.0000
  C   C890      1.0  0.04333  0.25264  0.71441  1.0000
  H   H1051     1.0  0.32161  0.35221  0.75266  1.0000
  H   H1052     1.0  0.23899  0.35648  0.67769  1.0000
  H   H1053     1.0  0.48264  0.32441  0.64434  1.0000
  C   C891      1.0  0.15755  0.18902  0.87205  1.0000
  H   H1054     1.0  0.34066  0.22004  0.64610  1.0000
  H   H1055     1.0  0.07986  0.20364  0.74228  1.0000
  H   H1056     1.0  0.46425  0.19315  0.57251  1.0000
  C   C892      1.0  0.24811  0.37784  0.75806  1.0000
  H   H1057     1.0  0.08843  0.19901  0.71292  1.0000
  H   H1058     1.0  0.07081  0.22099  0.69907  1.0000
  C   C893      1.0  0.23104  0.19376  0.58389  1.0000
  H   H1059     1.0  0.04468  0.23991  0.69554  1.0000
  C   C894      1.0  0.19319  0.36626  0.65231  1.0000
  H   H1060     1.0  0.03172  0.26122  0.71254  1.0000
  N   N60       1.0  0.13519  0.30431  0.92992  1.0000
  C   C895      1.0  0.12632  0.30207  0.94763  1.0000
  C   C896      1.0  0.12805  0.32124  0.92123  1.0000
  C   C897      1.0  0.13173  0.29196  0.92293  1.0000
  C   C898      1.0  0.15342  0.30218  0.92746  1.0000
  C   C899      1.0  0.16155  0.29834  0.94084  1.0000
  C   C900      1.0  0.16361  0.30402  0.91120  1.0000
  H   H1061     1.0  0.27174  0.37543  0.66116  1.0000
  H   H1062     1.0  0.16393  0.36040  0.62057  1.0000
  H   H1063     1.0  0.05116  0.25370  0.87172  1.0000
  H   H1064     1.0  0.12802  0.31124  0.95367  1.0000
  H   H1065     1.0  0.11268  0.30367  0.94909  1.0000
  H   H1066     1.0  0.13068  0.28928  0.95471  1.0000
  H   H1067     1.0  0.11425  0.32354  0.92339  1.0000
  H   H1068     1.0  0.13275  0.32325  0.90755  1.0000
  H   H1069     1.0  0.13117  0.33091  0.92551  1.0000
  H   H1070     1.0  0.13760  0.27915  0.92862  1.0000
  H   H1071     1.0  0.11816  0.29254  0.92520  1.0000
  H   H1072     1.0  0.13653  0.29374  0.90930  1.0000
  H   H1073     1.0  0.15500  0.29638  0.95368  1.0000
  H   H1074     1.0  0.15836  0.30678  0.90040  1.0000
  S   S243      1.0  0.23749  0.37270  0.56622  1.0000
  H   H1075     1.0  0.44954  0.26636  0.64018  1.0000
  S   S244      1.0  0.27800  0.22181  0.55734  1.0000
  H   H1076     1.0  0.99913  0.21449  0.87881  1.0000
  H   H1077     1.0  0.15433  0.28317  0.54049  1.0000
  C   C901      1.0  0.30106  0.19785  0.84230  1.0000
  H   H1078     1.0  0.12488  0.28230  0.51633  1.0000
  S   S245      1.0  0.36775  0.24045  0.59225  1.0000
  H   H1079     1.0  0.14527  0.27694  0.50355  1.0000
  H   H1080     1.0  0.21738  0.23352  0.65313  1.0000
  S   S246      1.0  0.24697  0.28748  0.51108  1.0000
  H   H1081     1.0  0.02972  0.26092  0.85367  1.0000
  H   H1082     1.0  0.39004  0.21079  0.70502  1.0000
  C   C902      1.0  0.20976  0.21045  0.65503  1.0000
  S   S247      1.0  0.41641  0.21875  0.63893  1.0000
  H   H1083     1.0  0.24997  0.28883  0.82739  1.0000
  H   H1084     1.0  0.23398  0.28524  0.81967  1.0000
  S   S248      1.0  0.09205  0.18764  0.77575  1.0000
  H   H1085     1.0  0.23913  0.25923  0.80914  1.0000
  H   H1086     1.0  0.39600  0.34571  0.66939  1.0000
  S   S249      1.0  0.15644  0.30485  0.72148  1.0000
  H   H1087     1.0  0.22196  0.25783  0.87434  1.0000
  H   H1088     1.0  0.12901  0.30900  0.64625  1.0000
  S   S250      1.0  0.20640  0.32153  0.51249  1.0000
  C   C903      1.0  0.21293  0.22655  0.64718  1.0000
  H   H1089     1.0  0.27668  0.26713  0.82824  1.0000
  Fe  Fe124     1.0  0.18762  0.30922  0.50955  1.0000
  C   C904      1.0  0.36456  0.35427  0.66473  1.0000
  H   H1090     1.0  0.48279  0.23824  0.67205  1.0000
  C   C905      1.0  0.15305  0.35126  0.58927  1.0000
  C   C906      1.0  0.20555  0.32290  0.72816  1.0000
  S   S251      1.0  0.44796  0.23592  0.59964  1.0000
  H   H1091     1.0  0.34285  0.24245  0.57486  1.0000
  Fe  Fe125     1.0  0.17699  0.30682  0.69885  1.0000
  H   H1092     1.0  0.26708  0.36646  0.79059  1.0000
  Fe  Fe126     1.0  0.30879  0.18610  0.68829  1.0000
  C   C907      1.0  0.16155  0.32644  0.60945  1.0000
  H   H1093     1.0  0.18513  0.21263  0.86704  1.0000
  H   H1094     1.0  0.21224  0.24673  0.62574  1.0000
  H   H1095     1.0  0.38957  0.21919  0.68323  1.0000
  C   C908      1.0  0.20346  0.22663  0.62304  1.0000
  H   H1096     1.0  0.19507  0.20483  0.62409  1.0000
  S   S252      1.0  0.29757  0.37618  0.72033  1.0000
  C   C909      1.0  0.43620  0.24199  0.66634  1.0000
  C   C910      1.0  0.25039  0.22799  0.85644  1.0000
  C   C911      1.0  0.01497  0.23128  0.75065  1.0000
  H   H1097     1.0  0.15495  0.21480  0.87142  1.0000
  H   H1098     1.0  0.20972  0.31265  0.59348  1.0000
  C   C912      1.0  0.27223  0.26107  0.51870  1.0000
  H   H1099     1.0  0.46076  0.24568  0.63769  1.0000
  H   H1100     1.0  0.06669  0.22817  0.84061  1.0000
  H   H1101     1.0  0.34019  0.23985  0.62021  1.0000
  H   H1102     1.0  0.10751  0.27530  0.58123  1.0000
  H   H1103     1.0  0.20703  0.36393  0.58718  1.0000
  S   S253      1.0  0.34564  0.20435  0.76632  1.0000
  C   C913      1.0  0.11651  0.24264  0.56287  1.0000
  S   S254      1.0  0.32275  0.21424  0.52451  1.0000
  C   C914      1.0  0.30068  0.20338  0.71941  1.0000
  H   H1104     1.0  0.01991  0.20860  0.77868  1.0000
  H   H1105     1.0  0.29217  0.24058  0.52529  1.0000
  C   C915      1.0  0.02111  0.19551  0.67349  1.0000
  C   C916      1.0  0.21509  0.34920  0.54619  1.0000
  H   H1106     1.0  0.27874  0.27179  0.80623  1.0000
  N   N61       1.0  0.01742  0.21300  0.75336  1.0000
  C   C917      1.0  0.27379  0.26359  0.81798  1.0000
  C   C918      1.0  0.22073  0.18523  0.94050  1.0000
  H   H1107     1.0  0.26193  0.34670  0.71883  1.0000
  C   C919      1.0  0.30368  0.21662  0.73958  1.0000
  H   H1108     1.0  0.04804  0.25714  0.83759  1.0000
  H   H1109     1.0  0.18969  0.27010  0.61134  1.0000
  H   H1110     1.0  0.11362  0.23055  0.56515  1.0000
  C   C920      1.0  0.35780  0.20949  0.71502  1.0000
  N   N62       1.0  0.25563  0.26514  0.82044  1.0000
  H   H1111     1.0  0.12680  0.28548  0.55645  1.0000
  C   C921      1.0  0.23825  0.23529  0.86845  1.0000
  H   H1112     1.0  0.32226  0.23385  0.70046  1.0000
  S   S255      1.0  0.22199  0.37069  0.61398  1.0000
  S   S256      1.0  0.31796  0.22632  0.79168  1.0000
  C   C922      1.0  0.17839  0.36890  0.64718  1.0000
  C   C923      1.0  0.44931  0.24528  0.67125  1.0000
  C   C924      1.0  0.12748  0.24834  0.54828  1.0000
  H   H1113     1.0  0.13807  0.29563  0.52974  1.0000
  H   H1114     1.0  0.22223  0.33586  0.69279  1.0000
  H   H1115     1.0  0.20314  0.37840  0.68437  1.0000
  H   H1116     1.0  0.48085  0.27442  0.69827  1.0000
  S   S257      1.0  0.19075  0.32736  0.69091  1.0000
  C   C925      1.0  0.00810  0.20874  0.67724  1.0000
  H   H1117     1.0  0.20346  0.33051  0.73747  1.0000
  H   H1118     1.0  0.35361  0.23221  0.68688  1.0000
  H   H1119     1.0  0.29002  0.19734  0.74548  1.0000
  Fe  Fe127     1.0  0.32172  0.22320  0.76591  1.0000
  C   C926      1.0  0.17845  0.28067  0.63290  1.0000
  C   C927      1.0  0.32970  0.21655  0.64448  1.0000
  C   C928      1.0  0.46110  0.25675  0.64179  1.0000
  H   H1120     1.0  0.29196  0.20900  0.84466  1.0000
  H   H1121     1.0  0.30488  0.33155  0.76575  1.0000
  H   H1122     1.0  0.27985  0.26646  0.50723  1.0000
  H   H1123     1.0  0.26540  0.23147  0.83202  1.0000
  C   C929      1.0  0.27833  0.37713  0.73450  1.0000
  C   C930      1.0  0.25545  0.26870  0.52335  1.0000
  C   C931      1.0  0.05301  0.19472  0.69150  1.0000
  C   C932      1.0  0.17859  0.27251  0.62090  1.0000
  C   C933      1.0  0.16706  0.35869  0.65564  1.0000
  H   H1124     1.0  0.13355  0.26126  0.51409  1.0000
  C   C934      1.0  0.00934  0.22752  0.81126  1.0000
  H   H1125     1.0  0.41406  0.23218  0.67390  1.0000
  H   H1126     1.0  0.19352  0.18761  0.67870  1.0000
  N   N63       1.0  0.46304  0.25237  0.65923  1.0000
  H   H1127     1.0  0.04287  0.20893  0.75551  1.0000
  H   H1128     1.0  0.15762  0.24507  0.52524  1.0000
  H   H1129     1.0  0.35838  0.35518  0.67775  1.0000
  Fe  Fe128     1.0  0.34287  0.20899  0.79152  1.0000
  C   C935      1.0  0.23149  0.25229  0.86494  1.0000
  C   C936      1.0  0.20928  0.35997  0.57570  1.0000
  H   H1130     1.0  0.25872  0.36214  0.69055  1.0000
  H   H1131     1.0  0.18765  0.34939  0.58316  1.0000
  C   C937      1.0  0.05792  0.24349  0.86509  1.0000
  C   C938      1.0  0.31553  0.22566  0.71032  1.0000
  C   C939      1.0  0.05645  0.22384  0.85069  1.0000
  S   S258      1.0  0.41136  0.21355  0.60403  1.0000
  Fe  Fe129     1.0  0.40356  0.20347  0.63135  1.0000
  H   H1132     1.0  0.43498  0.24518  0.65359  1.0000
  H   H1133     1.0  0.23719  0.35933  0.53898  1.0000
  H   H1134     1.0  0.18471  0.29341  0.94846  1.0000
  S   S259      1.0  0.24931  0.37766  0.64076  1.0000
  H   H1135     1.0  0.01052  0.22104  0.67488  1.0000
  H   H1136     1.0  0.48173  0.25113  0.74206  1.0000
  C   C940      1.0  0.22577  0.29108  0.47737  1.0000
  C   C941      1.0  0.19760  0.19679  0.68277  1.0000
  H   H1137     1.0  0.27763  0.33838  0.78475  1.0000
  H   H1138     1.0  0.30236  0.20721  0.59237  1.0000
  H   H1139     1.0  0.45883  0.24276  0.69311  1.0000
  C   C942      1.0  0.30044  0.34387  0.76843  1.0000
  H   H1140     1.0  0.20924  0.22315  0.68158  1.0000
  C   C943      1.0  0.48316  0.25459  0.72834  1.0000
  H   H1141     1.0  0.32786  0.37645  0.77629  1.0000
  C   C944      1.0  0.43703  0.23303  0.69995  1.0000
  C   C945      1.0  0.15545  0.36161  0.59845  1.0000
  H   H1142     1.0  0.33833  0.36973  0.74857  1.0000
  C   C946      1.0  0.00359  0.19610  0.72363  1.0000
  C   C947      1.0  0.19175  0.18647  0.86691  1.0000
  S   S260      1.0  0.29956  0.18607  0.53455  1.0000
  H   H1143     1.0  0.29051  0.18806  0.79481  1.0000
  S   S261      1.0  0.13655  0.18983  0.61823  1.0000
  H   H1144     1.0  0.19921  0.19108  0.69569  1.0000
  H   H1145     1.0  0.14421  0.19013  0.87432  1.0000
  H   H1146     1.0  0.27941  0.19948  0.61574  1.0000
  H   H1147     1.0  0.22471  0.29713  0.48765  1.0000
  C   C948      1.0  0.16126  0.35346  0.61324  1.0000
  H   H1148     1.0  0.31032  0.19332  0.79061  1.0000
  C   C949      1.0  0.26166  0.18309  0.57695  1.0000
  H   H1149     1.0  0.21298  0.29003  0.47797  1.0000
  C   C950      1.0  0.44783  0.18472  0.61378  1.0000
  S   S262      1.0  0.31811  0.19009  0.56186  1.0000
  H   H1150     1.0  0.00901  0.18881  0.71418  1.0000
  H   H1151     1.0  0.20472  0.18636  0.86536  1.0000
  C   C951      1.0  0.15869  0.18482  0.63757  1.0000
  H   H1152     1.0  0.32020  0.18314  0.76581  1.0000
  H   H1153     1.0  0.37301  0.18788  0.65107  1.0000
  H   H1154     1.0  0.26190  0.18488  0.56355  1.0000
  C   C952      1.0  0.39132  0.18511  0.68934  1.0000
  H   H1155     1.0  0.31592  0.18891  0.89446  1.0000
  H   H1156     1.0  0.44336  0.19172  0.58316  1.0000
  C   C953      1.0  0.45500  0.19427  0.58435  1.0000
  H   H1157     1.0  0.48944  0.24375  0.65005  1.0000
  H   H1158     1.0  0.17570  0.37999  0.59860  1.0000
  C   C954      1.0  0.32788  0.18479  0.82756  1.0000
  C   C955      1.0  0.47667  0.18587  0.60099  1.0000
  C   C956      1.0  0.31759  0.18460  0.47717  1.0000
  H   H1159     1.0  0.17684  0.38121  0.57726  1.0000
  N   N64       1.0  0.15258  0.37996  0.59296  1.0000
  H   H1160     1.0  0.22457  0.37587  0.72848  1.0000
  C   C957      1.0  0.48957  0.21851  0.62863  1.0000
  S   S263      1.0  0.34616  0.18623  0.81216  1.0000
  N   N65       1.0  0.46129  0.18278  0.59883  1.0000
  C   C958      1.0  0.38297  0.38213  0.68021  1.0000
  H   H1161     1.0  0.15335  0.38210  0.56713  1.0000
  Fe  Fe130     1.0  0.19934  0.54010  0.27393  1.0000
  S   S264      1.0  0.18239  0.53055  0.29774  1.0000
  S   S265      1.0  0.19340  0.55679  0.25022  1.0000
  Fe  Fe131     1.0  0.23049  0.52500  0.28724  1.0000
  S   S266      1.0  0.21647  0.51402  0.31227  1.0000
  S   S267      1.0  0.25842  0.52064  0.27956  1.0000
  Fe  Fe132     1.0  0.20205  0.50670  0.29808  1.0000
  S   S268      1.0  0.19925  0.47982  0.30590  1.0000
  Fe  Fe133     1.0  0.19819  0.53865  0.30991  1.0000
  S   S269      1.0  0.18616  0.55306  0.33040  1.0000
  S   S270      1.0  0.21765  0.51584  0.27325  1.0000
  S   S271      1.0  0.21336  0.55009  0.28602  1.0000
  C   C959      1.0  0.22041  0.42227  0.25627  1.0000
  Fe  Fe134     1.0  0.30211  0.55740  0.19679  1.0000
  S   S272      1.0  0.32543  0.53857  0.20094  1.0000
  S   S273      1.0  0.28323  0.57146  0.21472  1.0000
  Fe  Fe135     1.0  0.30990  0.55839  0.15997  1.0000
  S   S274      1.0  0.33391  0.53941  0.16083  1.0000
  C   C960      1.0  0.22659  0.38623  0.23127  1.0000
  Fe  Fe136     1.0  0.31905  0.52598  0.18422  1.0000
  S   S275      1.0  0.31902  0.49839  0.19305  1.0000
  Fe  Fe137     1.0  0.33811  0.55356  0.17736  1.0000
  S   S276      1.0  0.36000  0.56584  0.17097  1.0000
  S   S277      1.0  0.29470  0.54403  0.18196  1.0000
  H   H1162     1.0  0.18520  0.38639  0.36742  1.0000
  H   H1163     1.0  0.22077  0.40732  0.17587  1.0000
  H   H1164     1.0  0.36672  0.43054  0.13562  1.0000
  H   H1165     1.0  0.13133  0.39806  0.21477  1.0000
  H   H1166     1.0  0.10303  0.55729  0.31477  1.0000
  C   C961      1.0  0.35712  0.46105  0.18160  1.0000
  H   H1167     1.0  0.37209  0.41249  0.17932  1.0000
  H   H1168     1.0  0.25602  0.53538  0.23039  1.0000
  S   S278      1.0  0.18797  0.40456  0.25199  1.0000
  H   H1169     1.0  0.28038  0.49561  0.19826  1.0000
  Fe  Fe138     1.0  0.17340  0.41501  0.27416  1.0000
  S   S279      1.0  0.16794  0.44306  0.27093  1.0000
  H   H1170     1.0  0.35502  0.48709  0.17053  1.0000
  H   H1171     1.0  0.10016  0.40714  0.17486  1.0000
  C   C962      1.0  0.25261  0.53281  0.19958  1.0000
  C   C963      1.0  0.48275  0.58039  0.20852  1.0000
  Fe  Fe139     1.0  0.27881  0.40636  0.17497  1.0000
  S   S280      1.0  0.28327  0.42229  0.14928  1.0000
  H   H1172     1.0  0.35658  0.41342  0.14370  1.0000
  H   H1173     1.0  0.48711  0.57180  0.21910  1.0000
  S   S281      1.0  0.32253  0.40769  0.14833  1.0000
  H   H1174     1.0  0.17353  0.42964  0.34696  1.0000
  Fe  Fe140     1.0  0.30311  0.42876  0.15742  1.0000
  S   S282      1.0  0.30850  0.45472  0.14913  1.0000
  Fe  Fe141     1.0  0.30210  0.39966  0.14294  1.0000
  H   H1175     1.0  0.14910  0.39444  0.36365  1.0000
  S   S283      1.0  0.29722  0.41437  0.18366  1.0000
  H   H1176     1.0  0.12386  0.58125  0.27565  1.0000
  N   N66       1.0  0.23051  0.39550  0.15494  1.0000
  C   C964      1.0  0.24527  0.38485  0.16131  1.0000
  H   H1177     1.0  0.21174  0.48734  0.26180  1.0000
  C   C965      1.0  0.26256  0.51730  0.20598  1.0000
  C   C966      1.0  0.22706  0.44899  0.25180  1.0000
  H   H1178     1.0  0.26165  0.38469  0.24335  1.0000
  C   C967      1.0  0.13259  0.56588  0.31205  1.0000
  N   N67       1.0  0.10882  0.39502  0.19759  1.0000
  C   C968      1.0  0.35575  0.47490  0.16860  1.0000
  N   N68       1.0  0.10758  0.58108  0.29978  1.0000
  H   H1179     1.0  0.23518  0.47766  0.27599  1.0000
  C   C969      1.0  0.24074  0.44404  0.25969  1.0000
  H   H1180     1.0  0.46194  0.56980  0.21236  1.0000
  H   H1181     1.0  0.30049  0.57352  0.24193  1.0000
  H   H1182     1.0  0.35288  0.45748  0.13910  1.0000
  C   C970      1.0  0.23835  0.43262  0.23061  1.0000
  C   C971      1.0  0.26225  0.52794  0.17167  1.0000
  C   C972      1.0  0.22468  0.41054  0.16209  1.0000
  H   H1183     1.0  0.15953  0.40150  0.20342  1.0000
  H   H1184     1.0  0.21616  0.56522  0.31210  1.0000
  H   H1185     1.0  0.17206  0.40319  0.17350  1.0000
  C   C973      1.0  0.15218  0.40103  0.19516  1.0000
  H   H1186     1.0  0.35753  0.46258  0.19358  1.0000
  N   N69       1.0  0.26323  0.51148  0.22374  1.0000
  H   H1187     1.0  0.12733  0.39714  0.16558  1.0000
  H   H1188     1.0  0.18079  0.38386  0.32699  1.0000
  H   H1189     1.0  0.34128  0.41989  0.18659  1.0000
  C   C974      1.0  0.14997  0.40099  0.16783  1.0000
  C   C975      1.0  0.16755  0.57298  0.23551  1.0000
  H   H1190     1.0  0.35282  0.48417  0.14348  1.0000
  H   H1191     1.0  0.31987  0.56858  0.21690  1.0000
  H   H1192     1.0  0.10216  0.40779  0.21771  1.0000
  H   H1193     1.0  0.27055  0.39588  0.21304  1.0000
  H   H1194     1.0  0.37249  0.40200  0.16401  1.0000
  H   H1195     1.0  0.24897  0.43194  0.25975  1.0000
  H   H1196     1.0  0.34338  0.57893  0.23122  1.0000
  C   C976      1.0  0.16550  0.41288  0.33688  1.0000
  C   C977      1.0  0.31508  0.48679  0.18093  1.0000
  C   C978      1.0  0.31258  0.47060  0.18824  1.0000
  C   C979      1.0  0.31002  0.46077  0.17883  1.0000
  C   C980      1.0  0.31027  0.46697  0.16192  1.0000
  C   C981      1.0  0.31251  0.48326  0.15470  1.0000
  C   C982      1.0  0.31480  0.49318  0.16416  1.0000
  H   H1197     1.0  0.31278  0.46557  0.20120  1.0000
  H   H1198     1.0  0.30808  0.44836  0.18463  1.0000
  H   H1199     1.0  0.31268  0.48818  0.14164  1.0000
  H   H1200     1.0  0.31671  0.50563  0.15839  1.0000
  C   C983      1.0  0.23727  0.38366  0.24184  1.0000
  H   H1201     1.0  0.14459  0.42798  0.30508  1.0000
  C   C984      1.0  0.29673  0.38499  0.09513  1.0000
  H   H1202     1.0  0.24529  0.49645  0.22887  1.0000
  H   H1203     1.0  0.32997  0.42915  0.17042  1.0000
  C   C985      1.0  0.15925  0.40201  0.17834  1.0000
  H   H1204     1.0  0.21397  0.41915  0.15713  1.0000
  C   C986      1.0  0.10221  0.39563  0.21538  1.0000
  S   S284      1.0  0.30806  0.39026  0.11936  1.0000
  C   C987      1.0  0.35599  0.42620  0.14490  1.0000
  C   C988      1.0  0.36661  0.57163  0.18587  1.0000
  C   C989      1.0  0.36681  0.56155  0.20171  1.0000
  C   C990      1.0  0.37346  0.56589  0.21280  1.0000
  C   C991      1.0  0.14522  0.56542  0.31968  1.0000
  H   H1205     1.0  0.18304  0.57899  0.17234  1.0000
  N   N70       1.0  0.35641  0.42652  0.16198  1.0000
  H   H1206     1.0  0.36243  0.55012  0.20519  1.0000
  H   H1207     1.0  0.37401  0.55782  0.22487  1.0000
  C   C992      1.0  0.20908  0.44450  0.23590  1.0000
  H   H1208     1.0  0.22282  0.39533  0.20638  1.0000
  C   C993      1.0  0.26577  0.53563  0.26257  1.0000
  C   C994      1.0  0.25525  0.55080  0.25742  1.0000
  C   C995      1.0  0.26086  0.56204  0.24300  1.0000
  C   C996      1.0  0.27689  0.55793  0.23344  1.0000
  C   C997      1.0  0.28757  0.54293  0.23870  1.0000
  C   C998      1.0  0.28209  0.53189  0.25338  1.0000
  H   H1209     1.0  0.24275  0.55388  0.26444  1.0000
  H   H1210     1.0  0.44918  0.56314  0.19619  1.0000
  H   H1211     1.0  0.30005  0.53977  0.23150  1.0000
  H   H1212     1.0  0.29033  0.52022  0.25738  1.0000
  C   C999      1.0  0.19117  0.46994  0.29527  1.0000
  C   C1000     1.0  0.18089  0.47897  0.28422  1.0000
  C   C1001     1.0  0.17408  0.47056  0.27665  1.0000
  C   C1002     1.0  0.17755  0.45310  0.27997  1.0000
  C   C1003     1.0  0.18810  0.44409  0.29076  1.0000
  C   C1004     1.0  0.19478  0.45249  0.29843  1.0000
  H   H1213     1.0  0.17795  0.49241  0.28176  1.0000
  H   H1214     1.0  0.16588  0.47763  0.26837  1.0000
  H   H1215     1.0  0.19069  0.43067  0.29362  1.0000
  H   H1216     1.0  0.20268  0.44543  0.30700  1.0000
  C   C1005     1.0  0.17307  0.55981  0.24787  1.0000
  C   C1006     1.0  0.16218  0.54990  0.25841  1.0000
  C   C1007     1.0  0.14565  0.55341  0.25663  1.0000
  C   C1008     1.0  0.13996  0.56716  0.24475  1.0000
  C   C1009     1.0  0.21708  0.38602  0.16114  1.0000
  H   H1217     1.0  0.21453  0.38311  0.23616  1.0000
  H   H1218     1.0  0.16650  0.53952  0.26782  1.0000
  H   H1219     1.0  0.13723  0.54571  0.26468  1.0000
  Fe  Fe142     1.0  0.17021  0.38758  0.25882  1.0000
  H   H1220     1.0  0.23579  0.42477  0.22360  1.0000
  C   C1010     1.0  0.19687  0.56610  0.33425  1.0000
  C   C1011     1.0  0.19069  0.57272  0.34859  1.0000
  C   C1012     1.0  0.25259  0.41421  0.11162  1.0000
  H   H1221     1.0  0.10484  0.57506  0.27797  1.0000
  S   S285      1.0  0.25195  0.40647  0.18684  1.0000
  C   C1013     1.0  0.29385  0.38396  0.11217  1.0000
  H   H1222     1.0  0.17978  0.56931  0.35742  1.0000
  H   H1223     1.0  0.19103  0.40481  0.35407  1.0000
  H   H1224     1.0  0.19740  0.44766  0.24523  1.0000
  H   H1225     1.0  0.24352  0.55943  0.46977  1.0000
  H   H1226     1.0  0.24197  0.44376  0.22149  1.0000
  C   C1014     1.0  0.25330  0.38677  0.23521  1.0000
  S   S286      1.0  0.11886  0.57320  0.24393  1.0000
  H   H1227     1.0  0.17100  0.40600  0.36853  1.0000
  H   H1228     1.0  0.20540  0.39341  0.15717  1.0000
  H   H1229     1.0  0.27322  0.56494  0.15983  1.0000
  C   C1015     1.0  0.35450  0.47322  0.15336  1.0000
  H   H1230     1.0  0.15379  0.55375  0.32323  1.0000
  C   C1016     1.0  0.25227  0.52320  0.23420  1.0000
  C   C1017     1.0  0.14691  0.57989  0.32283  1.0000
  H   H1231     1.0  0.25257  0.57367  0.23900  1.0000
  H   H1232     1.0  0.25554  0.39147  0.15842  1.0000
  C   C1018     1.0  0.22743  0.39636  0.12600  1.0000
  H   H1233     1.0  0.08923  0.39369  0.21984  1.0000
  C   C1019     1.0  0.23508  0.40049  0.13662  1.0000
  H   H1234     1.0  0.19568  0.39400  0.32874  1.0000
  C   C1020     1.0  0.13368  0.39866  0.17413  1.0000
  H   H1235     1.0  0.13177  0.55428  0.30997  1.0000
  H   H1236     1.0  0.10959  0.38559  0.22344  1.0000
  H   H1237     1.0  0.24910  0.41290  0.08820  1.0000
  H   H1238     1.0  0.21080  0.45578  0.22601  1.0000
  H   H1239     1.0  0.28935  0.49920  0.21953  1.0000
  C   C1021     1.0  0.15710  0.41316  0.32465  1.0000
  C   C1022     1.0  0.35458  0.45768  0.15102  1.0000
  H   H1240     1.0  0.22678  0.39735  0.10081  1.0000
  H   H1241     1.0  0.15571  0.40126  0.15482  1.0000
  H   H1242     1.0  0.32920  0.56604  0.24290  1.0000
  C   C1023     1.0  0.16702  0.42850  0.33837  1.0000
  C   C1024     1.0  0.12603  0.39769  0.19120  1.0000
  C   C1025     1.0  0.16035  0.44337  0.32834  1.0000
  H   H1243     1.0  0.28526  0.52078  0.21965  1.0000
  C   C1026     1.0  0.15206  0.44316  0.31659  1.0000
  C   C1027     1.0  0.24773  0.40967  0.12888  1.0000
  H   H1244     1.0  0.38305  0.41890  0.15836  1.0000
  C   C1028     1.0  0.13581  0.39898  0.20157  1.0000
  C   C1029     1.0  0.37167  0.41452  0.16610  1.0000
  H   H1245     1.0  0.20946  0.42529  0.26638  1.0000
  H   H1246     1.0  0.20686  0.43543  0.23004  1.0000
  H   H1247     1.0  0.16206  0.45514  0.32929  1.0000
  H   H1248     1.0  0.09820  0.42066  0.18831  1.0000
  H   H1249     1.0  0.14737  0.45466  0.30848  1.0000
  C   C1030     1.0  0.27226  0.50740  0.19441  1.0000
  H   H1250     1.0  0.26234  0.53211  0.15853  1.0000
  C   C1031     1.0  0.35623  0.44321  0.16396  1.0000
  C   C1032     1.0  0.18585  0.38700  0.33602  1.0000
  H   H1251     1.0  0.15423  0.38388  0.34698  1.0000
  H   H1252     1.0  0.23895  0.52533  0.23379  1.0000
  S   S287      1.0  0.30259  0.57431  0.13643  1.0000
  H   H1253     1.0  0.15582  0.40180  0.32243  1.0000
  H   H1254     1.0  0.21779  0.41334  0.25064  1.0000
  C   C1033     1.0  0.15098  0.57684  0.23417  1.0000
  N   N71       1.0  0.17269  0.39683  0.34701  1.0000
  C   C1034     1.0  0.44776  0.57305  0.18489  1.0000
  H   H1255     1.0  0.08420  0.40686  0.19319  1.0000
  C   C1035     1.0  0.34169  0.42066  0.17338  1.0000
  C   C1036     1.0  0.24495  0.40985  0.10157  1.0000
  C   C1037     1.0  0.23238  0.40102  0.10874  1.0000
  H   H1256     1.0  0.34420  0.43407  0.14137  1.0000
  C   C1038     1.0  0.09739  0.40798  0.18806  1.0000
  H   H1257     1.0  0.45862  0.56991  0.17474  1.0000
  H   H1258     1.0  0.12100  0.56099  0.28714  1.0000
  H   H1259     1.0  0.23460  0.41757  0.15939  1.0000
  H   H1260     1.0  0.25794  0.49091  0.24398  1.0000
  H   H1261     1.0  0.25388  0.45012  0.27456  1.0000
  S   S288      1.0  0.18849  0.39668  0.29151  1.0000
  C   C1039     1.0  0.25832  0.39312  0.21811  1.0000
  C   C1040     1.0  0.18028  0.39868  0.35981  1.0000
  C   C1041     1.0  0.35740  0.44541  0.17936  1.0000
  C   C1042     1.0  0.24718  0.39654  0.20776  1.0000
  H   H1262     1.0  0.25291  0.51837  0.24750  1.0000
  H   H1263     1.0  0.24494  0.54131  0.20733  1.0000
  H   H1264     1.0  0.20594  0.46986  0.24725  1.0000
  C   C1043     1.0  0.09646  0.57051  0.31167  1.0000
  C   C1044     1.0  0.21684  0.46509  0.25252  1.0000
  H   H1265     1.0  0.28142  0.50571  0.23875  1.0000
  H   H1266     1.0  0.23115  0.41534  0.26205  1.0000
  C   C1045     1.0  0.23141  0.39290  0.21434  1.0000
  Fe  Fe143     1.0  0.31541  0.39275  0.17401  1.0000
  C   C1046     1.0  0.28052  0.50918  0.22550  1.0000
  C   C1047     1.0  0.23329  0.46994  0.26886  1.0000
  H   H1267     1.0  0.34154  0.40802  0.17246  1.0000
  N   N72       1.0  0.22369  0.43744  0.24373  1.0000
  C   C1048     1.0  0.24371  0.45437  0.26815  1.0000
  H   H1268     1.0  0.35819  0.43510  0.18991  1.0000
  C   C1049     1.0  0.22006  0.47537  0.26085  1.0000
  H   H1269     1.0  0.26268  0.42070  0.10601  1.0000
  S   S289      1.0  0.15395  0.39995  0.27944  1.0000
  H   H1270     1.0  0.24936  0.42511  0.23572  1.0000
  C   C1050     1.0  0.15052  0.42809  0.31468  1.0000
  C   C1051     1.0  0.25804  0.49534  0.23048  1.0000
  C   C1052     1.0  0.27204  0.51266  0.17755  1.0000
  H   H1271     1.0  0.24494  0.54984  0.17803  1.0000
  C   C1053     1.0  0.25250  0.53794  0.18267  1.0000
  H   H1272     1.0  0.25426  0.41308  0.13611  1.0000
  H   H1273     1.0  0.33404  0.58166  0.20555  1.0000
  H   H1274     1.0  0.27970  0.50493  0.16895  1.0000
  H   H1275     1.0  0.26658  0.48536  0.22435  1.0000
  C   C1054     1.0  0.21115  0.57034  0.32308  1.0000
  H   H1276     1.0  0.17604  0.58049  0.22724  1.0000
  S   S290      1.0  0.29631  0.38325  0.16805  1.0000
  H   H1277     1.0  0.21776  0.38934  0.13064  1.0000
  H   H1278     1.0  0.30715  0.38992  0.08686  1.0000
  C   C1055     1.0  0.26932  0.57572  0.15062  1.0000
  H   H1279     1.0  0.08581  0.57063  0.30654  1.0000
  C   C1056     1.0  0.11464  0.57430  0.28456  1.0000
  H   H1280     1.0  0.43638  0.57221  0.18155  1.0000
  S   S291      1.0  0.31514  0.57320  0.17476  1.0000
  Fe  Fe144     1.0  0.20190  0.38511  0.26964  1.0000
  H   H1281     1.0  0.16828  0.57811  0.27283  1.0000
  C   C1057     1.0  0.12119  0.58096  0.30736  1.0000
  C   C1058     1.0  0.37940  0.58058  0.20834  1.0000
  C   C1059     1.0  0.21904  0.58125  0.32609  1.0000
  C   C1060     1.0  0.15956  0.38723  0.35571  1.0000
  H   H1282     1.0  0.09128  0.57491  0.32349  1.0000
  H   H1283     1.0  0.24312  0.57768  0.16157  1.0000
  H   H1284     1.0  0.21871  0.57127  0.46369  1.0000
  H   H1285     1.0  0.15671  0.57943  0.32879  1.0000
  H   H1286     1.0  0.18745  0.57830  0.27677  1.0000
  C   C1061     1.0  0.46836  0.57936  0.20453  1.0000
  C   C1062     1.0  0.21183  0.58039  0.47100  1.0000
  C   C1063     1.0  0.33033  0.57925  0.23821  1.0000
  C   C1064     1.0  0.32127  0.58172  0.21325  1.0000
  H   H1287     1.0  0.21391  0.38249  0.17494  1.0000
  H   H1288     1.0  0.27275  0.40371  0.73205  1.0000
  C   C1065     1.0  0.27416  0.42396  0.59466  1.0000
  S   S292      1.0  0.20465  0.40495  0.59017  1.0000
  H   H1289     1.0  0.31001  0.53162  0.65705  1.0000
  H   H1290     1.0  0.27440  0.49770  0.57375  1.0000
  S   S293      1.0  0.21059  0.40637  0.62598  1.0000
  S   S294      1.0  0.31347  0.39931  0.67688  1.0000
  H   H1291     1.0  0.28311  0.55060  0.61853  1.0000
  H   H1292     1.0  0.25589  0.57221  0.49154  1.0000
  Fe  Fe145     1.0  0.21848  0.41834  0.59923  1.0000
  S   S295      1.0  0.21695  0.44607  0.59085  1.0000
  H   H1293     1.0  0.32998  0.49044  0.67598  1.0000
  Fe  Fe146     1.0  0.23402  0.38712  0.62113  1.0000
  Fe  Fe147     1.0  0.29587  0.42366  0.67059  1.0000
  S   S296      1.0  0.28244  0.42360  0.69696  1.0000
  S   S297      1.0  0.28119  0.43182  0.65055  1.0000
  Fe  Fe148     1.0  0.30110  0.43755  0.69724  1.0000
  S   S298      1.0  0.29017  0.46067  0.70777  1.0000
  H   H1294     1.0  0.29487  0.47408  0.59634  1.0000
  S   S299      1.0  0.31337  0.43903  0.67034  1.0000
  C   C1066     1.0  0.25459  0.57411  0.75318  1.0000
  H   H1295     1.0  0.20023  0.56497  0.72104  1.0000
  H   H1296     1.0  0.27996  0.49225  0.60095  1.0000
  Fe  Fe149     1.0  0.22443  0.50801  0.63678  1.0000
  S   S300      1.0  0.25195  0.50547  0.63136  1.0000
  S   S301      1.0  0.21606  0.48374  0.64518  1.0000
  Fe  Fe150     1.0  0.21809  0.54531  0.63331  1.0000
  S   S302      1.0  0.24525  0.54572  0.62758  1.0000
  Fe  Fe151     1.0  0.32975  0.41449  0.67930  1.0000
  Fe  Fe152     1.0  0.24780  0.52831  0.61139  1.0000
  Fe  Fe153     1.0  0.24670  0.52292  0.64812  1.0000
  S   S303      1.0  0.26193  0.51507  0.66753  1.0000
  S   S304      1.0  0.22052  0.52954  0.61530  1.0000
  S   S305      1.0  0.21936  0.52389  0.65521  1.0000
  Fe  Fe154     1.0  0.29604  0.55650  0.74188  1.0000
  C   C1067     1.0  0.22723  0.38386  0.71625  1.0000
  S   S306      1.0  0.28162  0.55938  0.76730  1.0000
  Fe  Fe155     1.0  0.31863  0.53515  0.71821  1.0000
  S   S307      1.0  0.32047  0.55718  0.69674  1.0000
  S   S308      1.0  0.33157  0.50920  0.71383  1.0000
  Fe  Fe156     1.0  0.32280  0.57064  0.71489  1.0000
  H   H1297     1.0  0.30982  0.39275  0.77992  1.0000
  Fe  Fe157     1.0  0.29300  0.56457  0.70608  1.0000
  H   H1298     1.0  0.25397  0.43292  0.58194  1.0000
  S   S309      1.0  0.32382  0.54787  0.73557  1.0000
  S   S310      1.0  0.29086  0.54204  0.72659  1.0000
  S   S311      1.0  0.24282  0.39995  0.59480  1.0000
  H   H1299     1.0  0.24611  0.52580  0.73303  1.0000
  C   C1068     1.0  0.30530  0.52882  0.64794  1.0000
  C   C1069     1.0  0.21609  0.38817  0.70578  1.0000
  C   C1070     1.0  0.32981  0.48801  0.64608  1.0000
  H   H1300     1.0  0.31330  0.50807  0.67780  1.0000
  C   C1071     1.0  0.14496  0.38660  0.57822  1.0000
  C   C1072     1.0  0.30703  0.51227  0.64643  1.0000
  H   H1301     1.0  0.22417  0.57413  0.51632  1.0000
  C   C1073     1.0  0.25317  0.48360  0.59984  1.0000
  H   H1302     1.0  0.34207  0.38497  0.69899  1.0000
  C   C1074     1.0  0.24563  0.39955  0.69524  1.0000
  H   H1303     1.0  0.19755  0.39152  0.66569  1.0000
  C   C1075     1.0  0.24196  0.38954  0.71098  1.0000
  H   H1304     1.0  0.25571  0.57399  0.66661  1.0000
  H   H1305     1.0  0.27544  0.54991  0.52795  1.0000
  C   C1076     1.0  0.25364  0.39256  0.75013  1.0000
  H   H1306     1.0  0.28363  0.38755  0.77853  1.0000
  C   C1077     1.0  0.23449  0.40410  0.68473  1.0000
  C   C1078     1.0  0.26843  0.55221  0.53997  1.0000
  C   C1079     1.0  0.25032  0.55781  0.57120  1.0000
  H   H1307     1.0  0.21647  0.55804  0.51304  1.0000
  C   C1080     1.0  0.27179  0.45791  0.59372  1.0000
  C   C1081     1.0  0.25398  0.58174  0.77850  1.0000
  H   H1308     1.0  0.39097  0.55846  0.71386  1.0000
  S   S312      1.0  0.17459  0.38469  0.62989  1.0000
  H   H1309     1.0  0.24418  0.48360  0.59271  1.0000
  C   C1082     1.0  0.25677  0.56714  0.54111  1.0000
  H   H1310     1.0  0.29906  0.48193  0.65883  1.0000
  H   H1311     1.0  0.35185  0.56960  0.73469  1.0000
  S   S313      1.0  0.27544  0.57426  0.68873  1.0000
  C   C1083     1.0  0.26621  0.53176  0.67255  1.0000
  C   C1084     1.0  0.25874  0.54820  0.66638  1.0000
  C   C1085     1.0  0.26192  0.56132  0.67100  1.0000
  C   C1086     1.0  0.27284  0.55802  0.68156  1.0000
  C   C1087     1.0  0.28085  0.54163  0.68713  1.0000
  C   C1088     1.0  0.27720  0.52852  0.68299  1.0000
  H   H1312     1.0  0.25031  0.55079  0.65829  1.0000
  C   C1089     1.0  0.21658  0.58161  0.48517  1.0000
  H   H1313     1.0  0.28960  0.53897  0.69494  1.0000
  H   H1314     1.0  0.28294  0.51588  0.68788  1.0000
  H   H1315     1.0  0.29520  0.55488  0.63966  1.0000
  C   C1090     1.0  0.20482  0.53851  0.69659  1.0000
  C   C1091     1.0  0.27130  0.54028  0.55429  1.0000
  C   C1092     1.0  0.21918  0.39874  0.68981  1.0000
  C   C1093     1.0  0.30203  0.47352  0.70996  1.0000
  C   C1094     1.0  0.29374  0.48910  0.71354  1.0000
  C   C1095     1.0  0.30265  0.50004  0.71484  1.0000
  C   C1096     1.0  0.31995  0.49543  0.71284  1.0000
  C   C1097     1.0  0.32825  0.47968  0.70952  1.0000
  C   C1098     1.0  0.31935  0.46880  0.70792  1.0000
  H   H1316     1.0  0.28036  0.49284  0.71514  1.0000
  H   H1317     1.0  0.29607  0.51204  0.71736  1.0000
  H   H1318     1.0  0.34163  0.47598  0.70799  1.0000
  H   H1319     1.0  0.32588  0.45678  0.70521  1.0000
  C   C1099     1.0  0.26126  0.45301  0.58662  1.0000
  H   H1320     1.0  0.21115  0.56252  0.74217  1.0000
  C   C1100     1.0  0.25432  0.40925  0.63508  1.0000
  C   C1101     1.0  0.26102  0.42127  0.63772  1.0000
  C   C1102     1.0  0.27204  0.41670  0.64840  1.0000
  C   C1103     1.0  0.27575  0.40017  0.65699  1.0000
  C   C1104     1.0  0.28984  0.54003  0.62613  1.0000
  H   H1321     1.0  0.24633  0.41274  0.62635  1.0000
  H   H1322     1.0  0.25795  0.43405  0.63114  1.0000
  H   H1323     1.0  0.16684  0.39901  0.58619  1.0000
  H   H1324     1.0  0.21195  0.42775  0.66711  1.0000
  C   C1105     1.0  0.21670  0.45653  0.60598  1.0000
  C   C1106     1.0  0.21325  0.47397  0.60248  1.0000
  C   C1107     1.0  0.21307  0.48250  0.61439  1.0000
  C   C1108     1.0  0.21634  0.47359  0.62985  1.0000
  C   C1109     1.0  0.21991  0.45619  0.63329  1.0000
  C   C1110     1.0  0.22013  0.44770  0.62139  1.0000
  H   H1325     1.0  0.21055  0.48088  0.59058  1.0000
  H   H1326     1.0  0.21020  0.49595  0.61168  1.0000
  H   H1327     1.0  0.22276  0.44926  0.64510  1.0000
  H   H1328     1.0  0.22308  0.43433  0.62408  1.0000
  H   H1329     1.0  0.31055  0.47541  0.67478  1.0000
  C   C1111     1.0  0.22722  0.56417  0.50931  1.0000
  H   H1330     1.0  0.28579  0.52224  0.61515  1.0000
  C   C1112     1.0  0.29977  0.51030  0.63428  1.0000
  H   H1331     1.0  0.37183  0.57334  0.74884  1.0000
  C   C1113     1.0  0.22113  0.52989  0.69693  1.0000
  H   H1332     1.0  0.25187  0.49691  0.59976  1.0000
  C   C1114     1.0  0.29136  0.52401  0.62427  1.0000
  C   C1115     1.0  0.28362  0.44499  0.60132  1.0000
  N   N73       1.0  0.23218  0.55067  0.72534  1.0000
  C   C1116     1.0  0.28152  0.47872  0.60171  1.0000
  H   H1333     1.0  0.29354  0.40656  0.75843  1.0000
  C   C1117     1.0  0.16862  0.38525  0.58860  1.0000
  H   H1334     1.0  0.25188  0.46202  0.58068  1.0000
  H   H1335     1.0  0.19009  0.42040  0.69372  1.0000
  C   C1118     1.0  0.23835  0.55578  0.48333  1.0000
  C   C1119     1.0  0.22221  0.55204  0.74227  1.0000
  C   C1120     1.0  0.24771  0.57004  0.55675  1.0000
  Fe  Fe158     1.0  0.19922  0.39121  0.61663  1.0000
  H   H1336     1.0  0.23856  0.58151  0.55767  1.0000
  S   S314      1.0  0.26640  0.52733  0.58737  1.0000
  S   S315      1.0  0.31905  0.41438  0.70629  1.0000
  C   C1121     1.0  0.19008  0.40998  0.68833  1.0000
  H   H1337     1.0  0.25731  0.40365  0.69109  1.0000
  N   N74       1.0  0.31592  0.49752  0.65683  1.0000
  H   H1338     1.0  0.24904  0.47703  0.61287  1.0000
  C   C1122     1.0  0.19737  0.55081  0.70569  1.0000
  H   H1339     1.0  0.19811  0.53606  0.68882  1.0000
  C   C1123     1.0  0.23004  0.53344  0.70644  1.0000
  C   C1124     1.0  0.20621  0.55457  0.71512  1.0000
  C   C1125     1.0  0.26222  0.54295  0.56991  1.0000
  H   H1340     1.0  0.37168  0.56888  0.69476  1.0000
  H   H1341     1.0  0.33585  0.39085  0.73774  1.0000
  H   H1342     1.0  0.22712  0.52072  0.68939  1.0000
  H   H1343     1.0  0.26087  0.56708  0.74369  1.0000
  H   H1344     1.0  0.18495  0.55806  0.70480  1.0000
  H   H1345     1.0  0.18091  0.41472  0.68018  1.0000
  C   C1126     1.0  0.28477  0.42830  0.60164  1.0000
  H   H1346     1.0  0.33719  0.47719  0.65355  1.0000
  C   C1127     1.0  0.36575  0.38855  0.68323  1.0000
  C   C1128     1.0  0.21461  0.57568  0.67287  1.0000
  C   C1129     1.0  0.24811  0.53862  0.72732  1.0000
  H   H1347     1.0  0.21783  0.54039  0.74894  1.0000
  C   C1130     1.0  0.26871  0.38822  0.65463  1.0000
  H   H1348     1.0  0.24513  0.57026  0.72127  1.0000
  N   N75       1.0  0.20701  0.40342  0.67908  1.0000
  H   H1349     1.0  0.27864  0.47271  0.61513  1.0000
  H   H1350     1.0  0.40982  0.57475  0.71416  1.0000
  S   S316      1.0  0.35728  0.40659  0.66994  1.0000
  H   H1351     1.0  0.33845  0.49603  0.63792  1.0000
  H   H1352     1.0  0.24277  0.52661  0.70569  1.0000
  S   S317      1.0  0.19864  0.56880  0.63566  1.0000
  H   H1353     1.0  0.23829  0.41164  0.67259  1.0000
  C   C1131     1.0  0.23603  0.56703  0.71629  1.0000
  H   H1354     1.0  0.24322  0.55988  0.58327  1.0000
  C   C1132     1.0  0.21331  0.56933  0.66000  1.0000
  H   H1355     1.0  0.27481  0.41098  0.59534  1.0000
  C   C1133     1.0  0.30431  0.48656  0.66669  1.0000
  C   C1134     1.0  0.29677  0.54242  0.63794  1.0000
  H   H1356     1.0  0.29192  0.44732  0.60743  1.0000
  H   H1357     1.0  0.24630  0.40416  0.75331  1.0000
  H   H1358     1.0  0.21908  0.38338  0.66642  1.0000
  C   C1135     1.0  0.27492  0.48427  0.57506  1.0000
  C   C1136     1.0  0.32312  0.50174  0.66861  1.0000
  H   H1359     1.0  0.30035  0.49813  0.63258  1.0000
  H   H1360     1.0  0.29063  0.58015  0.78241  1.0000
  Fe  Fe159     1.0  0.30164  0.40057  0.70336  1.0000
  H   H1361     1.0  0.14696  0.38536  0.61738  1.0000
  H   H1362     1.0  0.26626  0.48375  0.56776  1.0000
  H   H1363     1.0  0.14262  0.40043  0.57467  1.0000
  N   N76       1.0  0.27048  0.47575  0.59269  1.0000
  H   H1364     1.0  0.33219  0.50980  0.66209  1.0000
  C   C1137     1.0  0.22275  0.54584  0.71600  1.0000
  H   H1365     1.0  0.23794  0.55507  0.51392  1.0000
  H   H1366     1.0  0.28054  0.52889  0.55321  1.0000
  H   H1367     1.0  0.29356  0.41861  0.60789  1.0000
  C   C1138     1.0  0.38052  0.57604  0.69426  1.0000
  H   H1368     1.0  0.20116  0.42034  0.65653  1.0000
  N   N77       1.0  0.24711  0.46556  0.67998  1.0000
  C   C1139     1.0  0.24318  0.45686  0.66925  1.0000
  C   C1140     1.0  0.23600  0.48231  0.67867  1.0000
  C   C1141     1.0  0.26457  0.46749  0.67317  1.0000
  C   C1142     1.0  0.24493  0.45674  0.69762  1.0000
  C   C1143     1.0  0.23838  0.44210  0.70385  1.0000
  C   C1144     1.0  0.24914  0.46295  0.70925  1.0000
  C   C1145     1.0  0.23670  0.43403  0.72059  1.0000
  C   C1146     1.0  0.24750  0.45475  0.72591  1.0000
  C   C1147     1.0  0.24128  0.44033  0.73157  1.0000
  H   H1369     1.0  0.25072  0.44394  0.67013  1.0000
  H   H1370     1.0  0.22974  0.45659  0.67241  1.0000
  H   H1371     1.0  0.24598  0.46316  0.65591  1.0000
  H   H1372     1.0  0.22275  0.48154  0.68401  1.0000
  H   H1373     1.0  0.23684  0.48905  0.66552  1.0000
  H   H1374     1.0  0.23924  0.49023  0.68508  1.0000
  H   H1375     1.0  0.26662  0.47375  0.65980  1.0000
  H   H1376     1.0  0.26822  0.47519  0.67950  1.0000
  H   H1377     1.0  0.27340  0.45521  0.67430  1.0000
  H   H1378     1.0  0.23455  0.43659  0.69606  1.0000
  H   H1379     1.0  0.25405  0.47409  0.70550  1.0000
  H   H1380     1.0  0.23189  0.42276  0.72509  1.0000
  H   H1381     1.0  0.25132  0.45954  0.73438  1.0000
  H   H1382     1.0  0.24001  0.43405  0.74452  1.0000
  H   H1383     1.0  0.22275  0.55910  0.65602  1.0000
  H   H1384     1.0  0.29362  0.49319  0.67492  1.0000
  S   S318      1.0  0.25358  0.58125  0.52246  1.0000
  H   H1385     1.0  0.24152  0.56717  0.70292  1.0000
  H   H1386     1.0  0.25719  0.53854  0.71527  1.0000
  H   H1387     1.0  0.32538  0.48281  0.63802  1.0000
  H   H1388     1.0  0.22268  0.41176  0.65540  1.0000
  H   H1389     1.0  0.28771  0.47851  0.56907  1.0000
  H   H1390     1.0  0.28420  0.39653  0.66529  1.0000
  C   C1148     1.0  0.26204  0.57250  0.76630  1.0000
  C   C1149     1.0  0.26242  0.43630  0.58718  1.0000
  H   H1391     1.0  0.39104  0.38836  0.66969  1.0000
  C   C1150     1.0  0.35526  0.58148  0.73188  1.0000
  C   C1151     1.0  0.25809  0.39272  0.64356  1.0000
  H   H1392     1.0  0.22953  0.55448  0.74991  1.0000
  C   C1152     1.0  0.30407  0.40107  0.74928  1.0000
  H   H1393     1.0  0.22470  0.57722  0.71684  1.0000
  C   C1153     1.0  0.21094  0.41639  0.66394  1.0000
  C   C1154     1.0  0.39138  0.57022  0.70503  1.0000
  S   S319      1.0  0.29523  0.57982  0.72231  1.0000
  C   C1155     1.0  0.14125  0.38784  0.60656  1.0000
  H   H1394     1.0  0.13800  0.40163  0.60259  1.0000
  C   C1156     1.0  0.26864  0.39227  0.73820  1.0000
  H   H1395     1.0  0.31148  0.41081  0.74325  1.0000
  H   H1396     1.0  0.22509  0.57029  0.67877  1.0000
  H   H1397     1.0  0.25438  0.54186  0.73537  1.0000
  H   H1398     1.0  0.32819  0.39755  0.76524  1.0000
  Fe  Fe160     1.0  0.22832  0.38539  0.58803  1.0000
  H   H1399     1.0  0.29883  0.39918  0.73964  1.0000
  N   N78       1.0  0.23139  0.57048  0.49104  1.0000
  H   H1400     1.0  0.25068  0.38591  0.71900  1.0000
  C   C1157     1.0  0.20667  0.38853  0.67372  1.0000
  H   H1401     1.0  0.25968  0.58052  0.78867  1.0000
  C   C1158     1.0  0.32030  0.38813  0.77014  1.0000
  C   C1159     1.0  0.40222  0.57979  0.70504  1.0000
  C   C1160     1.0  0.24458  0.57996  0.48702  1.0000
  C   C1161     1.0  0.19977  0.57618  0.65237  1.0000
  H   H1402     1.0  0.20508  0.38301  0.71026  1.0000
  H   H1403     1.0  0.22874  0.54854  0.48530  1.0000
  H   H1404     1.0  0.18498  0.40034  0.69857  1.0000
  N   N79       1.0  0.31431  0.38521  0.75680  1.0000
  H   H1405     1.0  0.24889  0.54719  0.48865  1.0000
  H   H1406     1.0  0.12949  0.38325  0.61106  1.0000
  H   H1407     1.0  0.13283  0.38303  0.58062  1.0000
  H   H1408     1.0  0.33511  0.64195  0.44856  1.0000
  H   H1409     1.0  0.05160  0.70491  0.22051  1.0000
  C   C1162     1.0  0.06622  0.68040  0.23961  1.0000
  C   C1163     1.0  0.29954  0.72520  0.32813  1.0000
  H   H1410     1.0  0.09052  0.60347  0.30602  1.0000
  C   C1164     1.0  0.18900  0.60431  0.47347  1.0000
  Fe  Fe161     1.0  0.21839  0.61866  0.39849  1.0000
  S   S320      1.0  0.23798  0.61758  0.37481  1.0000
  Fe  Fe162     1.0  0.19220  0.64201  0.38058  1.0000
  S   S321      1.0  0.20964  0.64307  0.35585  1.0000
  S   S322      1.0  0.16613  0.65760  0.38404  1.0000
  Fe  Fe163     1.0  0.21757  0.61545  0.36408  1.0000
  Fe  Fe164     1.0  0.22818  0.64505  0.36862  1.0000
  S   S323      1.0  0.24179  0.66566  0.35669  1.0000
  S   S324      1.0  0.19871  0.61412  0.38837  1.0000
  S   S325      1.0  0.21008  0.64637  0.39277  1.0000
  Fe  Fe165     1.0  0.39039  0.61202  0.21883  1.0000
  S   S326      1.0  0.39746  0.62792  0.19357  1.0000
  Fe  Fe166     1.0  0.38758  0.63959  0.23644  1.0000
  S   S327      1.0  0.39399  0.65755  0.21244  1.0000
  S   S328      1.0  0.38276  0.64793  0.26031  1.0000
  Fe  Fe167     1.0  0.37707  0.64776  0.20374  1.0000
  S   S329      1.0  0.35619  0.66524  0.19265  1.0000
  Fe  Fe168     1.0  0.41379  0.63585  0.20520  1.0000
  S   S330      1.0  0.36896  0.63138  0.22834  1.0000
  S   S331      1.0  0.40830  0.61837  0.22981  1.0000
  Fe  Fe169     1.0  0.44871  0.71201  0.29445  1.0000
  S   S332      1.0  0.43631  0.69126  0.29725  1.0000
  S   S333      1.0  0.47598  0.70217  0.29475  1.0000
  Fe  Fe170     1.0  0.41810  0.73813  0.28642  1.0000
  S   S334      1.0  0.40354  0.71935  0.28844  1.0000
  S   S335      1.0  0.40467  0.76464  0.27959  1.0000
  Fe  Fe171     1.0  0.41375  0.70629  0.31105  1.0000
  S   S336      1.0  0.39858  0.69282  0.33393  1.0000
  Fe  Fe172     1.0  0.42732  0.70622  0.27452  1.0000
  S   S337      1.0  0.43040  0.69528  0.25277  1.0000
  S   S338      1.0  0.42676  0.72604  0.31030  1.0000
  S   S339      1.0  0.44123  0.72601  0.27053  1.0000
  Fe  Fe173     1.0  0.27408  0.73063  0.38798  1.0000
  S   S340      1.0  0.29482  0.71716  0.37091  1.0000
  S   S341      1.0  0.25263  0.74947  0.37887  1.0000
  Fe  Fe174     1.0  0.29091  0.71568  0.41768  1.0000
  S   S342      1.0  0.31339  0.70137  0.40268  1.0000
  S   S343      1.0  0.28406  0.71139  0.44578  1.0000
  Fe  Fe175     1.0  0.31133  0.72457  0.38245  1.0000
  S   S344      1.0  0.33098  0.73736  0.36444  1.0000
  Fe  Fe176     1.0  0.29483  0.69534  0.39249  1.0000
  S   S345      1.0  0.29545  0.66892  0.39276  1.0000
  S   S346      1.0  0.29047  0.73953  0.39840  1.0000
  S   S347      1.0  0.27254  0.70818  0.40854  1.0000
  Fe  Fe177     1.0  0.22144  0.63376  0.13204  1.0000
  S   S348      1.0  0.21159  0.64727  0.15280  1.0000
  Fe  Fe178     1.0  0.22040  0.66573  0.10567  1.0000
  S   S349      1.0  0.21025  0.68162  0.12441  1.0000
  S   S350      1.0  0.22435  0.68206  0.08017  1.0000
  Fe  Fe179     1.0  0.22894  0.66380  0.13796  1.0000
  S   S351      1.0  0.24335  0.67387  0.14948  1.0000
  Fe  Fe180     1.0  0.19382  0.66380  0.13721  1.0000
  S   S352      1.0  0.16667  0.67280  0.14695  1.0000
  S   S353      1.0  0.24062  0.64892  0.11835  1.0000
  S   S354      1.0  0.20216  0.64909  0.11746  1.0000
  C   C1165     1.0  0.28121  0.58253  0.13768  1.0000
  S   S355      1.0  0.11955  0.61425  0.25107  1.0000
  Fe  Fe181     1.0  0.10064  0.63300  0.21253  1.0000
  S   S356      1.0  0.10591  0.64919  0.22613  1.0000
  S   S357      1.0  0.09402  0.64374  0.18773  1.0000
  Fe  Fe182     1.0  0.12964  0.63008  0.22717  1.0000
  S   S358      1.0  0.15390  0.63737  0.22232  1.0000
  Fe  Fe183     1.0  0.09523  0.63199  0.24893  1.0000
  S   S359      1.0  0.08070  0.64053  0.27222  1.0000
  S   S360      1.0  0.12536  0.61521  0.21173  1.0000
  S   S361      1.0  0.08744  0.61742  0.23539  1.0000
  Fe  Fe184     1.0  0.34446  0.70907  0.11057  1.0000
  S   S362      1.0  0.31908  0.70555  0.12493  1.0000
  S   S363      1.0  0.36672  0.68861  0.11507  1.0000
  Fe  Fe185     1.0  0.33108  0.74391  0.09239  1.0000
  S   S364      1.0  0.30450  0.74351  0.10527  1.0000
  H   H1411     1.0  0.14679  0.58725  0.22484  1.0000
  Fe  Fe186     1.0  0.31481  0.73156  0.12806  1.0000
  H   H1412     1.0  0.32982  0.58914  0.13962  1.0000
  Fe  Fe187     1.0  0.31129  0.71764  0.10091  1.0000
  S   S365      1.0  0.29526  0.70724  0.09165  1.0000
  S   S366      1.0  0.34091  0.73414  0.11564  1.0000
  S   S367      1.0  0.33705  0.71891  0.08609  1.0000
  Fe  Fe188     1.0  0.13132  0.69992  0.27296  1.0000
  S   S368      1.0  0.14873  0.67647  0.26710  1.0000
  S   S369      1.0  0.11314  0.71197  0.25652  1.0000
  Fe  Fe189     1.0  0.14612  0.69838  0.30165  1.0000
  S   S370      1.0  0.16467  0.67465  0.29836  1.0000
  S   S371      1.0  0.14375  0.71072  0.32235  1.0000
  Fe  Fe190     1.0  0.16821  0.68666  0.27133  1.0000
  S   S372      1.0  0.19360  0.68296  0.25470  1.0000
  Fe  Fe191     1.0  0.14342  0.66681  0.29453  1.0000
  S   S373      1.0  0.13648  0.64218  0.30611  1.0000
  S   S374      1.0  0.15128  0.71118  0.27473  1.0000
  S   S375      1.0  0.12439  0.68949  0.30017  1.0000
  Fe  Fe192     1.0  0.01039  0.73642  0.13830  1.0000
  S   S376      1.0  0.02890  0.74709  0.11643  1.0000
  C   C1166     1.0  0.38056  0.74200  0.10033  1.0000
  Fe  Fe193     1.0  0.03562  0.72144  0.16007  1.0000
  S   S377      1.0  0.05651  0.73003  0.14023  1.0000
  S   S378      1.0  0.03755  0.70898  0.18632  1.0000
  Fe  Fe194     1.0  0.03800  0.75396  0.13527  1.0000
  C   C1167     1.0  0.37882  0.59084  0.19263  1.0000
  Fe  Fe195     1.0  0.04615  0.72229  0.12302  1.0000
  S   S379      1.0  0.06544  0.70767  0.10549  1.0000
  S   S380      1.0  0.01785  0.74598  0.15639  1.0000
  S   S381      1.0  0.02691  0.71109  0.14354  1.0000
  Fe  Fe196     1.0  0.15683  0.71488  0.03134  1.0000
  S   S382      1.0  0.14321  0.73556  0.04455  1.0000
  S   S383      1.0  0.16532  0.68942  0.04624  1.0000
  Fe  Fe197     1.0  0.15328  0.73573  0.99722  1.0000
  S   S384      1.0  0.13918  0.75816  0.00759  1.0000
  H   H1413     1.0  0.15589  0.74571  0.27855  1.0000
  Fe  Fe198     1.0  0.15799  0.75113  0.02335  1.0000
  H   H1414     1.0  0.25820  0.62514  0.18895  1.0000
  Fe  Fe199     1.0  0.12552  0.74083  0.02790  1.0000
  S   S385      1.0  0.09817  0.75003  0.03760  1.0000
  S   S386      1.0  0.17336  0.72996  0.01149  1.0000
  S   S387      1.0  0.13790  0.71880  0.01619  1.0000
  H   H1415     1.0  0.24468  0.65169  0.45416  1.0000
  N   N80       1.0  0.17243  0.60270  0.26963  1.0000
  H   H1416     1.0  0.20060  0.58820  0.16756  1.0000
  H   H1417     1.0  0.30494  0.60801  0.17260  1.0000
  C   C1168     1.0  0.20471  0.75463  0.04902  1.0000
  C   C1169     1.0  0.19129  0.75555  0.04209  1.0000
  H   H1418     1.0  0.21020  0.74293  0.05623  1.0000
  H   H1419     1.0  0.18644  0.74462  0.04399  1.0000
  C   C1170     1.0  0.30131  0.58686  0.23804  1.0000
  C   C1171     1.0  0.38501  0.72545  0.10835  1.0000
  S   S388      1.0  0.22713  0.76807  0.05591  1.0000
  H   H1420     1.0  0.47175  0.64733  0.24181  1.0000
  H   H1421     1.0  0.13753  0.60624  0.32043  1.0000
  H   H1422     1.0  0.23172  0.63197  0.29229  1.0000
  S   S389      1.0  0.35460  0.76582  0.19807  1.0000
  H   H1423     1.0  0.17349  0.68570  0.38876  1.0000
  H   H1424     1.0  0.36377  0.64611  0.11563  1.0000
  C   C1172     1.0  0.25464  0.73612  0.03884  1.0000
  C   C1173     1.0  0.07385  0.71909  0.08604  1.0000
  C   C1174     1.0  0.06592  0.73539  0.08003  1.0000
  C   C1175     1.0  0.07324  0.74455  0.06482  1.0000
  C   C1176     1.0  0.08878  0.73767  0.05584  1.0000
  C   C1177     1.0  0.09672  0.72134  0.06180  1.0000
  C   C1178     1.0  0.08908  0.71196  0.07671  1.0000
  H   H1425     1.0  0.05405  0.74088  0.08695  1.0000
  H   H1426     1.0  0.06697  0.75710  0.06011  1.0000
  H   H1427     1.0  0.10861  0.71589  0.05477  1.0000
  H   H1428     1.0  0.09498  0.69919  0.08106  1.0000
  C   C1179     1.0  0.31242  0.75385  0.15348  1.0000
  H   H1429     1.0  0.32436  0.62026  0.17850  1.0000
  H   H1430     1.0  0.46783  0.60734  0.23713  1.0000
  C   C1180     1.0  0.47758  0.65630  0.29335  1.0000
  H   H1431     1.0  0.29143  0.59320  0.23088  1.0000
  C   C1181     1.0  0.22163  0.69534  0.24563  1.0000
  C   C1182     1.0  0.20498  0.69731  0.25415  1.0000
  C   C1183     1.0  0.19787  0.71026  0.26261  1.0000
  C   C1184     1.0  0.20739  0.72124  0.26252  1.0000
  H   H1432     1.0  0.22720  0.68529  0.23915  1.0000
  H   H1433     1.0  0.18509  0.71178  0.26933  1.0000
  H   H1434     1.0  0.20176  0.73131  0.26888  1.0000
  H   H1435     1.0  0.44955  0.62195  0.26247  1.0000
  H   H1436     1.0  0.23500  0.76947  0.35403  1.0000
  H   H1437     1.0  0.45181  0.60065  0.16131  1.0000
  Fe  Fe200     1.0  0.22570  0.74833  0.27333  1.0000
  C   C1185     1.0  0.18103  0.60342  0.25199  1.0000
  C   C1186     1.0  0.07799  0.66154  0.18748  1.0000
  C   C1187     1.0  0.06779  0.66546  0.20229  1.0000
  C   C1188     1.0  0.05507  0.67987  0.20186  1.0000
  C   C1189     1.0  0.05284  0.69054  0.18668  1.0000
  C   C1190     1.0  0.06299  0.68655  0.17188  1.0000
  C   C1191     1.0  0.07552  0.67201  0.17228  1.0000
  H   H1438     1.0  0.06948  0.65718  0.21402  1.0000
  H   H1439     1.0  0.04674  0.68257  0.21323  1.0000
  H   H1440     1.0  0.06111  0.69457  0.16011  1.0000
  H   H1441     1.0  0.08333  0.66889  0.16081  1.0000
  C   C1192     1.0  0.09542  0.64265  0.28172  1.0000
  C   C1193     1.0  0.11088  0.64540  0.27206  1.0000
  C   C1194     1.0  0.12335  0.64549  0.27962  1.0000
  C   C1195     1.0  0.12051  0.64260  0.29688  1.0000
  C   C1196     1.0  0.10492  0.64024  0.30659  1.0000
  C   C1197     1.0  0.09231  0.64038  0.29898  1.0000
  H   H1442     1.0  0.11332  0.64744  0.25872  1.0000
  H   H1443     1.0  0.13531  0.64745  0.27208  1.0000
  H   H1444     1.0  0.10260  0.63830  0.31994  1.0000
  H   H1445     1.0  0.08032  0.63832  0.30648  1.0000
  C   C1198     1.0  0.20805  0.68419  0.07058  1.0000
  C   C1199     1.0  0.20256  0.69926  0.06003  1.0000
  C   C1200     1.0  0.18941  0.70101  0.05246  1.0000
  C   C1201     1.0  0.18200  0.68757  0.05519  1.0000
  C   C1202     1.0  0.18757  0.67252  0.06563  1.0000
  C   C1203     1.0  0.20047  0.67087  0.07344  1.0000
  H   H1446     1.0  0.20831  0.70964  0.05785  1.0000
  H   H1447     1.0  0.18508  0.71269  0.04447  1.0000
  H   H1448     1.0  0.18195  0.66207  0.06763  1.0000
  H   H1449     1.0  0.20489  0.65912  0.08127  1.0000
  C   C1204     1.0  0.16255  0.66458  0.16823  1.0000
  C   C1205     1.0  0.17449  0.66221  0.17746  1.0000
  C   C1206     1.0  0.17185  0.65392  0.19418  1.0000
  C   C1207     1.0  0.15723  0.64810  0.20163  1.0000
  C   C1208     1.0  0.14510  0.65099  0.19250  1.0000
  C   C1209     1.0  0.14766  0.65940  0.17588  1.0000
  H   H1450     1.0  0.18569  0.66690  0.17176  1.0000
  H   H1451     1.0  0.18114  0.65195  0.20127  1.0000
  H   H1452     1.0  0.13370  0.64674  0.19811  1.0000
  H   H1453     1.0  0.13833  0.66133  0.16883  1.0000
  C   C1210     1.0  0.25740  0.68371  0.13349  1.0000
  C   C1211     1.0  0.26770  0.69173  0.13710  1.0000
  C   C1212     1.0  0.27921  0.69924  0.12424  1.0000
  C   C1213     1.0  0.28077  0.69827  0.10786  1.0000
  C   C1214     1.0  0.27033  0.69042  0.10429  1.0000
  C   C1215     1.0  0.25844  0.68346  0.11704  1.0000
  H   H1454     1.0  0.26663  0.69233  0.14978  1.0000
  H   H1455     1.0  0.28656  0.70603  0.12703  1.0000
  H   H1456     1.0  0.27132  0.68975  0.09166  1.0000
  H   H1457     1.0  0.25011  0.67794  0.11403  1.0000
  C   C1216     1.0  0.05519  0.76187  0.16183  1.0000
  C   C1217     1.0  0.15815  0.76960  0.26263  1.0000
  H   H1458     1.0  0.30625  0.68253  0.43749  1.0000
  H   H1459     1.0  0.20197  0.60837  0.30575  1.0000
  H   H1460     1.0  0.05025  0.75174  0.16147  1.0000
  H   H1461     1.0  0.16811  0.61074  0.19805  1.0000
  H   H1462     1.0  0.40527  0.69426  0.36400  1.0000
  C   C1218     1.0  0.08514  0.75831  0.24800  1.0000
  C   C1219     1.0  0.09426  0.74235  0.24638  1.0000
  C   C1220     1.0  0.10176  0.73180  0.25912  1.0000
  C   C1221     1.0  0.09996  0.73715  0.27362  1.0000
  C   C1222     1.0  0.18744  0.59072  0.16641  1.0000
  H   H1463     1.0  0.09549  0.73824  0.23520  1.0000
  H   H1464     1.0  0.10559  0.72892  0.28359  1.0000
  C   C1223     1.0  0.24341  0.74398  0.36586  1.0000
  C   C1224     1.0  0.23519  0.75662  0.35476  1.0000
  H   H1465     1.0  0.17949  0.61634  0.24441  1.0000
  C   C1225     1.0  0.19328  0.63138  0.28962  1.0000
  H   H1466     1.0  0.18908  0.59864  0.19440  1.0000
  H   H1467     1.0  0.16777  0.70345  0.39796  1.0000
  C   C1226     1.0  0.20407  0.64049  0.45117  1.0000
  C   C1227     1.0  0.48553  0.60412  0.18591  1.0000
  C   C1228     1.0  0.48049  0.72541  0.30901  1.0000
  N   N81       1.0  0.18919  0.70347  0.37770  1.0000
  C   C1229     1.0  0.26024  0.67626  0.45954  1.0000
  H   H1468     1.0  0.48463  0.74218  0.32141  1.0000
  H   H1469     1.0  0.46716  0.73015  0.31104  1.0000
  C   C1230     1.0  0.18398  0.77077  0.03300  1.0000
  C   C1231     1.0  0.46419  0.70888  0.22098  1.0000
  H   H1470     1.0  0.48001  0.68949  0.26399  1.0000
  C   C1232     1.0  0.37918  0.70495  0.34147  1.0000
  C   C1233     1.0  0.36811  0.69771  0.35509  1.0000
  C   C1234     1.0  0.35302  0.70749  0.36196  1.0000
  C   C1235     1.0  0.34916  0.72459  0.35542  1.0000
  C   C1236     1.0  0.36016  0.73179  0.34171  1.0000
  C   C1237     1.0  0.37506  0.72196  0.33461  1.0000
  H   H1471     1.0  0.37124  0.68454  0.36038  1.0000
  H   H1472     1.0  0.34455  0.70186  0.37251  1.0000
  H   H1473     1.0  0.35719  0.74502  0.33662  1.0000
  H   H1474     1.0  0.38352  0.72763  0.32406  1.0000
  C   C1238     1.0  0.39584  0.66121  0.25842  1.0000
  C   C1239     1.0  0.39316  0.67020  0.27065  1.0000
  C   C1240     1.0  0.40353  0.68100  0.26894  1.0000
  C   C1241     1.0  0.41644  0.68291  0.25489  1.0000
  C   C1242     1.0  0.41906  0.67397  0.24271  1.0000
  C   C1243     1.0  0.40901  0.66290  0.24463  1.0000
  H   H1475     1.0  0.38312  0.66873  0.28145  1.0000
  H   H1476     1.0  0.40158  0.68772  0.27852  1.0000
  H   H1477     1.0  0.42916  0.67527  0.23192  1.0000
  H   H1478     1.0  0.41170  0.65547  0.23555  1.0000
  C   C1244     1.0  0.36016  0.67164  0.17107  1.0000
  C   C1245     1.0  0.34922  0.68544  0.16407  1.0000
  C   C1246     1.0  0.35175  0.69093  0.14689  1.0000
  C   C1247     1.0  0.36491  0.68237  0.13655  1.0000
  C   C1248     1.0  0.37601  0.66858  0.14348  1.0000
  C   C1249     1.0  0.37371  0.66327  0.16082  1.0000
  H   H1479     1.0  0.33887  0.69205  0.17194  1.0000
  H   H1480     1.0  0.34350  0.70191  0.14170  1.0000
  H   H1481     1.0  0.38629  0.66197  0.13550  1.0000
  H   H1482     1.0  0.38223  0.65261  0.16621  1.0000
  C   C1250     1.0  0.25694  0.66601  0.36668  1.0000
  C   C1251     1.0  0.26363  0.65195  0.37763  1.0000
  C   C1252     1.0  0.27566  0.65279  0.38550  1.0000
  C   C1253     1.0  0.28070  0.66775  0.38269  1.0000
  C   C1254     1.0  0.27389  0.68175  0.37181  1.0000
  C   C1255     1.0  0.26228  0.68077  0.36362  1.0000
  H   H1483     1.0  0.25965  0.64044  0.37995  1.0000
  H   H1484     1.0  0.28095  0.64189  0.39385  1.0000
  H   H1485     1.0  0.27778  0.69329  0.36945  1.0000
  H   H1486     1.0  0.25745  0.69149  0.35488  1.0000
  C   C1256     1.0  0.16062  0.67272  0.36674  1.0000
  C   C1257     1.0  0.14651  0.68550  0.36914  1.0000
  C   C1258     1.0  0.14164  0.69747  0.35551  1.0000
  C   C1259     1.0  0.15065  0.69646  0.33939  1.0000
  C   C1260     1.0  0.16497  0.68394  0.33701  1.0000
  C   C1261     1.0  0.17001  0.67218  0.35066  1.0000
  H   H1487     1.0  0.13920  0.68605  0.38154  1.0000
  H   H1488     1.0  0.13059  0.70720  0.35741  1.0000
  H   H1489     1.0  0.17224  0.68340  0.32464  1.0000
  H   H1490     1.0  0.18087  0.66251  0.34859  1.0000
  C   C1262     1.0  0.14744  0.64219  0.35277  1.0000
  C   C1263     1.0  0.15443  0.61000  0.27050  1.0000
  C   C1264     1.0  0.19822  0.59159  0.46534  1.0000
  C   C1265     1.0  0.06244  0.72407  0.24479  1.0000
  C   C1266     1.0  0.13986  0.64047  0.36993  1.0000
  H   H1491     1.0  0.34586  0.60080  0.20980  1.0000
  C   C1267     1.0  0.12555  0.66728  0.34758  1.0000
  H   H1492     1.0  0.41030  0.69247  0.38340  1.0000
  H   H1493     1.0  0.10822  0.67477  0.36899  1.0000
  H   H1494     1.0  0.22833  0.70828  0.45054  1.0000
  H   H1495     1.0  0.42710  0.69756  0.34313  1.0000
  H   H1496     1.0  0.18647  0.62277  0.15266  1.0000
  C   C1268     1.0  0.31164  0.71992  0.44936  1.0000
  Fe  Fe201     1.0  0.19945  0.77712  0.28456  1.0000
  H   H1497     1.0  0.17603  0.59635  0.24616  1.0000
  H   H1498     1.0  0.19846  0.63873  0.29448  1.0000
  C   C1269     1.0  0.38264  0.72106  0.12564  1.0000
  H   H1499     1.0  0.31513  0.72315  0.43596  1.0000
  C   C1270     1.0  0.22692  0.62186  0.46274  1.0000
  H   H1500     1.0  0.12075  0.65090  0.38886  1.0000
  N   N82       1.0  0.24343  0.68356  0.45602  1.0000
  C   C1271     1.0  0.19877  0.58344  0.35175  1.0000
  H   H1501     1.0  0.05302  0.68070  0.24012  1.0000
  H   H1502     1.0  0.29415  0.61839  0.23297  1.0000
  C   C1272     1.0  0.29744  0.65351  0.43753  1.0000
  C   C1273     1.0  0.40301  0.72703  0.35318  1.0000
  C   C1274     1.0  0.33416  0.63567  0.12572  1.0000
  H   H1503     1.0  0.42522  0.75455  0.24972  1.0000
  H   H1504     1.0  0.35543  0.64651  0.09844  1.0000
  H   H1505     1.0  0.09280  0.69417  0.23485  1.0000
  H   H1506     1.0  0.06237  0.67681  0.27164  1.0000
  C   C1275     1.0  0.28594  0.62901  0.46390  1.0000
  H   H1507     1.0  0.46944  0.65166  0.18598  1.0000
  H   H1508     1.0  0.30316  0.77288  0.30730  1.0000
  H   H1509     1.0  0.30150  0.66265  0.42672  1.0000
  C   C1276     1.0  0.24078  0.70192  0.45329  1.0000
  H   H1510     1.0  0.32534  0.76728  0.18055  1.0000
  H   H1511     1.0  0.29255  0.66864  0.16924  1.0000
  C   C1277     1.0  0.37116  0.75000  0.12686  1.0000
  C   C1278     1.0  0.47346  0.70906  0.20486  1.0000
  H   H1512     1.0  0.28159  0.61941  0.47410  1.0000
  H   H1513     1.0  0.23875  0.63102  0.31861  1.0000
  H   H1514     1.0  0.27260  0.65698  0.16307  1.0000
  C   C1279     1.0  0.48178  0.62486  0.22002  1.0000
  N   N83       1.0  0.13937  0.68917  0.10006  1.0000
  C   C1280     1.0  0.15216  0.67439  0.10539  1.0000
  C   C1281     1.0  0.13277  0.68536  0.08757  1.0000
  C   C1282     1.0  0.14753  0.70339  0.09166  1.0000
  C   C1283     1.0  0.12641  0.69329  0.11472  1.0000
  C   C1284     1.0  0.13086  0.69651  0.12808  1.0000
  C   C1285     1.0  0.10923  0.69405  0.11635  1.0000
  C   C1286     1.0  0.11900  0.69976  0.14237  1.0000
  C   C1287     1.0  0.09746  0.69740  0.13066  1.0000
  C   C1288     1.0  0.10233  0.70017  0.14367  1.0000
  H   H1515     1.0  0.15921  0.67674  0.11330  1.0000
  H   H1516     1.0  0.14641  0.66367  0.11259  1.0000
  H   H1517     1.0  0.16166  0.67042  0.09460  1.0000
  H   H1518     1.0  0.12651  0.67469  0.09296  1.0000
  H   H1519     1.0  0.14287  0.68185  0.07694  1.0000
  H   H1520     1.0  0.12396  0.69634  0.08207  1.0000
  H   H1521     1.0  0.15422  0.70607  0.09967  1.0000
  H   H1522     1.0  0.15696  0.70090  0.08023  1.0000
  H   H1523     1.0  0.13829  0.71487  0.08780  1.0000
  H   H1524     1.0  0.14365  0.69620  0.12772  1.0000
  H   H1525     1.0  0.10449  0.69192  0.10689  1.0000
  H   H1526     1.0  0.12284  0.70166  0.15260  1.0000
  H   H1527     1.0  0.08448  0.69758  0.13174  1.0000
  H   H1528     1.0  0.09316  0.70246  0.15483  1.0000
  H   H1529     1.0  0.23963  0.70201  0.42404  1.0000
  C   C1289     1.0  0.44137  0.71680  0.36467  1.0000
  H   H1530     1.0  0.32867  0.58465  0.24912  1.0000
  H   H1531     1.0  0.19437  0.75782  0.37335  1.0000
  H   H1532     1.0  0.44442  0.61612  0.22281  1.0000
  H   H1533     1.0  0.07325  0.68203  0.22647  1.0000
  H   H1534     1.0  0.26759  0.76916  0.20460  1.0000
  H   H1535     1.0  0.12650  0.58960  0.18204  1.0000
  H   H1536     1.0  0.45676  0.69058  0.33090  1.0000
  C   C1290     1.0  0.38611  0.77857  0.25579  1.0000
  N   N84       1.0  0.17692  0.60490  0.17387  1.0000
  C   C1291     1.0  0.20799  0.63180  0.43840  1.0000
  S   S390      1.0  0.04590  0.77769  0.13241  1.0000
  C   C1292     1.0  0.34298  0.60684  0.14044  1.0000
  C   C1293     1.0  0.09513  0.73974  0.10092  1.0000
  S   S391      1.0  0.22289  0.60236  0.34283  1.0000
  N   N85       1.0  0.09204  0.75764  0.10092  1.0000
  C   C1294     1.0  0.24719  0.59690  0.13968  1.0000
  H   H1537     1.0  0.41079  0.73768  0.37552  1.0000
  H   H1538     1.0  0.19417  0.58807  0.36304  1.0000
  H   H1539     1.0  0.38931  0.73107  0.35767  1.0000
  C   C1295     1.0  0.21091  0.76886  0.04666  1.0000
  H   H1540     1.0  0.24158  0.70573  0.46438  1.0000
  H   H1541     1.0  0.40822  0.73835  0.34735  1.0000
  C   C1296     1.0  0.29719  0.71386  0.45714  1.0000
  H   H1542     1.0  0.25059  0.70683  0.44303  1.0000
  C   C1297     1.0  0.17791  0.62968  0.27063  1.0000
  H   H1543     1.0  0.12947  0.74616  0.27189  1.0000
  C   C1298     1.0  0.23981  0.68297  0.41274  1.0000
  C   C1299     1.0  0.18046  0.76998  0.97972  1.0000
  H   H1544     1.0  0.10472  0.60655  0.28610  1.0000
  C   C1300     1.0  0.15978  0.60835  0.17133  1.0000
  C   C1301     1.0  0.25827  0.74369  0.10912  1.0000
  N   N86       1.0  0.31307  0.66022  0.45536  1.0000
  H   H1545     1.0  0.28382  0.64656  0.42378  1.0000
  C   C1302     1.0  0.31757  0.67349  0.44076  1.0000
  C   C1303     1.0  0.29827  0.70883  0.33005  1.0000
  C   C1304     1.0  0.46207  0.59077  0.19104  1.0000
  C   C1305     1.0  0.17952  0.61229  0.27683  1.0000
  C   C1306     1.0  0.12341  0.59551  0.31058  1.0000
  N   N87       1.0  0.28775  0.75603  0.32325  1.0000
  C   C1307     1.0  0.05659  0.74049  0.23699  1.0000
  C   C1308     1.0  0.27382  0.77900  0.26895  1.0000
  C   C1309     1.0  0.28611  0.73885  0.32498  1.0000
  C   C1310     1.0  0.27136  0.73507  0.32384  1.0000
  C   C1311     1.0  0.18473  0.63901  0.27695  1.0000
  H   H1546     1.0  0.19525  0.59085  0.45411  1.0000
  C   C1312     1.0  0.48208  0.63750  0.20568  1.0000
  H   H1547     1.0  0.12928  0.63935  0.15571  1.0000
  H   H1548     1.0  0.27005  0.67984  0.44850  1.0000
  C   C1313     1.0  0.40406  0.70121  0.37358  1.0000
  C   C1314     1.0  0.41339  0.76178  0.24715  1.0000
  C   C1315     1.0  0.12166  0.77131  0.06021  1.0000
  H   H1549     1.0  0.26039  0.74452  0.32171  1.0000
  C   C1316     1.0  0.13532  0.62713  0.16163  1.0000
  H   H1550     1.0  0.32594  0.65241  0.20868  1.0000
  H   H1551     1.0  0.11548  0.60752  0.30742  1.0000
  H   H1552     1.0  0.34688  0.74235  0.15525  1.0000
  H   H1553     1.0  0.41963  0.75854  0.22200  1.0000
  H   H1554     1.0  0.33752  0.65528  0.46032  1.0000
  C   C1317     1.0  0.10574  0.76480  0.08891  1.0000
  C   C1318     1.0  0.45836  0.71254  0.35753  1.0000
  H   H1555     1.0  0.39045  0.70440  0.37896  1.0000
  S   S392      1.0  0.20128  0.74953  0.29166  1.0000
  H   H1556     1.0  0.15816  0.63421  0.15722  1.0000
  C   C1319     1.0  0.13611  0.59492  0.31816  1.0000
  C   C1320     1.0  0.06267  0.76035  0.17489  1.0000
  C   C1321     1.0  0.30479  0.66826  0.46966  1.0000
  H   H1557     1.0  0.34991  0.72103  0.15536  1.0000
  C   C1322     1.0  0.05813  0.68987  0.26505  1.0000
  C   C1323     1.0  0.10864  0.76496  0.07177  1.0000
  H   H1558     1.0  0.20065  0.68154  0.36756  1.0000
  C   C1324     1.0  0.25907  0.60363  0.12672  1.0000
  C   C1325     1.0  0.24751  0.70912  0.04795  1.0000
  C   C1326     1.0  0.29963  0.78178  0.05188  1.0000
  H   H1559     1.0  0.10693  0.73273  0.10483  1.0000
  C   C1327     1.0  0.24217  0.67789  0.44169  1.0000
  H   H1560     1.0  0.19355  0.65095  0.45169  1.0000
  H   H1561     1.0  0.29843  0.64659  0.22419  1.0000
  S   S393      1.0  0.31899  0.75408  0.23492  1.0000
  H   H1562     1.0  0.18709  0.71687  0.35282  1.0000
  H   H1563     1.0  0.24963  0.74755  0.21960  1.0000
  H   H1564     1.0  0.27315  0.73462  0.07595  1.0000
  C   C1328     1.0  0.43546  0.70177  0.34765  1.0000
  H   H1565     1.0  0.46735  0.71683  0.36115  1.0000
  C   C1329     1.0  0.19516  0.61432  0.29598  1.0000
  C   C1330     1.0  0.37580  0.73328  0.13545  1.0000
  H   H1566     1.0  0.31102  0.72707  0.32951  1.0000
  H   H1567     1.0  0.34937  0.62945  0.20143  1.0000
  H   H1568     1.0  0.27440  0.78169  0.31818  1.0000
  H   H1569     1.0  0.06362  0.74897  0.18423  1.0000
  S   S394      1.0  0.33956  0.76535  0.07319  1.0000
  C   C1331     1.0  0.32873  0.64861  0.45883  1.0000
  H   H1570     1.0  0.24839  0.58462  0.47343  1.0000
  N   N88       1.0  0.22098  0.73385  0.10091  1.0000
  C   C1332     1.0  0.21649  0.72242  0.11712  1.0000
  C   C1333     1.0  0.20520  0.74442  0.09651  1.0000
  C   C1334     1.0  0.22933  0.72390  0.08807  1.0000
  C   C1335     1.0  0.23247  0.74344  0.10202  1.0000
  C   C1336     1.0  0.28153  0.63200  0.44874  1.0000
  C   C1337     1.0  0.24723  0.73504  0.10779  1.0000
  H   H1571     1.0  0.13104  0.72640  0.97866  1.0000
  H   H1572     1.0  0.39319  0.72857  0.38513  1.0000
  H   H1573     1.0  0.19801  0.61614  0.16854  1.0000
  H   H1574     1.0  0.20630  0.71658  0.11739  1.0000
  H   H1575     1.0  0.22705  0.71194  0.12001  1.0000
  H   H1576     1.0  0.21222  0.72913  0.12745  1.0000
  H   H1577     1.0  0.19832  0.75228  0.10568  1.0000
  H   H1578     1.0  0.19676  0.73683  0.09600  1.0000
  H   H1579     1.0  0.20743  0.75262  0.08398  1.0000
  H   H1580     1.0  0.24081  0.71488  0.09098  1.0000
  H   H1581     1.0  0.22113  0.71644  0.08677  1.0000
  H   H1582     1.0  0.23294  0.73207  0.07571  1.0000
  N   N89       1.0  0.37215  0.72890  0.15383  1.0000
  H   H1583     1.0  0.25034  0.72166  0.11132  1.0000
  C   C1338     1.0  0.09019  0.75901  0.11824  1.0000
  H   H1584     1.0  0.45260  0.65838  0.29274  1.0000
  S   S395      1.0  0.16653  0.77311  0.02493  1.0000
  C   C1339     1.0  0.17201  0.63666  0.33017  1.0000
  C   C1340     1.0  0.15697  0.61537  0.34564  1.0000
  C   C1341     1.0  0.13952  0.65570  0.34173  1.0000
  H   H1585     1.0  0.08738  0.59773  0.28884  1.0000
  C   C1342     1.0  0.24229  0.65513  0.42941  1.0000
  H   H1586     1.0  0.14838  0.61917  0.33696  1.0000
  H   H1587     1.0  0.16777  0.60578  0.34107  1.0000
  H   H1588     1.0  0.15020  0.60938  0.35790  1.0000
  H   H1589     1.0  0.14396  0.65768  0.32849  1.0000
  H   H1590     1.0  0.12009  0.67780  0.33891  1.0000
  N   N90       1.0  0.13470  0.70020  0.20912  1.0000
  C   C1343     1.0  0.14825  0.69575  0.19500  1.0000
  C   C1344     1.0  0.13799  0.71451  0.21334  1.0000
  C   C1345     1.0  0.13562  0.68604  0.22366  1.0000
  C   C1346     1.0  0.11840  0.70370  0.20460  1.0000
  C   C1347     1.0  0.10692  0.71928  0.20452  1.0000
  C   C1348     1.0  0.11361  0.69132  0.19996  1.0000
  C   C1349     1.0  0.09179  0.72220  0.19987  1.0000
  C   C1350     1.0  0.09851  0.69443  0.19518  1.0000
  C   C1351     1.0  0.08764  0.70988  0.19506  1.0000
  H   H1591     1.0  0.14729  0.68456  0.19162  1.0000
  H   H1592     1.0  0.14793  0.70596  0.18373  1.0000
  H   H1593     1.0  0.16076  0.69290  0.19792  1.0000
  H   H1594     1.0  0.13825  0.72537  0.20267  1.0000
  H   H1595     1.0  0.15016  0.71132  0.21705  1.0000
  H   H1596     1.0  0.12843  0.71850  0.22401  1.0000
  H   H1597     1.0  0.13488  0.67429  0.22103  1.0000
  H   H1598     1.0  0.14754  0.68330  0.22773  1.0000
  H   H1599     1.0  0.12536  0.68872  0.23445  1.0000
  H   H1600     1.0  0.10926  0.72950  0.20794  1.0000
  H   H1601     1.0  0.12155  0.67911  0.19992  1.0000
  H   H1602     1.0  0.08329  0.73420  0.20000  1.0000
  H   H1603     1.0  0.09525  0.68478  0.19152  1.0000
  H   H1604     1.0  0.07593  0.71230  0.19130  1.0000
  N   N91       1.0  0.22540  0.68888  0.31132  1.0000
  C   C1352     1.0  0.21308  0.68859  0.32733  1.0000
  C   C1353     1.0  0.24154  0.69004  0.31366  1.0000
  C   C1354     1.0  0.21950  0.70435  0.29960  1.0000
  C   C1355     1.0  0.22742  0.67348  0.30564  1.0000
  C   C1356     1.0  0.23314  0.65770  0.31548  1.0000
  C   C1357     1.0  0.22336  0.67354  0.29066  1.0000
  C   C1358     1.0  0.23455  0.64294  0.31072  1.0000
  N   N92       1.0  0.27711  0.74202  0.04929  1.0000
  C   C1359     1.0  0.37687  0.74076  0.16058  1.0000
  H   H1605     1.0  0.21731  0.67820  0.33729  1.0000
  H   H1606     1.0  0.21080  0.70022  0.33175  1.0000
  H   H1607     1.0  0.20094  0.68722  0.32615  1.0000
  H   H1608     1.0  0.24666  0.67935  0.32287  1.0000
  H   H1609     1.0  0.24028  0.70137  0.31828  1.0000
  H   H1610     1.0  0.25106  0.69049  0.30181  1.0000
  H   H1611     1.0  0.21835  0.71559  0.30428  1.0000
  H   H1612     1.0  0.22839  0.70561  0.28735  1.0000
  H   H1613     1.0  0.20697  0.70489  0.29777  1.0000
  H   H1614     1.0  0.23646  0.65663  0.32706  1.0000
  H   H1615     1.0  0.21894  0.68489  0.28237  1.0000
  N   N93       1.0  0.41121  0.71627  0.36669  1.0000
  C   C1360     1.0  0.22663  0.73624  0.34607  1.0000
  H   H1616     1.0  0.32529  0.66043  0.09866  1.0000
  H   H1617     1.0  0.33824  0.67268  0.12983  1.0000
  C   C1361     1.0  0.22414  0.71904  0.25430  1.0000
  H   H1618     1.0  0.32687  0.67725  0.10606  1.0000
  C   C1362     1.0  0.29509  0.73389  0.04658  1.0000
  N   N94       1.0  0.16238  0.62990  0.34680  1.0000
  C   C1363     1.0  0.33581  0.65995  0.13403  1.0000
  H   H1619     1.0  0.18411  0.62801  0.32667  1.0000
  H   H1620     1.0  0.23005  0.58449  0.31731  1.0000
  H   H1621     1.0  0.31303  0.63883  0.11445  1.0000
  H   H1622     1.0  0.06802  0.72216  0.25522  1.0000
  N   N95       1.0  0.06757  0.69313  0.24761  1.0000
  H   H1623     1.0  0.30473  0.76735  0.07542  1.0000
  C   C1364     1.0  0.07595  0.76624  0.09607  1.0000
  C   C1365     1.0  0.19443  0.71615  0.38266  1.0000
  C   C1366     1.0  0.20341  0.71137  0.39547  1.0000
  C   C1367     1.0  0.20886  0.72302  0.40012  1.0000
  C   C1368     1.0  0.19653  0.74488  0.37979  1.0000
  C   C1369     1.0  0.20552  0.73972  0.39222  1.0000
  C   C1370     1.0  0.08541  0.69069  0.24762  1.0000
  H   H1624     1.0  0.26187  0.68056  0.46998  1.0000
  H   H1625     1.0  0.16790  0.71945  0.36837  1.0000
  H   H1626     1.0  0.09088  0.67753  0.25297  1.0000
  H   H1627     1.0  0.05968  0.69805  0.27231  1.0000
  S   S396      1.0  0.22284  0.77586  0.26475  1.0000
  H   H1628     1.0  0.20652  0.69852  0.40179  1.0000
  H   H1629     1.0  0.21604  0.71909  0.40963  1.0000
  H   H1630     1.0  0.21032  0.74863  0.39540  1.0000
  N   N96       1.0  0.27641  0.74344  0.21563  1.0000
  C   C1371     1.0  0.26117  0.73843  0.21555  1.0000
  C   C1372     1.0  0.27380  0.74787  0.23185  1.0000
  C   C1373     1.0  0.27833  0.75858  0.20246  1.0000
  C   C1374     1.0  0.29122  0.72995  0.21238  1.0000
  C   C1375     1.0  0.29431  0.72287  0.19840  1.0000
  C   C1376     1.0  0.30326  0.72390  0.22240  1.0000
  C   C1377     1.0  0.30841  0.71043  0.19480  1.0000
  C   C1378     1.0  0.31728  0.71137  0.21874  1.0000
  C   C1379     1.0  0.31983  0.70460  0.20501  1.0000
  H   H1631     1.0  0.26020  0.72623  0.22423  1.0000
  C   C1380     1.0  0.48680  0.63870  0.26817  1.0000
  H   H1632     1.0  0.26077  0.73737  0.20309  1.0000
  H   H1633     1.0  0.27281  0.73684  0.24230  1.0000
  H   H1634     1.0  0.16978  0.76927  0.26559  1.0000
  H   H1635     1.0  0.28399  0.75338  0.23217  1.0000
  H   H1636     1.0  0.27928  0.75655  0.18995  1.0000
  H   H1637     1.0  0.26945  0.73691  0.11362  1.0000
  H   H1638     1.0  0.28982  0.76258  0.20199  1.0000
  H   H1639     1.0  0.28620  0.72736  0.18971  1.0000
  H   H1640     1.0  0.30227  0.72878  0.23305  1.0000
  H   H1641     1.0  0.31058  0.70557  0.18382  1.0000
  H   H1642     1.0  0.32631  0.70699  0.22654  1.0000
  H   H1643     1.0  0.33078  0.69495  0.20221  1.0000
  C   C1381     1.0  0.04765  0.73078  0.21783  1.0000
  H   H1644     1.0  0.47406  0.66350  0.30287  1.0000
  C   C1382     1.0  0.04938  0.74385  0.22343  1.0000
  H   H1645     1.0  0.04195  0.73339  0.20730  1.0000
  H   H1646     1.0  0.05767  0.75072  0.24146  1.0000
  H   H1647     1.0  0.04518  0.75663  0.21725  1.0000
  N   N97       1.0  0.27374  0.62419  0.16466  1.0000
  C   C1383     1.0  0.27210  0.63068  0.14718  1.0000
  C   C1384     1.0  0.27784  0.60574  0.16769  1.0000
  C   C1385     1.0  0.25734  0.62913  0.17569  1.0000
  C   C1386     1.0  0.28636  0.63118  0.16771  1.0000
  C   C1387     1.0  0.30155  0.62122  0.17186  1.0000
  C   C1388     1.0  0.28366  0.64854  0.16656  1.0000
  C   C1389     1.0  0.31291  0.62815  0.17525  1.0000
  C   C1390     1.0  0.29506  0.65536  0.17002  1.0000
  C   C1391     1.0  0.30959  0.64515  0.17452  1.0000
  H   H1648     1.0  0.28404  0.62702  0.13845  1.0000
  H   H1649     1.0  0.26254  0.62582  0.14451  1.0000
  H   H1650     1.0  0.19051  0.59163  0.29515  1.0000
  H   H1651     1.0  0.28934  0.60102  0.15888  1.0000
  H   H1652     1.0  0.26782  0.60091  0.16588  1.0000
  H   H1653     1.0  0.24114  0.60256  0.44948  1.0000
  H   H1654     1.0  0.47776  0.71928  0.25763  1.0000
  H   H1655     1.0  0.18344  0.65225  0.27189  1.0000
  H   H1656     1.0  0.37651  0.70209  0.15803  1.0000
  C   C1392     1.0  0.48784  0.71212  0.30107  1.0000
  H   H1657     1.0  0.08739  0.77223  0.11924  1.0000
  H   H1658     1.0  0.27633  0.75251  0.46530  1.0000
  C   C1393     1.0  0.17651  0.60062  0.19191  1.0000
  H   H1659     1.0  0.31839  0.65046  0.17726  1.0000
  N   N98       1.0  0.45703  0.64218  0.26683  1.0000
  C   C1394     1.0  0.45911  0.65137  0.24928  1.0000
  C   C1395     1.0  0.45928  0.62425  0.26738  1.0000
  C   C1396     1.0  0.43959  0.64804  0.27543  1.0000
  C   C1397     1.0  0.46959  0.64470  0.27425  1.0000
  C   C1398     1.0  0.46532  0.65347  0.28721  1.0000
  H   H1660     1.0  0.26357  0.76767  0.10574  1.0000
  H   H1661     1.0  0.30855  0.69859  0.33283  1.0000
  C   C1399     1.0  0.29080  0.75764  0.33887  1.0000
  H   H1662     1.0  0.46431  0.70645  0.24619  1.0000
  C   C1400     1.0  0.13371  0.59912  0.17649  1.0000
  H   H1663     1.0  0.45018  0.64947  0.24305  1.0000
  H   H1664     1.0  0.45705  0.66499  0.24832  1.0000
  H   H1665     1.0  0.25229  0.64278  0.17302  1.0000
  H   H1666     1.0  0.45865  0.61679  0.28030  1.0000
  H   H1667     1.0  0.47138  0.61915  0.25968  1.0000
  H   H1668     1.0  0.43670  0.66163  0.27486  1.0000
  H   H1669     1.0  0.43044  0.64599  0.26957  1.0000
  H   H1670     1.0  0.43705  0.64144  0.28866  1.0000
  H   H1671     1.0  0.16534  0.63851  0.32017  1.0000
  C   C1401     1.0  0.46387  0.70300  0.34553  1.0000
  C   C1402     1.0  0.32010  0.61382  0.12682  1.0000
  C   C1403     1.0  0.30991  0.77378  0.06322  1.0000
  C   C1404     1.0  0.30245  0.76362  0.24882  1.0000
  H   H1672     1.0  0.46729  0.71080  0.19488  1.0000
  C   C1405     1.0  0.15037  0.75627  0.26994  1.0000
  H   H1673     1.0  0.25179  0.74862  0.03163  1.0000
  S   S397      1.0  0.30342  0.73805  0.15291  1.0000
  H   H1674     1.0  0.20039  0.63545  0.42931  1.0000
  C   C1406     1.0  0.17855  0.69458  0.39225  1.0000
  C   C1407     1.0  0.15191  0.62402  0.16281  1.0000
  H   H1675     1.0  0.14481  0.63035  0.37915  1.0000
  C   C1408     1.0  0.19103  0.73334  0.37501  1.0000
  C   C1409     1.0  0.17960  0.71051  0.36440  1.0000
  H   H1676     1.0  0.37270  0.59400  0.16908  1.0000
  H   H1677     1.0  0.04458  0.69195  0.26565  1.0000
  H   H1678     1.0  0.23913  0.69140  0.40081  1.0000
  C   C1410     1.0  0.32411  0.63977  0.21224  1.0000
  H   H1679     1.0  0.38587  0.70795  0.13100  1.0000
  H   H1680     1.0  0.36800  0.74861  0.27457  1.0000
  H   H1681     1.0  0.35037  0.72710  0.17369  1.0000
  H   H1682     1.0  0.35852  0.74121  0.30456  1.0000
  N   N99       1.0  0.37302  0.72971  0.25168  1.0000
  C   C1411     1.0  0.36289  0.74579  0.24444  1.0000
  C   C1412     1.0  0.39046  0.73139  0.24834  1.0000
  C   C1413     1.0  0.37284  0.71718  0.24277  1.0000
  C   C1414     1.0  0.36664  0.72526  0.26985  1.0000
  C   C1415     1.0  0.36292  0.70947  0.27818  1.0000
  C   C1416     1.0  0.36476  0.73662  0.27991  1.0000
  C   C1417     1.0  0.27273  0.76888  0.31970  1.0000
  H   H1683     1.0  0.36378  0.75637  0.24899  1.0000
  H   H1684     1.0  0.36709  0.74922  0.23071  1.0000
  H   H1685     1.0  0.34950  0.74533  0.24734  1.0000
  H   H1686     1.0  0.39156  0.74089  0.25428  1.0000
  H   H1687     1.0  0.39571  0.73520  0.23482  1.0000
  H   H1688     1.0  0.39861  0.71949  0.25324  1.0000
  H   H1689     1.0  0.36003  0.71520  0.24492  1.0000
  H   H1690     1.0  0.37726  0.72120  0.22912  1.0000
  H   H1691     1.0  0.38132  0.70504  0.24655  1.0000
  H   H1692     1.0  0.36422  0.69989  0.27168  1.0000
  C   C1418     1.0  0.09063  0.75314  0.27532  1.0000
  C   C1419     1.0  0.24333  0.72741  0.36702  1.0000
  H   H1693     1.0  0.24949  0.71761  0.37572  1.0000
  H   H1694     1.0  0.31161  0.66547  0.11773  1.0000
  H   H1695     1.0  0.23985  0.66169  0.40409  1.0000
  C   C1420     1.0  0.23121  0.70613  0.24577  1.0000
  C   C1421     1.0  0.45474  0.62227  0.21809  1.0000
  C   C1422     1.0  0.22714  0.75273  0.34462  1.0000
  H   H1696     1.0  0.09608  0.73769  0.08846  1.0000
  C   C1423     1.0  0.24051  0.66619  0.41444  1.0000
  C   C1424     1.0  0.08328  0.76377  0.26244  1.0000
  H   H1697     1.0  0.22081  0.76259  0.33614  1.0000
  C   C1425     1.0  0.22954  0.76109  0.09743  1.0000
  C   C1426     1.0  0.27605  0.59641  0.12567  1.0000
  H   H1698     1.0  0.18467  0.73817  0.36488  1.0000
  C   C1427     1.0  0.35943  0.73246  0.29715  1.0000
  H   H1699     1.0  0.08912  0.75725  0.28657  1.0000
  C   C1428     1.0  0.23455  0.72362  0.35743  1.0000
  H   H1700     1.0  0.41270  0.71815  0.39073  1.0000
  H   H1701     1.0  0.35586  0.66550  0.10326  1.0000
  H   H1702     1.0  0.18645  0.61753  0.35284  1.0000
  C   C1429     1.0  0.40690  0.72555  0.38011  1.0000
  H   H1703     1.0  0.40468  0.72048  0.34317  1.0000
  S   S398      1.0  0.43971  0.63958  0.19186  1.0000
  C   C1430     1.0  0.46805  0.61731  0.22620  1.0000
  H   H1704     1.0  0.99172  0.73506  0.10917  1.0000
  H   H1705     1.0  0.23555  0.72971  0.03141  1.0000
  H   H1706     1.0  0.32493  0.66832  0.42971  1.0000
  H   H1707     1.0  0.24419  0.70427  0.23950  1.0000
  C   C1431     1.0  0.17390  0.62422  0.35838  1.0000
  C   C1432     1.0  0.11883  0.66557  0.36451  1.0000
  H   H1708     1.0  0.28069  0.75417  0.34966  1.0000
  H   H1709     1.0  0.21816  0.68194  0.46839  1.0000
  Fe  Fe202     1.0  0.23529  0.77402  0.28510  1.0000
  S   S399      1.0  0.23675  0.73165  0.25517  1.0000
  S   S400      1.0  0.21161  0.77767  0.30441  1.0000
  S   S401      1.0  0.22592  0.60607  0.14139  1.0000
  H   H1710     1.0  0.26251  0.76563  0.03924  1.0000
  C   C1433     1.0  0.12590  0.65213  0.37566  1.0000
  H   H1711     1.0  0.16941  0.61542  0.36989  1.0000
  C   C1434     1.0  0.45523  0.63456  0.20346  1.0000
  C   C1435     1.0  0.27809  0.76168  0.27118  1.0000
  H   H1712     1.0  0.35471  0.62629  0.13864  1.0000
  C   C1436     1.0  0.40127  0.76882  0.25944  1.0000
  H   H1713     1.0  0.29806  0.72313  0.05679  1.0000
  H   H1714     1.0  0.23383  0.71093  0.35887  1.0000
  C   C1437     1.0  0.35770  0.70541  0.29546  1.0000
  H   H1715     1.0  0.43952  0.61516  0.17425  1.0000
  C   C1438     1.0  0.28723  0.64425  0.43562  1.0000
  H   H1716     1.0  0.17573  0.63493  0.36204  1.0000
  H   H1717     1.0  0.28519  0.60155  0.11551  1.0000
  C   C1439     1.0  0.05335  0.71431  0.22559  1.0000
  H   H1718     1.0  0.24005  0.70080  0.04781  1.0000
  H   H1719     1.0  0.38197  0.74529  0.08696  1.0000
  H   H1720     1.0  0.31407  0.75179  0.31178  1.0000
  C   C1440     1.0  0.33080  0.60207  0.13607  1.0000
  C   C1441     1.0  0.22124  0.61793  0.43793  1.0000
  C   C1442     1.0  0.06117  0.71043  0.23922  1.0000
  H   H1721     1.0  0.46699  0.61294  0.17183  1.0000
  H   H1722     1.0  0.18547  0.68703  0.40199  1.0000
  C   C1443     1.0  0.24065  0.76965  0.09886  1.0000
  C   C1444     1.0  0.32145  0.72215  0.45899  1.0000
  H   H1723     1.0  0.26168  0.76732  0.32999  1.0000
  H   H1724     1.0  0.35527  0.69317  0.30158  1.0000
  S   S402      1.0  0.22553  0.60574  0.42309  1.0000
  H   H1725     1.0  0.29935  0.72943  0.03479  1.0000
  H   H1726     1.0  0.27850  0.75577  0.02401  1.0000
  H   H1727     1.0  0.30297  0.74252  0.04605  1.0000
  C   C1445     1.0  0.24319  0.66081  0.44284  1.0000
  C   C1446     1.0  0.35597  0.71687  0.30493  1.0000
  H   H1728     1.0  0.35228  0.71353  0.31834  1.0000
  Fe  Fe203     1.0  0.21571  0.74979  0.30974  1.0000
  H   H1729     1.0  0.43801  0.72438  0.37374  1.0000
  C   C1447     1.0  0.32667  0.77468  0.05892  1.0000
  C   C1448     1.0  0.32161  0.63044  0.12175  1.0000
  C   C1449     1.0  0.44188  0.60217  0.17264  1.0000
  C   C1450     1.0  0.21333  0.63539  0.46353  1.0000
  C   C1451     1.0  0.46894  0.64218  0.19732  1.0000
  H   H1730     1.0  0.17589  0.70067  0.36093  1.0000
  C   C1452     1.0  0.26899  0.71428  0.05795  1.0000
  C   C1453     1.0  0.28367  0.70557  0.32881  1.0000
  H   H1731     1.0  0.32648  0.63906  0.47047  1.0000
  H   H1732     1.0  0.19461  0.59797  0.25076  1.0000
  H   H1733     1.0  0.25875  0.71609  0.32516  1.0000
  H   H1734     1.0  0.08737  0.69822  0.25527  1.0000
  C   C1454     1.0  0.32458  0.66439  0.11018  1.0000
  H   H1735     1.0  0.26823  0.64445  0.14407  1.0000
  S   S403      1.0  0.21569  0.73137  0.33412  1.0000
  H   H1736     1.0  0.21887  0.76860  0.09253  1.0000
  H   H1737     1.0  0.38982  0.71585  0.10118  1.0000
  C   C1455     1.0  0.22492  0.65873  0.28593  1.0000
  C   C1456     1.0  0.23052  0.64345  0.29594  1.0000
  H   H1738     1.0  0.34520  0.65273  0.14150  1.0000
  H   H1739     1.0  0.19297  0.76739  0.98253  1.0000
  N   N100      1.0  0.33686  0.65288  0.11975  1.0000
  C   C1457     1.0  0.35368  0.65268  0.10882  1.0000
  H   H1740     1.0  0.36860  0.75337  0.15879  1.0000
  C   C1458     1.0  0.11679  0.77139  0.09372  1.0000
  H   H1741     1.0  0.22168  0.65918  0.27443  1.0000
  H   H1742     1.0  0.11557  0.77192  0.10642  1.0000
  H   H1743     1.0  0.10145  0.75208  0.12320  1.0000
  H   H1744     1.0  0.38990  0.74208  0.15467  1.0000
  C   C1459     1.0  0.26708  0.73082  0.04840  1.0000
  H   H1745     1.0  0.32326  0.66073  0.14235  1.0000
  H   H1746     1.0  0.18768  0.59339  0.15290  1.0000
  H   H1747     1.0  0.08487  0.73390  0.10942  1.0000
  H   H1748     1.0  0.27907  0.75414  0.06739  1.0000
  C   C1460     1.0  0.30208  0.65086  0.45290  1.0000
  C   C1461     1.0  0.34473  0.62335  0.13531  1.0000
  H   H1749     1.0  0.27933  0.59992  0.18065  1.0000
  H   H1750     1.0  0.12355  0.77130  0.04717  1.0000
  H   H1751     1.0  0.07141  0.66756  0.24598  1.0000
  C   C1462     1.0  0.27535  0.75795  0.03680  1.0000
  C   C1463     1.0  0.20408  0.69126  0.37150  1.0000
  H   H1752     1.0  0.21251  0.69749  0.36068  1.0000
  N   N101      1.0  0.31805  0.58896  0.22794  1.0000
  H   H1753     1.0  0.25518  0.61416  0.11725  1.0000
  H   H1754     1.0  0.35136  0.59754  0.14754  1.0000
  H   H1755     1.0  0.27781  0.70953  0.06590  1.0000
  C   C1464     1.0  0.27169  0.74599  0.06595  1.0000
  C   C1465     1.0  0.23080  0.61314  0.45001  1.0000
  H   H1756     1.0  0.21157  0.68456  0.38098  1.0000
  H   H1757     1.0  0.25832  0.75244  0.06836  1.0000
  H   H1758     1.0  0.28268  0.69284  0.33052  1.0000
  C   C1466     1.0  0.18843  0.60481  0.28973  1.0000
  C   C1467     1.0  0.24507  0.72535  0.03866  1.0000
  H   H1759     1.0  0.38341  0.60213  0.18903  1.0000
  H   H1760     1.0  0.07938  0.76630  0.23808  1.0000
  C   C1468     1.0  0.25937  0.70361  0.05765  1.0000
  C   C1469     1.0  0.38100  0.71188  0.16069  1.0000
  C   C1470     1.0  0.29242  0.75398  0.26119  1.0000
  H   H1761     1.0  0.14787  0.61179  0.28323  1.0000
  C   C1471     1.0  0.13548  0.75656  0.26620  1.0000
  C   C1472     1.0  0.42935  0.71150  0.35992  1.0000
  H   H1762     1.0  0.07961  0.75374  0.12682  1.0000
  C   C1473     1.0  0.31926  0.76381  0.13867  1.0000
  C   C1474     1.0  0.25231  0.58286  0.15155  1.0000
  H   H1763     1.0  0.07573  0.76506  0.08361  1.0000
  H   H1764     1.0  0.26208  0.75732  0.23449  1.0000
  H   H1765     1.0  0.17828  0.63013  0.17182  1.0000
  H   H1766     1.0  0.26092  0.69103  0.06511  1.0000
  H   H1767     1.0  0.31083  0.60983  0.12330  1.0000
  S   S404      1.0  0.24027  0.74625  0.29198  1.0000
  C   C1475     1.0  0.47210  0.70653  0.23392  1.0000
  Fe  Fe204     1.0  0.11287  0.60097  0.23570  1.0000
  H   H1768     1.0  0.26981  0.76854  0.30796  1.0000
  H   H1769     1.0  0.24773  0.62351  0.17415  1.0000
  H   H1770     1.0  0.29548  0.74060  0.26275  1.0000
  H   H1771     1.0  0.45077  0.71059  0.22347  1.0000
  H   H1772     1.0  0.17478  0.64868  0.32985  1.0000
  C   C1476     1.0  0.32335  0.76665  0.16888  1.0000
  H   H1773     1.0  0.31236  0.58878  0.20515  1.0000
  Fe  Fe205     1.0  0.33161  0.77349  0.21671  1.0000
  H   H1774     1.0  0.37887  0.70925  0.17446  1.0000
  H   H1775     1.0  0.00061  0.77837  0.21554  1.0000
  H   H1776     1.0  0.33251  0.72704  0.45295  1.0000
  H   H1777     1.0  0.31770  0.76280  0.12695  1.0000
  C   C1477     1.0  0.27024  0.71865  0.32575  1.0000
  C   C1478     1.0  0.45244  0.69767  0.34056  1.0000
  C   C1479     1.0  0.30196  0.75980  0.30941  1.0000
  C   C1480     1.0  0.24035  0.68886  0.42620  1.0000
  H   H1778     1.0  0.32519  0.68085  0.44317  1.0000
  C   C1481     1.0  0.47111  0.60326  0.18183  1.0000
  H   H1779     1.0  0.23419  0.61792  0.47211  1.0000
  C   C1482     1.0  0.18517  0.61917  0.16637  1.0000
  H   H1780     1.0  0.47701  0.69993  0.33985  1.0000
  H   H1781     1.0  0.30957  0.74746  0.17998  1.0000
  H   H1782     1.0  0.99917  0.72604  0.19000  1.0000
  H   H1783     1.0  0.37588  0.73675  0.17423  1.0000
  H   H1784     1.0  0.27370  0.62481  0.44712  1.0000
  H   H1785     1.0  0.30274  0.74955  0.34171  1.0000
  H   H1786     1.0  0.11697  0.76953  0.25236  1.0000
  C   C1483     1.0  0.12624  0.61474  0.16848  1.0000
  H   H1787     1.0  0.30036  0.75806  0.29760  1.0000
  H   H1788     1.0  0.27046  0.75416  0.28064  1.0000
  C   C1484     1.0  0.05422  0.77636  0.14939  1.0000
  H   H1789     1.0  0.24302  0.64205  0.43055  1.0000
  H   H1790     1.0  0.10294  0.77808  0.29133  1.0000
  H   H1791     1.0  0.11325  0.61739  0.16788  1.0000
  H   H1792     1.0  0.14831  0.60200  0.26699  1.0000
  C   C1485     1.0  0.21287  0.58794  0.34036  1.0000
  H   H1793     1.0  0.17080  0.77219  0.99105  1.0000
  C   C1486     1.0  0.06868  0.77353  0.17595  1.0000
  C   C1487     1.0  0.15022  0.59593  0.17794  1.0000
  C   C1488     1.0  0.12837  0.77011  0.25507  1.0000
  H   H1794     1.0  0.39467  0.71013  0.15564  1.0000
  H   H1795     1.0  0.43157  0.60524  0.20430  1.0000
  C   C1489     1.0  0.35406  0.72983  0.15990  1.0000
  H   H1796     1.0  0.28370  0.76575  0.03702  1.0000
  C   C1490     1.0  0.41025  0.76415  0.23140  1.0000
  H   H1797     1.0  0.17144  0.63620  0.26074  1.0000
  C   C1491     1.0  0.31424  0.75549  0.16859  1.0000
  H   H1798     1.0  0.36509  0.75992  0.13342  1.0000
  H   H1799     1.0  0.29139  0.77057  0.33841  1.0000
  H   H1800     1.0  0.42036  0.59270  0.19972  1.0000
  C   C1492     1.0  0.29597  0.63832  0.46602  1.0000
  C   C1493     1.0  0.31974  0.60650  0.22241  1.0000
  C   C1494     1.0  0.30866  0.63644  0.22103  1.0000
  C   C1495     1.0  0.23090  0.67803  0.47093  1.0000
  C   C1496     1.0  0.30640  0.62008  0.22606  1.0000
  N   N102      1.0  0.44641  0.58981  0.18753  1.0000
  C   C1497     1.0  0.33731  0.62680  0.20816  1.0000
  C   C1498     1.0  0.25498  0.76098  0.10469  1.0000
  C   C1499     1.0  0.37363  0.75424  0.10957  1.0000
  C   C1500     1.0  0.09715  0.59792  0.29505  1.0000
  H   H1801     1.0  0.15215  0.62227  0.26180  1.0000
  C   C1501     1.0  0.33519  0.61043  0.21310  1.0000
  H   H1802     1.0  0.06539  0.76107  0.10481  1.0000
  H   H1803     1.0  0.43017  0.60099  0.17023  1.0000
  S   S405      1.0  0.07906  0.77081  0.19181  1.0000
  H   H1804     1.0  0.10090  0.76009  0.06709  1.0000
  C   C1502     1.0  0.43256  0.59289  0.20187  1.0000
  H   H1805     1.0  0.26272  0.66247  0.46315  1.0000
  C   C1503     1.0  0.38287  0.78076  0.24006  1.0000
  C   C1504     1.0  0.32856  0.77480  0.13893  1.0000
  H   H1806     1.0  0.12101  0.78207  0.22430  1.0000
  H   H1807     1.0  0.17935  0.75834  0.97717  1.0000
  S   S406      1.0  0.38763  0.58563  0.22258  1.0000
  H   H1808     1.0  0.25927  0.73185  0.47099  1.0000
  C   C1505     1.0  0.37267  0.58625  0.18137  1.0000
  H   H1809     1.0  0.29821  0.59159  0.24960  1.0000
  C   C1506     1.0  0.17416  0.58490  0.27817  1.0000
  H   H1810     1.0  0.17201  0.58901  0.19829  1.0000
  H   H1811     1.0  0.17886  0.61331  0.46866  1.0000
  H   H1812     1.0  0.31231  0.67619  0.47129  1.0000
  H   H1813     1.0  0.28672  0.78122  0.05542  1.0000
  H   H1814     1.0  0.29248  0.67639  0.46802  1.0000
  C   C1507     1.0  0.29286  0.70967  0.47451  1.0000
  H   H1815     1.0  0.13132  0.78054  0.29045  1.0000
  H   H1816     1.0  0.16822  0.58340  0.29158  1.0000
  H   H1817     1.0  0.36968  0.76704  0.10332  1.0000
  C   C1508     1.0  0.39487  0.77334  0.22792  1.0000
  H   H1818     1.0  0.43422  0.58348  0.21346  1.0000
  C   C1509     1.0  0.13236  0.77749  0.06532  1.0000
  H   H1819     1.0  0.07314  0.77975  0.09597  1.0000
  C   C1510     1.0  0.12990  0.77759  0.08203  1.0000
  C   C1511     1.0  0.33080  0.77606  0.15401  1.0000
  H   H1820     1.0  0.15530  0.58375  0.18466  1.0000
  S   S407      1.0  0.39089  0.77459  0.20856  1.0000
  C   C1512     1.0  0.29868  0.78087  0.24713  1.0000
  H   H1821     1.0  0.99055  0.74231  0.21102  1.0000
  C   C1513     1.0  0.48963  0.70436  0.23106  1.0000
  H   H1822     1.0  0.14258  0.78221  0.05627  1.0000
  H   H1823     1.0  0.33446  0.78190  0.12741  1.0000
  Fe  Fe206     1.0  0.24981  0.64254  0.51115  1.0000
  S   S408      1.0  0.22303  0.65551  0.51360  1.0000
  S   S409      1.0  0.26942  0.65769  0.50135  1.0000
  Fe  Fe207     1.0  0.24184  0.60830  0.52148  1.0000
  S   S410      1.0  0.21430  0.61850  0.52481  1.0000
  C   C1514     1.0  0.27294  0.64761  0.71334  1.0000
  Fe  Fe208     1.0  0.22099  0.63674  0.50092  1.0000
  H   H1824     1.0  0.22594  0.58458  0.62079  1.0000
  Fe  Fe209     1.0  0.21915  0.63621  0.53713  1.0000
  S   S411      1.0  0.20328  0.64241  0.56130  1.0000
  S   S412      1.0  0.24815  0.62528  0.49662  1.0000
  S   S413      1.0  0.24627  0.62442  0.53565  1.0000
  C   C1515     1.0  0.47373  0.74617  0.61906  1.0000
  Fe  Fe210     1.0  0.29540  0.70513  0.54605  1.0000
  S   S414      1.0  0.27843  0.68721  0.55731  1.0000
  Fe  Fe211     1.0  0.32299  0.71900  0.54994  1.0000
  S   S415      1.0  0.33845  0.71416  0.56907  1.0000
  Fe  Fe212     1.0  0.29249  0.74226  0.53867  1.0000
  S   S416      1.0  0.29566  0.72229  0.56124  1.0000
  Fe  Fe213     1.0  0.39116  0.75566  0.59602  1.0000
  S   S417      1.0  0.37051  0.75914  0.61807  1.0000
  S   S418      1.0  0.38540  0.75855  0.57111  1.0000
  Fe  Fe214     1.0  0.41787  0.74885  0.61573  1.0000
  S   S419      1.0  0.39926  0.75140  0.63969  1.0000
  Fe  Fe215     1.0  0.38579  0.73688  0.63186  1.0000
  S   S420      1.0  0.37195  0.71847  0.65030  1.0000
  H   H1825     1.0  0.15506  0.67552  0.90266  1.0000
  H   H1826     1.0  0.15712  0.60436  0.81657  1.0000
  S   S421      1.0  0.40549  0.73211  0.60931  1.0000
  H   H1827     1.0  0.39539  0.78149  0.68087  1.0000
  Fe  Fe216     1.0  0.40947  0.65270  0.71777  1.0000
  S   S422      1.0  0.41980  0.66252  0.69090  1.0000
  Fe  Fe217     1.0  0.38591  0.65842  0.74995  1.0000
  S   S423      1.0  0.36510  0.67790  0.76042  1.0000
  S   S424      1.0  0.41092  0.66448  0.73746  1.0000
  S   S425      1.0  0.38339  0.64920  0.72890  1.0000
  C   C1516     1.0  0.13731  0.64447  0.80939  1.0000
  C   C1517     1.0  0.01782  0.73015  0.74268  1.0000
  N   N103      1.0  0.24042  0.73380  0.52710  1.0000
  S   S426      1.0  0.23844  0.63962  0.75957  1.0000
  H   H1828     1.0  0.27704  0.60794  0.69792  1.0000
  H   H1829     1.0  0.00548  0.75214  0.77454  1.0000
  Fe  Fe218     1.0  0.04815  0.71934  0.78195  1.0000
  S   S427      1.0  0.04224  0.74611  0.76904  1.0000
  Fe  Fe219     1.0  0.06300  0.68418  0.77769  1.0000
  S   S428      1.0  0.05554  0.67330  0.80481  1.0000
  S   S429      1.0  0.07539  0.66906  0.75833  1.0000
  C   C1518     1.0  0.24103  0.74278  0.53937  1.0000
  Fe  Fe220     1.0  0.06473  0.69413  0.80829  1.0000
  S   S430      1.0  0.08297  0.68762  0.82514  1.0000
  S   S431      1.0  0.03802  0.70088  0.77598  1.0000
  S   S432      1.0  0.07392  0.70361  0.78103  1.0000
  Fe  Fe221     1.0  0.12505  0.73210  0.86496  1.0000
  S   S433      1.0  0.12909  0.70893  0.88478  1.0000
  S   S434      1.0  0.10402  0.73966  0.85131  1.0000
  Fe  Fe222     1.0  0.15379  0.74405  0.86930  1.0000
  S   S435      1.0  0.16002  0.72187  0.88929  1.0000
  S   S436      1.0  0.17094  0.76188  0.85978  1.0000
  Fe  Fe223     1.0  0.15612  0.70748  0.87309  1.0000
  S   S437      1.0  0.17458  0.68406  0.86851  1.0000
  Fe  Fe224     1.0  0.13249  0.72570  0.89911  1.0000
  S   S438      1.0  0.15200  0.72938  0.85213  1.0000
  S   S439      1.0  0.12635  0.74912  0.88023  1.0000
  Fe  Fe225     1.0  0.15413  0.64394  0.68859  1.0000
  S   S440      1.0  0.15837  0.62320  0.71057  1.0000
  S   S441      1.0  0.13278  0.64743  0.67686  1.0000
  Fe  Fe226     1.0  0.18395  0.65696  0.68726  1.0000
  S   S442      1.0  0.19060  0.63756  0.70919  1.0000
  S   S443      1.0  0.20098  0.67434  0.67414  1.0000
  Fe  Fe227     1.0  0.18518  0.62017  0.69720  1.0000
  H   H1830     1.0  0.11066  0.72387  0.80863  1.0000
  Fe  Fe228     1.0  0.16329  0.64284  0.72018  1.0000
  S   S444      1.0  0.15358  0.64787  0.74577  1.0000
  S   S445      1.0  0.18052  0.63924  0.67433  1.0000
  S   S446      1.0  0.15696  0.66388  0.69916  1.0000
  Fe  Fe229     1.0  0.18868  0.72153  0.59132  1.0000
  S   S447      1.0  0.17944  0.70515  0.61551  1.0000
  S   S448      1.0  0.20910  0.71094  0.57158  1.0000
  Fe  Fe230     1.0  0.16509  0.75279  0.60117  1.0000
  S   S449      1.0  0.15390  0.73885  0.62594  1.0000
  Fe  Fe231     1.0  0.18015  0.72551  0.62672  1.0000
  Fe  Fe232     1.0  0.15422  0.72019  0.61214  1.0000
  S   S450      1.0  0.13210  0.70915  0.61692  1.0000
  S   S451      1.0  0.16328  0.73516  0.58700  1.0000
  S   S452      1.0  0.03962  0.71159  0.80953  1.0000
  C   C1519     1.0  0.45681  0.64422  0.76054  1.0000
  C   C1520     1.0  0.23868  0.59285  0.77742  1.0000
  S   S453      1.0  0.25586  0.63692  0.79682  1.0000
  Fe  Fe233     1.0  0.03117  0.69171  0.80343  1.0000
  S   S454      1.0  0.22037  0.67091  0.77811  1.0000
  C   C1521     1.0  0.33585  0.62312  0.76451  1.0000
  Fe  Fe234     1.0  0.30329  0.67950  0.83974  1.0000
  S   S455      1.0  0.28416  0.68461  0.82478  1.0000
  S   S456      1.0  0.32679  0.66035  0.83463  1.0000
  Fe  Fe235     1.0  0.28338  0.70493  0.85986  1.0000
  S   S457      1.0  0.26248  0.71253  0.84660  1.0000
  S   S458      1.0  0.28089  0.71619  0.88133  1.0000
  Fe  Fe236     1.0  0.26568  0.68531  0.84880  1.0000
  S   S459      1.0  0.24260  0.67596  0.85313  1.0000
  Fe  Fe237     1.0  0.28247  0.71128  0.82371  1.0000
  S   S460      1.0  0.27879  0.72806  0.79942  1.0000
  S   S461      1.0  0.28488  0.67756  0.86419  1.0000
  S   S462      1.0  0.30345  0.70634  0.83652  1.0000
  H   H1831     1.0  0.42735  0.64894  0.81362  1.0000
  C   C1522     1.0  0.46657  0.72505  0.68481  1.0000
  C   C1523     1.0  0.30241  0.76123  0.80312  1.0000
  C   C1524     1.0  0.29360  0.74856  0.80724  1.0000
  C   C1525     1.0  0.28837  0.74479  0.79492  1.0000
  C   C1526     1.0  0.29160  0.75386  0.77861  1.0000
  H   H1832     1.0  0.39697  0.61967  0.71079  1.0000
  H   H1833     1.0  0.42982  0.66614  0.79616  1.0000
  H   H1834     1.0  0.29088  0.74173  0.81992  1.0000
  H   H1835     1.0  0.28758  0.75096  0.76906  1.0000
  C   C1527     1.0  0.99405  0.68066  0.80491  1.0000
  C   C1528     1.0  0.25176  0.64680  0.81329  1.0000
  C   C1529     1.0  0.26451  0.64543  0.82115  1.0000
  C   C1530     1.0  0.26161  0.65414  0.83365  1.0000
  C   C1531     1.0  0.24591  0.66411  0.83840  1.0000
  C   C1532     1.0  0.23314  0.66536  0.83063  1.0000
  C   C1533     1.0  0.23607  0.65677  0.81804  1.0000
  H   H1836     1.0  0.27665  0.63770  0.81754  1.0000
  H   H1837     1.0  0.27148  0.65301  0.83974  1.0000
  H   H1838     1.0  0.22107  0.67319  0.83413  1.0000
  H   H1839     1.0  0.22618  0.65782  0.81205  1.0000
  C   C1534     1.0  0.20806  0.67924  0.68911  1.0000
  C   C1535     1.0  0.22288  0.68487  0.68483  1.0000
  C   C1536     1.0  0.22961  0.68661  0.69727  1.0000
  C   C1537     1.0  0.22152  0.68273  0.71397  1.0000
  C   C1538     1.0  0.20624  0.67808  0.71803  1.0000
  C   C1539     1.0  0.19955  0.67627  0.70567  1.0000
  H   H1840     1.0  0.22936  0.68744  0.67198  1.0000
  H   H1841     1.0  0.25908  0.73824  0.58406  1.0000
  H   H1842     1.0  0.19945  0.67598  0.73068  1.0000
  H   H1843     1.0  0.18784  0.67244  0.70903  1.0000
  C   C1540     1.0  0.13340  0.66399  0.65965  1.0000
  C   C1541     1.0  0.14436  0.67444  0.65666  1.0000
  C   C1542     1.0  0.14392  0.68844  0.64358  1.0000
  C   C1543     1.0  0.13261  0.69189  0.63343  1.0000
  C   C1544     1.0  0.12168  0.68142  0.63639  1.0000
  C   C1545     1.0  0.12213  0.66741  0.64946  1.0000
  H   H1844     1.0  0.15310  0.67185  0.66449  1.0000
  H   H1845     1.0  0.15221  0.69662  0.64149  1.0000
  H   H1846     1.0  0.11282  0.68420  0.62863  1.0000
  H   H1847     1.0  0.11360  0.65935  0.65183  1.0000
  C   C1546     1.0  0.17346  0.67965  0.85015  1.0000
  C   C1547     1.0  0.18651  0.66845  0.84240  1.0000
  C   C1548     1.0  0.18637  0.66610  0.82690  1.0000
  C   C1549     1.0  0.17295  0.67458  0.81941  1.0000
  C   C1550     1.0  0.15956  0.68516  0.82755  1.0000
  C   C1551     1.0  0.15991  0.68786  0.84279  1.0000
  H   H1848     1.0  0.19687  0.66185  0.84823  1.0000
  H   H1849     1.0  0.19662  0.65770  0.82079  1.0000
  H   H1850     1.0  0.14899  0.69142  0.82203  1.0000
  H   H1851     1.0  0.14962  0.69623  0.84890  1.0000
  C   C1552     1.0  0.09700  0.66216  0.75608  1.0000
  C   C1553     1.0  0.10552  0.66612  0.76570  1.0000
  C   C1554     1.0  0.12295  0.66124  0.76289  1.0000
  C   C1555     1.0  0.13182  0.65279  0.75021  1.0000
  C   C1556     1.0  0.12326  0.64861  0.74083  1.0000
  C   C1557     1.0  0.10587  0.65300  0.74399  1.0000
  H   H1852     1.0  0.09871  0.67285  0.77532  1.0000
  H   H1853     1.0  0.12956  0.66427  0.77033  1.0000
  H   H1854     1.0  0.13001  0.64184  0.73123  1.0000
  H   H1855     1.0  0.09932  0.64933  0.73696  1.0000
  C   C1558     1.0  0.08831  0.70227  0.83261  1.0000
  C   C1559     1.0  0.10163  0.69703  0.84073  1.0000
  C   C1560     1.0  0.10655  0.70834  0.84656  1.0000
  C   C1561     1.0  0.09815  0.72501  0.84432  1.0000
  C   C1562     1.0  0.08479  0.73026  0.83625  1.0000
  C   C1563     1.0  0.07990  0.71894  0.83036  1.0000
  H   H1856     1.0  0.10818  0.68414  0.84255  1.0000
  H   H1857     1.0  0.11684  0.70415  0.85276  1.0000
  H   H1858     1.0  0.07823  0.74315  0.83447  1.0000
  H   H1859     1.0  0.06962  0.72310  0.82413  1.0000
  H   H1860     1.0  0.22510  0.63564  0.69110  1.0000
  H   H1861     1.0  0.25997  0.72053  0.64387  1.0000
  S   S463      1.0  0.16198  0.73806  0.96936  1.0000
  C   C1564     1.0  0.05278  0.76705  0.74019  1.0000
  H   H1862     1.0  0.20121  0.60196  0.61201  1.0000
  H   H1863     1.0  0.34179  0.72626  0.63622  1.0000
  H   H1864     1.0  0.20657  0.68126  0.95424  1.0000
  H   H1865     1.0  0.15577  0.61909  0.77176  1.0000
  H   H1866     1.0  0.22608  0.63860  0.72420  1.0000
  C   C1565     1.0  0.48886  0.71528  0.72670  1.0000
  H   H1867     1.0  0.12876  0.62080  0.78779  1.0000
  C   C1566     1.0  0.26607  0.76317  0.85657  1.0000
  C   C1567     1.0  0.27270  0.74603  0.86020  1.0000
  C   C1568     1.0  0.27383  0.73780  0.87646  1.0000
  C   C1569     1.0  0.26856  0.74677  0.88904  1.0000
  C   C1570     1.0  0.26150  0.76385  0.88550  1.0000
  H   H1868     1.0  0.24685  0.65228  0.71538  1.0000
  H   H1869     1.0  0.27696  0.73920  0.85040  1.0000
  H   H1870     1.0  0.26966  0.74045  0.90159  1.0000
  S   S464      1.0  0.21227  0.60857  0.76281  1.0000
  C   C1571     1.0  0.45264  0.66137  0.75431  1.0000
  H   H1871     1.0  0.24330  0.72294  0.49898  1.0000
  H   H1872     1.0  0.44130  0.66679  0.74982  1.0000
  H   H1873     1.0  0.15345  0.60204  0.78962  1.0000
  C   C1572     1.0  0.33638  0.66418  0.81355  1.0000
  C   C1573     1.0  0.33001  0.67850  0.80271  1.0000
  C   C1574     1.0  0.33842  0.68203  0.78610  1.0000
  C   C1575     1.0  0.35345  0.67155  0.78040  1.0000
  C   C1576     1.0  0.35943  0.65688  0.79106  1.0000
  C   C1577     1.0  0.35082  0.65313  0.80760  1.0000
  H   H1874     1.0  0.31876  0.68699  0.80717  1.0000
  H   H1875     1.0  0.33340  0.69301  0.77775  1.0000
  H   H1876     1.0  0.37079  0.64858  0.78672  1.0000
  H   H1877     1.0  0.35550  0.64184  0.81591  1.0000
  C   C1578     1.0  0.38514  0.70337  0.66202  1.0000
  C   C1579     1.0  0.40236  0.70186  0.65704  1.0000
  C   C1580     1.0  0.41290  0.68929  0.66604  1.0000
  C   C1581     1.0  0.40624  0.67857  0.68035  1.0000
  C   C1582     1.0  0.38896  0.68045  0.68566  1.0000
  C   C1583     1.0  0.37842  0.69274  0.67638  1.0000
  H   H1878     1.0  0.40763  0.71010  0.64602  1.0000
  H   H1879     1.0  0.42626  0.68789  0.66193  1.0000
  H   H1880     1.0  0.38374  0.67217  0.69662  1.0000
  H   H1881     1.0  0.36507  0.69396  0.68030  1.0000
  H   H1882     1.0  0.19434  0.77153  0.65312  1.0000
  C   C1584     1.0  0.23893  0.58475  0.75248  1.0000
  C   C1585     1.0  0.16026  0.61218  0.78329  1.0000
  H   H1883     1.0  0.10070  0.63568  0.79728  1.0000
  C   C1586     1.0  0.20702  0.59487  0.49300  1.0000
  H   H1884     1.0  0.99742  0.66991  0.76858  1.0000
  H   H1885     1.0  0.34871  0.61995  0.70691  1.0000
  H   H1886     1.0  0.23310  0.58608  0.74241  1.0000
  H   H1887     1.0  0.25393  0.74061  0.54112  1.0000
  C   C1587     1.0  0.37100  0.74747  0.57081  1.0000
  C   C1588     1.0  0.36687  0.74849  0.55579  1.0000
  C   C1589     1.0  0.35590  0.73919  0.55523  1.0000
  C   C1590     1.0  0.34920  0.72869  0.56967  1.0000
  C   C1591     1.0  0.35288  0.72817  0.58475  1.0000
  C   C1592     1.0  0.36377  0.73747  0.58534  1.0000
  H   H1888     1.0  0.37248  0.75616  0.54449  1.0000
  H   H1889     1.0  0.35326  0.73953  0.54351  1.0000
  H   H1890     1.0  0.34768  0.72011  0.59596  1.0000
  H   H1891     1.0  0.36684  0.73658  0.59700  1.0000
  H   H1892     1.0  0.41691  0.61717  0.66715  1.0000
  C   C1593     1.0  0.17670  0.67298  0.96465  1.0000
  H   H1893     1.0  0.20228  0.61974  0.59503  1.0000
  C   C1594     1.0  0.33321  0.73814  0.63364  1.0000
  H   H1894     1.0  0.21498  0.73269  0.53958  1.0000
  H   H1895     1.0  0.41378  0.69383  0.60334  1.0000
  C   C1595     1.0  0.12594  0.72591  0.95553  1.0000
  C   C1596     1.0  0.27186  0.66586  0.51698  1.0000
  C   C1597     1.0  0.26195  0.66293  0.53299  1.0000
  C   C1598     1.0  0.26404  0.66938  0.54544  1.0000
  C   C1599     1.0  0.27613  0.67872  0.54191  1.0000
  C   C1600     1.0  0.28602  0.68170  0.52591  1.0000
  C   C1601     1.0  0.28384  0.67535  0.51345  1.0000
  H   H1896     1.0  0.25269  0.65565  0.53582  1.0000
  H   H1897     1.0  0.25626  0.66716  0.55777  1.0000
  H   H1898     1.0  0.29549  0.68876  0.52318  1.0000
  H   H1899     1.0  0.29155  0.67774  0.50116  1.0000
  H   H1900     1.0  0.17794  0.60643  0.80558  1.0000
  C   C1602     1.0  0.35359  0.60980  0.71621  1.0000
  C   C1603     1.0  0.42563  0.59796  0.70485  1.0000
  C   C1604     1.0  0.30627  0.76984  0.78664  1.0000
  H   H1901     1.0  0.16461  0.74503  0.93432  1.0000
  C   C1605     1.0  0.38245  0.65838  0.82112  1.0000
  H   H1902     1.0  0.32235  0.73025  0.61811  1.0000
  C   C1606     1.0  0.40440  0.62185  0.69786  1.0000
  C   C1607     1.0  0.14496  0.73622  0.93058  1.0000
  C   C1608     1.0  0.25958  0.75175  0.50630  1.0000
  C   C1609     1.0  0.20517  0.66131  0.56419  1.0000
  C   C1610     1.0  0.19559  0.66725  0.57827  1.0000
  C   C1611     1.0  0.19653  0.68255  0.58052  1.0000
  C   C1612     1.0  0.20743  0.69182  0.56889  1.0000
  C   C1613     1.0  0.21728  0.68566  0.55498  1.0000
  C   C1614     1.0  0.21609  0.67052  0.55260  1.0000
  H   H1903     1.0  0.18753  0.65994  0.58751  1.0000
  H   H1904     1.0  0.18888  0.68704  0.59129  1.0000
  H   H1905     1.0  0.22575  0.69260  0.54588  1.0000
  H   H1906     1.0  0.22368  0.66599  0.54180  1.0000
  H   H1907     1.0  0.22058  0.62066  0.72277  1.0000
  H   H1908     1.0  0.37143  0.59620  0.67558  1.0000
  H   H1909     1.0  0.47669  0.71152  0.73091  1.0000
  H   H1910     1.0  0.09963  0.67189  0.67964  1.0000
  H   H1911     1.0  0.25150  0.70275  0.63135  1.0000
  H   H1912     1.0  0.01400  0.67789  0.78353  1.0000
  S   S465      1.0  0.32902  0.72175  0.48828  1.0000
  H   H1913     1.0  0.45422  0.72358  0.68546  1.0000
  H   H1914     1.0  0.18196  0.67418  0.97466  1.0000
  H   H1915     1.0  0.08137  0.74449  0.92218  1.0000
  C   C1615     1.0  0.20223  0.58873  0.67835  1.0000
  C   C1616     1.0  0.31110  0.59087  0.75540  1.0000
  H   H1916     1.0  0.24034  0.60560  0.57908  1.0000
  H   H1917     1.0  0.19843  0.66838  0.92094  1.0000
  C   C1617     1.0  0.17775  0.67121  0.91083  1.0000
  C   C1618     1.0  0.24992  0.73954  0.51015  1.0000
  C   C1619     1.0  0.16070  0.67701  0.91186  1.0000
  H   H1918     1.0  0.26520  0.76951  0.84396  1.0000
  C   C1620     1.0  0.28958  0.62303  0.70364  1.0000
  H   H1919     1.0  0.25191  0.59878  0.71155  1.0000
  H   H1920     1.0  0.43373  0.61675  0.67566  1.0000
  C   C1621     1.0  0.37160  0.59881  0.73596  1.0000
  H   H1921     1.0  0.00296  0.77816  0.71977  1.0000
  C   C1622     1.0  0.99379  0.77579  0.71422  1.0000
  H   H1922     1.0  0.30656  0.76407  0.81263  1.0000
  H   H1923     1.0  0.32261  0.58259  0.75909  1.0000
  C   C1623     1.0  0.00316  0.74580  0.72037  1.0000
  H   H1924     1.0  0.23327  0.73856  0.55180  1.0000
  H   H1925     1.0  0.48034  0.73578  0.61326  1.0000
  H   H1926     1.0  0.22920  0.62605  0.57981  1.0000
  C   C1624     1.0  0.44789  0.76459  0.62865  1.0000
  N   N104      1.0  0.36154  0.74804  0.69359  1.0000
  C   C1625     1.0  0.35117  0.76520  0.69244  1.0000
  H   H1927     1.0  0.30385  0.58253  0.75405  1.0000
  C   C1626     1.0  0.36222  0.74261  0.67842  1.0000
  C   C1627     1.0  0.35517  0.73595  0.70840  1.0000
  C   C1628     1.0  0.34066  0.74049  0.72055  1.0000
  C   C1629     1.0  0.36330  0.71887  0.71077  1.0000
  C   C1630     1.0  0.33460  0.72861  0.73400  1.0000
  C   C1631     1.0  0.26874  0.74922  0.47761  1.0000
  C   C1632     1.0  0.34278  0.71195  0.73582  1.0000
  H   H1928     1.0  0.24537  0.59142  0.61378  1.0000
  H   H1929     1.0  0.33808  0.76562  0.69237  1.0000
  H   H1930     1.0  0.35104  0.77053  0.70292  1.0000
  H   H1931     1.0  0.17055  0.64292  0.79331  1.0000
  H   H1932     1.0  0.22278  0.60044  0.63794  1.0000
  C   C1633     1.0  0.45680  0.77306  0.63383  1.0000
  H   H1933     1.0  0.35007  0.74019  0.67853  1.0000
  H   H1934     1.0  0.34865  0.62318  0.75794  1.0000
  H   H1935     1.0  0.37174  0.73099  0.67714  1.0000
  H   H1936     1.0  0.33354  0.75309  0.71981  1.0000
  H   H1937     1.0  0.21039  0.59724  0.50322  1.0000
  H   H1938     1.0  0.32331  0.73241  0.74289  1.0000
  C   C1634     1.0  0.06129  0.73337  0.88202  1.0000
  H   H1939     1.0  0.00274  0.72395  0.79083  1.0000
  N   N105      1.0  0.22516  0.60835  0.60340  1.0000
  C   C1635     1.0  0.29674  0.58943  0.78382  1.0000
  C   C1636     1.0  0.23589  0.61472  0.58728  1.0000
  C   C1637     1.0  0.34899  0.59448  0.71975  1.0000
  C   C1638     1.0  0.22127  0.61959  0.61499  1.0000
  C   C1639     1.0  0.22050  0.61354  0.63231  1.0000
  C   C1640     1.0  0.21697  0.63712  0.60936  1.0000
  C   C1641     1.0  0.21652  0.62442  0.64303  1.0000
  C   C1642     1.0  0.21306  0.64789  0.62017  1.0000
  C   C1643     1.0  0.21295  0.64156  0.63696  1.0000
  H   H1940     1.0  0.30595  0.64011  0.79409  1.0000
  S   S466      1.0  0.33618  0.59192  0.70804  1.0000
  H   H1941     1.0  0.34651  0.77300  0.64956  1.0000
  C   C1644     1.0  0.26895  0.75632  0.49028  1.0000
  C   C1645     1.0  0.25001  0.73255  0.49693  1.0000
  H   H1942     1.0  0.24701  0.61765  0.58917  1.0000
  C   C1646     1.0  0.32234  0.74036  0.62341  1.0000
  C   C1647     1.0  0.30254  0.71205  0.48408  1.0000
  H   H1943     1.0  0.25723  0.77073  0.89528  1.0000
  C   C1648     1.0  0.99506  0.74726  0.77452  1.0000
  H   H1944     1.0  0.21643  0.64268  0.59658  1.0000
  C   C1649     1.0  0.31142  0.75562  0.62001  1.0000
  H   H1945     1.0  0.20988  0.66123  0.61551  1.0000
  H   H1946     1.0  0.20984  0.64995  0.64534  1.0000
  N   N106      1.0  0.14132  0.72392  0.68410  1.0000
  C   C1650     1.0  0.15484  0.73227  0.68263  1.0000
  C   C1651     1.0  0.14773  0.71118  0.67381  1.0000
  C   C1652     1.0  0.12787  0.73664  0.67705  1.0000
  C   C1653     1.0  0.13581  0.71586  0.70168  1.0000
  C   C1654     1.0  0.14705  0.70286  0.70991  1.0000
  C   C1655     1.0  0.11949  0.72068  0.71118  1.0000
  C   C1656     1.0  0.14216  0.69493  0.72646  1.0000
  C   C1657     1.0  0.11475  0.71267  0.72776  1.0000
  C   C1658     1.0  0.12605  0.69987  0.73535  1.0000
  H   H1947     1.0  0.15090  0.74119  0.69097  1.0000
  H   H1948     1.0  0.16626  0.72323  0.68576  1.0000
  H   H1949     1.0  0.15876  0.73925  0.66972  1.0000
  H   H1950     1.0  0.13838  0.70375  0.67547  1.0000
  H   H1951     1.0  0.15938  0.70239  0.67667  1.0000
  H   H1952     1.0  0.15112  0.71688  0.66037  1.0000
  H   H1953     1.0  0.13226  0.74208  0.66368  1.0000
  H   H1954     1.0  0.11722  0.73119  0.67790  1.0000
  H   H1955     1.0  0.12313  0.74723  0.68346  1.0000
  H   H1956     1.0  0.15976  0.69867  0.70356  1.0000
  H   H1957     1.0  0.11017  0.73067  0.70614  1.0000
  H   H1958     1.0  0.15088  0.68479  0.73238  1.0000
  H   H1959     1.0  0.10228  0.71648  0.73488  1.0000
  H   H1960     1.0  0.12231  0.69384  0.74821  1.0000
  C   C1659     1.0  0.15382  0.73969  0.94029  1.0000
  C   C1660     1.0  0.18517  0.67320  0.92255  1.0000
  H   H1961     1.0  0.18523  0.66526  0.90072  1.0000
  S   S467      1.0  0.08419  0.76327  0.69587  1.0000
  H   H1962     1.0  0.29031  0.68010  0.78806  1.0000
  H   H1963     1.0  0.17991  0.75830  0.64067  1.0000
  C   C1661     1.0  0.47163  0.63742  0.76630  1.0000
  C   C1662     1.0  0.17152  0.77292  0.87401  1.0000
  H   H1964     1.0  0.04506  0.77693  0.74629  1.0000
  C   C1663     1.0  0.45637  0.75126  0.62100  1.0000
  S   S468      1.0  0.44331  0.63103  0.76249  1.0000
  C   C1664     1.0  0.40106  0.69267  0.60558  1.0000
  N   N107      1.0  0.41412  0.60590  0.69335  1.0000
  S   S469      1.0  0.44582  0.74117  0.61309  1.0000
  C   C1665     1.0  0.42614  0.65395  0.80050  1.0000
  C   C1666     1.0  0.40756  0.66354  0.78157  1.0000
  H   H1965     1.0  0.43577  0.64566  0.79290  1.0000
  H   H1966     1.0  0.35605  0.77384  0.68094  1.0000
  H   H1967     1.0  0.19120  0.76845  0.94826  1.0000
  H   H1968     1.0  0.41657  0.65663  0.77240  1.0000
  H   H1969     1.0  0.39484  0.66479  0.77978  1.0000
  N   N108      1.0  0.07377  0.73976  0.90221  1.0000
  C   C1667     1.0  0.07753  0.75552  0.89107  1.0000
  C   C1668     1.0  0.07047  0.74169  0.91958  1.0000
  C   C1669     1.0  0.08875  0.72624  0.89980  1.0000
  H   H1970     1.0  0.36244  0.69099  0.83963  1.0000
  H   H1971     1.0  0.08767  0.75917  0.89411  1.0000
  H   H1972     1.0  0.08186  0.75460  0.87784  1.0000
  C   C1670     1.0  0.25855  0.64375  0.71217  1.0000
  C   C1671     1.0  0.40263  0.59551  0.69394  1.0000
  H   H1973     1.0  0.23268  0.60021  0.78670  1.0000
  N   N109      1.0  0.18294  0.68347  0.94843  1.0000
  H   H1974     1.0  0.08632  0.71403  0.90748  1.0000
  C   C1672     1.0  0.09045  0.67376  0.69129  1.0000
  H   H1975     1.0  0.39818  0.68913  0.63196  1.0000
  C   C1673     1.0  0.24724  0.71588  0.53309  1.0000
  C   C1674     1.0  0.03195  0.72965  0.90553  1.0000
  N   N110      1.0  0.24368  0.62544  0.70593  1.0000
  H   H1976     1.0  0.23725  0.61835  0.73256  1.0000
  C   C1675     1.0  0.25911  0.73752  0.48088  1.0000
  H   H1977     1.0  0.13769  0.68937  0.92536  1.0000
  H   H1978     1.0  0.39565  0.62895  0.68966  1.0000
  H   H1979     1.0  0.25421  0.60812  0.68966  1.0000
  N   N111      1.0  0.26782  0.69064  0.77860  1.0000
  C   C1676     1.0  0.26804  0.67376  0.77703  1.0000
  C   C1677     1.0  0.25680  0.69336  0.79472  1.0000
  C   C1678     1.0  0.26179  0.70401  0.76511  1.0000
  C   C1679     1.0  0.26334  0.72056  0.76312  1.0000
  C   C1680     1.0  0.25377  0.70122  0.75395  1.0000
  C   C1681     1.0  0.25811  0.73328  0.75022  1.0000
  C   C1682     1.0  0.24846  0.71407  0.74118  1.0000
  C   C1683     1.0  0.25078  0.73002  0.73921  1.0000
  H   H1980     1.0  0.15296  0.70458  0.79098  1.0000
  H   H1981     1.0  0.27536  0.67128  0.76473  1.0000
  H   H1982     1.0  0.27371  0.66387  0.78659  1.0000
  H   H1983     1.0  0.26064  0.68335  0.80522  1.0000
  H   H1984     1.0  0.25696  0.70536  0.79726  1.0000
  H   H1985     1.0  0.24368  0.69340  0.79511  1.0000
  H   H1986     1.0  0.26858  0.72385  0.77155  1.0000
  Fe  Fe238     1.0  0.42129  0.63852  0.75004  1.0000
  H   H1987     1.0  0.25979  0.74575  0.74875  1.0000
  N   N112      1.0  0.12771  0.71447  0.78779  1.0000
  H   H1988     1.0  0.24683  0.73987  0.72914  1.0000
  H   H1989     1.0  0.41722  0.63062  0.79270  1.0000
  H   H1990     1.0  0.16350  0.64473  0.77501  1.0000
  H   H1991     1.0  0.13079  0.68973  0.80329  1.0000
  H   H1992     1.0  0.21158  0.59920  0.59140  1.0000
  H   H1993     1.0  0.20615  0.66537  0.94482  1.0000
  H   H1994     1.0  0.41012  0.67620  0.77821  1.0000
  S   S470      1.0  0.42161  0.62701  0.72942  1.0000
  H   H1995     1.0  0.12580  0.69138  0.78383  1.0000
  H   H1996     1.0  0.41948  0.71099  0.57857  1.0000
  C   C1684     1.0  0.01625  0.76231  0.69499  1.0000
  H   H1997     1.0  0.21601  0.61948  0.65621  1.0000
  H   H1998     1.0  0.38427  0.75658  0.68197  1.0000
  Fe  Fe239     1.0  0.23399  0.64444  0.78488  1.0000
  H   H1999     1.0  0.16447  0.70477  0.95532  1.0000
  H   H2000     1.0  0.29899  0.70885  0.49741  1.0000
  H   H2001     1.0  0.14708  0.64747  0.81301  1.0000
  H   H2002     1.0  0.22080  0.72816  0.51958  1.0000
  Fe  Fe240     1.0  0.39546  0.62425  0.74209  1.0000
  C   C1685     1.0  0.30317  0.62252  0.78185  1.0000
  H   H2003     1.0  0.02052  0.72815  0.91462  1.0000
  H   H2004     1.0  0.02643  0.72945  0.75018  1.0000
  C   C1686     1.0  0.14895  0.73604  0.95767  1.0000
  C   C1687     1.0  0.48225  0.64762  0.76580  1.0000
  H   H2005     1.0  0.39053  0.61310  0.67477  1.0000
  Fe  Fe241     1.0  0.21434  0.63130  0.76937  1.0000
  C   C1688     1.0  0.07232  0.75834  0.71611  1.0000
  H   H2006     1.0  0.40767  0.68607  0.80269  1.0000
  C   C1689     1.0  0.37185  0.68371  0.83151  1.0000
  H   H2007     1.0  0.27197  0.65881  0.71743  1.0000
  H   H2008     1.0  0.09935  0.72853  0.90332  1.0000
  S   S471      1.0  0.38687  0.60048  0.74539  1.0000
  H   H2009     1.0  0.36963  0.77443  0.75237  1.0000
  C   C1690     1.0  0.14097  0.63244  0.79961  1.0000
  C   C1691     1.0  0.23143  0.62581  0.72198  1.0000
  N   N113      1.0  0.14777  0.66016  0.59335  1.0000
  C   C1692     1.0  0.15579  0.65390  0.57789  1.0000
  C   C1693     1.0  0.13056  0.65743  0.59903  1.0000
  C   C1694     1.0  0.14673  0.67838  0.58903  1.0000
  C   C1695     1.0  0.15707  0.65115  0.60656  1.0000
  C   C1696     1.0  0.16040  0.63351  0.61108  1.0000
  C   C1697     1.0  0.16235  0.65942  0.61581  1.0000
  C   C1698     1.0  0.16866  0.62472  0.62386  1.0000
  C   C1699     1.0  0.17058  0.65049  0.62859  1.0000
  C   C1700     1.0  0.99353  0.73140  0.78368  1.0000
  H   H2010     1.0  0.15577  0.64064  0.57936  1.0000
  H   H2011     1.0  0.14942  0.66092  0.56756  1.0000
  H   H2012     1.0  0.16897  0.65514  0.57359  1.0000
  H   H2013     1.0  0.13025  0.64409  0.60125  1.0000
  H   H2014     1.0  0.12283  0.66446  0.58978  1.0000
  H   H2015     1.0  0.12433  0.66152  0.61091  1.0000
  H   H2016     1.0  0.15930  0.68134  0.58514  1.0000
  H   H2017     1.0  0.14029  0.68479  0.57863  1.0000
  H   H2018     1.0  0.13945  0.68425  0.59961  1.0000
  H   H2019     1.0  0.15639  0.62633  0.60498  1.0000
  H   H2020     1.0  0.16023  0.67279  0.61349  1.0000
  H   H2021     1.0  0.41264  0.63020  0.69705  1.0000
  C   C1701     1.0  0.19338  0.60594  0.48729  1.0000
  H   H2022     1.0  0.05017  0.72715  0.86554  1.0000
  N   N114      1.0  0.20959  0.72149  0.83152  1.0000
  C   C1702     1.0  0.22688  0.71878  0.83341  1.0000
  C   C1703     1.0  0.20093  0.73884  0.83258  1.0000
  C   C1704     1.0  0.20103  0.71033  0.84585  1.0000
  C   C1705     1.0  0.20979  0.71864  0.81522  1.0000
  C   C1706     1.0  0.20157  0.70709  0.81351  1.0000
  C   C1707     1.0  0.21836  0.72769  0.80037  1.0000
  C   C1708     1.0  0.20198  0.70479  0.79791  1.0000
  C   C1709     1.0  0.21874  0.72524  0.78482  1.0000
  C   C1710     1.0  0.21060  0.71378  0.78359  1.0000
  H   H2023     1.0  0.23353  0.72838  0.82486  1.0000
  H   H2024     1.0  0.22723  0.71904  0.84619  1.0000
  H   H2025     1.0  0.23428  0.70645  0.83100  1.0000
  H   H2026     1.0  0.20068  0.74145  0.84466  1.0000
  H   H2027     1.0  0.18776  0.74137  0.83147  1.0000
  H   H2028     1.0  0.20699  0.74815  0.82276  1.0000
  H   H2029     1.0  0.20721  0.69700  0.84624  1.0000
  H   H2030     1.0  0.20101  0.71280  0.85791  1.0000
  H   H2031     1.0  0.18774  0.71207  0.84564  1.0000
  H   H2032     1.0  0.19471  0.69965  0.82403  1.0000
  H   H2033     1.0  0.22478  0.73679  0.80070  1.0000
  H   H2034     1.0  0.19552  0.69595  0.79695  1.0000
  H   H2035     1.0  0.22531  0.73233  0.77365  1.0000
  H   H2036     1.0  0.21092  0.71187  0.77153  1.0000
  H   H2037     1.0  0.36892  0.68675  0.63865  1.0000
  H   H2038     1.0  0.15013  0.72376  0.77623  1.0000
  C   C1711     1.0  0.14598  0.71178  0.78116  1.0000
  S   S472      1.0  0.00516  0.68728  0.81555  1.0000
  C   C1712     1.0  0.20222  0.72752  0.65390  1.0000
  H   H2039     1.0  0.33361  0.76892  0.57175  1.0000
  H   H2040     1.0  0.28138  0.76699  0.69756  1.0000
  C   C1713     1.0  0.37682  0.69214  0.59663  1.0000
  C   C1714     1.0  0.20508  0.72452  0.66980  1.0000
  C   C1715     1.0  0.39227  0.68990  0.62205  1.0000
  H   H2041     1.0  0.24130  0.69052  0.69398  1.0000
  H   H2042     1.0  0.43137  0.59782  0.67214  1.0000
  S   S473      1.0  0.21106  0.63393  0.79537  1.0000
  C   C1716     1.0  0.31184  0.63267  0.78482  1.0000
  H   H2043     1.0  0.20530  0.78050  0.63340  1.0000
  C   C1717     1.0  0.17372  0.63319  0.63262  1.0000
  C   C1718     1.0  0.27523  0.61906  0.70240  1.0000
  H   H2044     1.0  0.06636  0.76589  0.89194  1.0000
  N   N115      1.0  0.09367  0.68597  0.69871  1.0000
  C   C1719     1.0  0.11083  0.68022  0.70163  1.0000
  C   C1720     1.0  0.08197  0.68582  0.71513  1.0000
  C   C1721     1.0  0.09193  0.70250  0.68726  1.0000
  C   C1722     1.0  0.08020  0.71683  0.69163  1.0000
  C   C1723     1.0  0.10206  0.70459  0.67099  1.0000
  C   C1724     1.0  0.07874  0.73215  0.68031  1.0000
  C   C1725     1.0  0.10047  0.71992  0.65974  1.0000
  C   C1726     1.0  0.08882  0.73370  0.66441  1.0000
  H   H2045     1.0  0.11378  0.68883  0.70746  1.0000
  H   H2046     1.0  0.11263  0.66767  0.70995  1.0000
  H   H2047     1.0  0.12040  0.67897  0.69004  1.0000
  H   H2048     1.0  0.08433  0.69382  0.72211  1.0000
  H   H2049     1.0  0.08321  0.67313  0.72318  1.0000
  H   H2050     1.0  0.06876  0.68973  0.71399  1.0000
  H   H2051     1.0  0.07195  0.71656  0.70371  1.0000
  H   H2052     1.0  0.11120  0.69427  0.66680  1.0000
  H   H2053     1.0  0.06978  0.74296  0.68394  1.0000
  H   H2054     1.0  0.10826  0.72109  0.64729  1.0000
  H   H2055     1.0  0.08763  0.74563  0.65571  1.0000
  N   N116      1.0  0.40299  0.69768  0.57492  1.0000
  C   C1727     1.0  0.39286  0.70049  0.56248  1.0000
  C   C1728     1.0  0.40967  0.71280  0.57167  1.0000
  C   C1729     1.0  0.41709  0.68340  0.57218  1.0000
  H   H2056     1.0  0.38812  0.68932  0.56347  1.0000
  H   H2057     1.0  0.38207  0.71113  0.56389  1.0000
  H   H2058     1.0  0.40013  0.70352  0.54953  1.0000
  H   H2059     1.0  0.36998  0.69295  0.58747  1.0000
  H   H2060     1.0  0.41533  0.71693  0.55832  1.0000
  H   H2061     1.0  0.42590  0.68121  0.58032  1.0000
  H   H2062     1.0  0.41255  0.67175  0.57480  1.0000
  H   H2063     1.0  0.42441  0.68540  0.55915  1.0000
  N   N117      1.0  0.34888  0.72759  0.78496  1.0000
  C   C1730     1.0  0.34390  0.73581  0.79927  1.0000
  C   C1731     1.0  0.33355  0.72661  0.78089  1.0000
  C   C1732     1.0  0.35834  0.71047  0.79052  1.0000
  C   C1733     1.0  0.35886  0.73661  0.76995  1.0000
  C   C1734     1.0  0.36008  0.75327  0.76814  1.0000
  C   C1735     1.0  0.36675  0.72918  0.75605  1.0000
  C   C1736     1.0  0.33317  0.75115  0.64057  1.0000
  C   C1737     1.0  0.28843  0.63722  0.70916  1.0000
  C   C1738     1.0  0.37700  0.75385  0.74034  1.0000
  H   H2064     1.0  0.33546  0.74819  0.79667  1.0000
  H   H2065     1.0  0.33677  0.72856  0.81050  1.0000
  H   H2066     1.0  0.35491  0.73745  0.80259  1.0000
  H   H2067     1.0  0.32626  0.73924  0.77656  1.0000
  H   H2068     1.0  0.32531  0.72019  0.79180  1.0000
  H   H2069     1.0  0.33638  0.71993  0.77073  1.0000
  H   H2070     1.0  0.37051  0.71068  0.79260  1.0000
  H   H2071     1.0  0.35133  0.70375  0.80226  1.0000
  H   H2072     1.0  0.36085  0.70254  0.78147  1.0000
  H   H2073     1.0  0.35389  0.76030  0.77765  1.0000
  H   H2074     1.0  0.36572  0.71687  0.75610  1.0000
  H   H2075     1.0  0.30286  0.75733  0.61213  1.0000
  C   C1739     1.0  0.01446  0.74432  0.73034  1.0000
  C   C1740     1.0  0.15096  0.68480  0.92463  1.0000
  H   H2076     1.0  0.11517  0.72052  0.96149  1.0000
  C   C1741     1.0  0.35714  0.70711  0.72427  1.0000
  H   H2077     1.0  0.14884  0.73907  0.91723  1.0000
  H   H2078     1.0  0.19273  0.76620  0.62105  1.0000
  H   H2079     1.0  0.15009  0.70444  0.77132  1.0000
  H   H2080     1.0  0.12621  0.73557  0.79759  1.0000
  H   H2081     1.0  0.28184  0.70474  0.48065  1.0000
  H   H2082     1.0  0.01269  0.70603  0.75514  1.0000
  C   C1742     1.0  0.12096  0.65290  0.81467  1.0000
  H   H2083     1.0  0.20683  0.68620  0.93252  1.0000
  H   H2084     1.0  0.43428  0.60594  0.70391  1.0000
  C   C1743     1.0  0.37581  0.73764  0.74158  1.0000
  H   H2085     1.0  0.33497  0.64061  0.77869  1.0000
  H   H2086     1.0  0.47494  0.62418  0.77122  1.0000
  H   H2087     1.0  0.02550  0.76453  0.70055  1.0000
  C   C1744     1.0  0.37862  0.74876  0.69369  1.0000
  C   C1745     1.0  0.23401  0.59124  0.61000  1.0000
  H   H2088     1.0  0.48646  0.72903  0.72484  1.0000
  Fe  Fe242     1.0  0.38553  0.77348  0.62395  1.0000
  C   C1746     1.0  0.23106  0.59421  0.76452  1.0000
  C   C1747     1.0  0.38546  0.68996  0.82123  1.0000
  C   C1748     1.0  0.36467  0.61204  0.72441  1.0000
  H   H2089     1.0  0.23624  0.75641  0.53558  1.0000
  H   H2090     1.0  0.37437  0.71439  0.70206  1.0000
  H   H2091     1.0  0.36800  0.62393  0.72159  1.0000
  H   H2092     1.0  0.33798  0.70270  0.74614  1.0000
  H   H2093     1.0  0.34196  0.74849  0.64834  1.0000
  S   S474      1.0  0.27219  0.76472  0.54237  1.0000
  H   H2094     1.0  0.24106  0.71123  0.54614  1.0000
  C   C1749     1.0  0.18852  0.59541  0.67092  1.0000
  H   H2095     1.0  0.33405  0.60560  0.75234  1.0000
  C   C1750     1.0  0.11782  0.72470  0.77538  1.0000
  C   C1751     1.0  0.12519  0.73072  0.75852  1.0000
  C   C1752     1.0  0.10019  0.72911  0.78011  1.0000
  C   C1753     1.0  0.11545  0.74097  0.74736  1.0000
  C   C1754     1.0  0.09060  0.73934  0.76885  1.0000
  C   C1755     1.0  0.09821  0.74534  0.75254  1.0000
  H   H2096     1.0  0.13844  0.72776  0.75364  1.0000
  H   H2097     1.0  0.09364  0.72466  0.79261  1.0000
  H   H2098     1.0  0.12127  0.74555  0.73459  1.0000
  H   H2099     1.0  0.07714  0.74262  0.77281  1.0000
  S   S475      1.0  0.20400  0.59648  0.69453  1.0000
  C   C1756     1.0  0.36812  0.68943  0.61318  1.0000
  H   H2100     1.0  0.39522  0.78074  0.65222  1.0000
  H   H2101     1.0  0.39532  0.63718  0.79887  1.0000
  H   H2102     1.0  0.17091  0.61126  0.62715  1.0000
  H   H2103     1.0  0.46798  0.70932  0.70856  1.0000
  H   H2104     1.0  0.39964  0.72335  0.57540  1.0000
  H   H2105     1.0  0.43452  0.76860  0.63024  1.0000
  H   H2106     1.0  0.38668  0.70216  0.82144  1.0000
  H   H2107     1.0  0.18667  0.61632  0.49312  1.0000
  H   H2108     1.0  0.13130  0.71579  0.81133  1.0000
  C   C1757     1.0  0.23657  0.63817  0.69266  1.0000
  S   S476      1.0  0.31987  0.74054  0.52821  1.0000
  C   C1758     1.0  0.12382  0.72278  0.80188  1.0000
  H   H2109     1.0  0.26072  0.71350  0.53278  1.0000
  H   H2110     1.0  0.24261  0.71158  0.73267  1.0000
  C   C1759     1.0  0.22546  0.74176  0.65941  1.0000
  H   H2111     1.0  0.38723  0.73634  0.69476  1.0000
  H   H2112     1.0  0.38382  0.76056  0.72906  1.0000
  H   H2113     1.0  0.29351  0.69014  0.76640  1.0000
  H   H2114     1.0  0.36348  0.69411  0.72572  1.0000
  C   C1760     1.0  0.31064  0.61223  0.77015  1.0000
  H   H2115     1.0  0.30169  0.61500  0.70030  1.0000
  C   C1761     1.0  0.18732  0.58916  0.65791  1.0000
  H   H2116     1.0  0.40811  0.63046  0.81414  1.0000
  N   N118      1.0  0.21737  0.74222  0.89759  1.0000
  C   C1762     1.0  0.22836  0.73935  0.90921  1.0000
  C   C1763     1.0  0.22370  0.75332  0.88183  1.0000
  C   C1764     1.0  0.20068  0.75115  0.90514  1.0000
  C   C1765     1.0  0.21730  0.72619  0.89420  1.0000
  C   C1766     1.0  0.20243  0.72057  0.89673  1.0000
  C   C1767     1.0  0.23247  0.71578  0.88782  1.0000
  C   C1768     1.0  0.20293  0.70541  0.89321  1.0000
  C   C1769     1.0  0.23277  0.70062  0.88449  1.0000
  C   C1770     1.0  0.21804  0.69548  0.88710  1.0000
  H   H2117     1.0  0.24144  0.73353  0.90419  1.0000
  H   H2118     1.0  0.22882  0.75122  0.91185  1.0000
  H   H2119     1.0  0.22406  0.73103  0.92120  1.0000
  H   H2120     1.0  0.23671  0.74805  0.87597  1.0000
  H   H2121     1.0  0.22375  0.76566  0.88373  1.0000
  H   H2122     1.0  0.21587  0.75562  0.87268  1.0000
  H   H2123     1.0  0.19521  0.74368  0.91722  1.0000
  H   H2124     1.0  0.20114  0.76314  0.90753  1.0000
  H   H2125     1.0  0.19192  0.75444  0.89674  1.0000
  H   H2126     1.0  0.19024  0.72775  0.90116  1.0000
  H   H2127     1.0  0.24427  0.71933  0.88518  1.0000
  H   H2128     1.0  0.19152  0.70140  0.89493  1.0000
  H   H2129     1.0  0.24452  0.69286  0.87964  1.0000
  H   H2130     1.0  0.21834  0.68387  0.88411  1.0000
  N   N119      1.0  0.24887  0.70776  0.59906  1.0000
  C   C1771     1.0  0.23233  0.70453  0.60869  1.0000
  C   C1772     1.0  0.24744  0.71495  0.58155  1.0000
  C   C1773     1.0  0.26119  0.69171  0.59943  1.0000
  C   C1774     1.0  0.25418  0.71862  0.60644  1.0000
  C   C1775     1.0  0.25493  0.71404  0.62346  1.0000
  C   C1776     1.0  0.25899  0.73373  0.59712  1.0000
  C   C1777     1.0  0.25996  0.72402  0.63073  1.0000
  C   C1778     1.0  0.26394  0.74362  0.60457  1.0000
  C   C1779     1.0  0.26440  0.73881  0.62132  1.0000
  H   H2131     1.0  0.22310  0.71638  0.60993  1.0000
  H   H2132     1.0  0.22730  0.69762  0.60263  1.0000
  H   H2133     1.0  0.23266  0.69697  0.62143  1.0000
  H   H2134     1.0  0.24333  0.70652  0.57643  1.0000
  H   H2135     1.0  0.25966  0.71675  0.57330  1.0000
  H   H2136     1.0  0.23818  0.72698  0.58042  1.0000
  H   H2137     1.0  0.27381  0.69369  0.59243  1.0000
  H   H2138     1.0  0.26219  0.68489  0.61226  1.0000
  H   H2139     1.0  0.25793  0.68331  0.59353  1.0000
  H   H2140     1.0  0.01452  0.77300  0.68438  1.0000
  C   C1780     1.0  0.05982  0.73576  0.89812  1.0000
  C   C1781     1.0  0.12341  0.69790  0.79408  1.0000
  H   H2141     1.0  0.38044  0.64632  0.82177  1.0000
  C   C1782     1.0  0.16893  0.63569  0.78521  1.0000
  H   H2142     1.0  0.07784  0.67778  0.68846  1.0000
  S   S477      1.0  0.40509  0.77221  0.60044  1.0000
  C   C1783     1.0  0.37032  0.66800  0.83138  1.0000
  S   S478      1.0  0.32308  0.69976  0.53647  1.0000
  C   C1784     1.0  0.39752  0.68057  0.81069  1.0000
  H   H2143     1.0  0.06819  0.73003  0.92866  1.0000
  C   C1785     1.0  0.31146  0.76876  0.62667  1.0000
  N   N120      1.0  0.00027  0.76077  0.70703  1.0000
  S   S479      1.0  0.28999  0.72544  0.52427  1.0000
  S   S480      1.0  0.12029  0.72383  0.92628  1.0000
  H   H2144     1.0  0.29062  0.62254  0.78903  1.0000
  H   H2145     1.0  0.02191  0.75092  0.68987  1.0000
  H   H2146     1.0  0.30529  0.76721  0.57910  1.0000
  C   C1786     1.0  0.47793  0.66480  0.75984  1.0000
  H   H2147     1.0  0.07241  0.73464  0.87248  1.0000
  S   S481      1.0  0.18659  0.71950  0.65140  1.0000
  S   S482      1.0  0.19160  0.74085  0.60287  1.0000
  C   C1787     1.0  0.22259  0.74486  0.64344  1.0000
  C   C1788     1.0  0.13107  0.72917  0.93817  1.0000
  H   H2148     1.0  0.35527  0.68829  0.61615  1.0000
  C   C1789     1.0  0.22265  0.73610  0.52687  1.0000
  C   C1790     1.0  0.10783  0.64962  0.81040  1.0000
  C   C1791     1.0  0.04467  0.73384  0.90980  1.0000
  S   S483      1.0  0.39622  0.63318  0.76410  1.0000
  S   S484      1.0  0.23109  0.68262  0.72967  1.0000
  N   N121      1.0  0.40909  0.65492  0.79876  1.0000
  C   C1792     1.0  0.13486  0.72931  0.96527  1.0000
  H   H2149     1.0  0.09313  0.72498  0.88667  1.0000
  Fe  Fe243     1.0  0.22269  0.66516  0.75358  1.0000
  H   H2150     1.0  0.09137  0.66120  0.69972  1.0000
  C   C1793     1.0  0.26024  0.77203  0.86925  1.0000
  C   C1794     1.0  0.99179  0.67260  0.78074  1.0000
  S   S485      1.0  0.30192  0.77490  0.71459  1.0000
  C   C1795     1.0  0.17560  0.68128  0.93567  1.0000
  N   N122      1.0  0.15837  0.62354  0.79433  1.0000
  C   C1796     1.0  0.39646  0.66440  0.81041  1.0000
  H   H2151     1.0  0.20952  0.73926  0.62822  1.0000
  H   H2152     1.0  0.20399  0.77931  0.95308  1.0000
  C   C1797     1.0  0.03392  0.72724  0.88964  1.0000
  H   H2153     1.0  0.43348  0.58590  0.70210  1.0000
  H   H2154     1.0  0.11010  0.69873  0.80041  1.0000
  H   H2155     1.0  0.25526  0.67185  0.77892  1.0000
  S   S486      1.0  0.17286  0.67265  0.79964  1.0000
  C   C1798     1.0  0.16030  0.77221  0.88939  1.0000
  C   C1799     1.0  0.21128  0.73737  0.64061  1.0000
  H   H2156     1.0  0.06457  0.72489  0.74726  1.0000
  H   H2157     1.0  0.21732  0.74928  0.52156  1.0000
  H   H2158     1.0  0.30044  0.75718  0.55698  1.0000
  C   C1800     1.0  0.20937  0.60728  0.60031  1.0000
  H   H2159     1.0  0.28588  0.70199  0.78231  1.0000
  H   H2160     1.0  0.18073  0.70965  0.93768  1.0000
  C   C1801     1.0  0.05368  0.75048  0.74862  1.0000
  C   C1802     1.0  0.06387  0.73775  0.74078  1.0000
  C   C1803     1.0  0.46308  0.67160  0.75411  1.0000
  C   C1804     1.0  0.39351  0.69422  0.59230  1.0000
  C   C1805     1.0  0.32817  0.63293  0.77619  1.0000
  S   S487      1.0  0.19884  0.65639  0.76117  1.0000
  C   C1806     1.0  0.21689  0.73135  0.67249  1.0000
  C   C1807     1.0  0.36908  0.76165  0.75356  1.0000
  C   C1808     1.0  0.04857  0.72911  0.87790  1.0000
  H   H2161     1.0  0.24562  0.63872  0.68051  1.0000
  H   H2162     1.0  0.99239  0.74981  0.69139  1.0000
  H   H2163     1.0  0.08095  0.73188  0.71846  1.0000
  C   C1809     1.0  0.47420  0.76822  0.63152  1.0000
  H   H2164     1.0  0.09069  0.75334  0.74390  1.0000
  C   C1810     1.0  0.00119  0.67718  0.78917  1.0000
  C   C1811     1.0  0.25920  0.62924  0.70689  1.0000
  H   H2165     1.0  0.41869  0.59579  0.71805  1.0000
  C   C1812     1.0  0.07318  0.74170  0.72452  1.0000
  C   C1813     1.0  0.29369  0.77219  0.57511  1.0000
  H   H2166     1.0  0.29960  0.64021  0.71004  1.0000
  C   C1814     1.0  0.40727  0.63758  0.80133  1.0000
  C   C1815     1.0  0.28510  0.69076  0.77877  1.0000
  Fe  Fe244     1.0  0.19764  0.66001  0.78634  1.0000
  C   C1816     1.0  0.28599  0.61094  0.76222  1.0000
  H   H2167     1.0  0.19831  0.71669  0.68007  1.0000
  H   H2168     1.0  0.02087  0.75412  0.72865  1.0000
  Fe  Fe245     1.0  0.31762  0.72161  0.51552  1.0000
  C   C1817     1.0  0.37578  0.68847  0.62585  1.0000
  H   H2169     1.0  0.25148  0.68922  0.75472  1.0000
  H   H2170     1.0  0.21926  0.72870  0.68480  1.0000
  C   C1818     1.0  0.29084  0.76634  0.56271  1.0000
  C   C1819     1.0  0.31679  0.71845  0.47641  1.0000
  H   H2171     1.0  0.31454  0.59876  0.74284  1.0000
  H   H2172     1.0  0.27670  0.76521  0.48777  1.0000
  H   H2173     1.0  0.24590  0.70793  0.52550  1.0000
  H   H2174     1.0  0.45961  0.68488  0.74953  1.0000
  C   C1820     1.0  0.16490  0.61346  0.80913  1.0000
  C   C1821     1.0  0.27566  0.77233  0.55775  1.0000
  C   C1822     1.0  0.24618  0.60890  0.70218  1.0000
  H   H2175     1.0  0.09517  0.65622  0.81445  1.0000
  H   H2176     1.0  0.11836  0.66203  0.82215  1.0000
  S   S488      1.0  0.23994  0.75029  0.66335  1.0000
  C   C1823     1.0  0.15822  0.68687  0.93642  1.0000
  C   C1824     1.0  0.32727  0.61295  0.76144  1.0000
  H   H2177     1.0  0.05970  0.75211  0.92217  1.0000
  H   H2178     1.0  0.26793  0.74668  0.62712  1.0000
  H   H2179     1.0  0.34583  0.77144  0.58430  1.0000
  H   H2180     1.0  0.38179  0.73160  0.73124  1.0000
  H   H2181     1.0  0.18166  0.62946  0.77954  1.0000
  C   C1825     1.0  0.39129  0.60110  0.68321  1.0000
  H   H2182     1.0  0.04236  0.73541  0.92234  1.0000
  H   H2183     1.0  0.37857  0.75415  0.70409  1.0000
  H   H2184     1.0  0.22944  0.75261  0.63321  1.0000
  C   C1826     1.0  0.11097  0.63792  0.80084  1.0000
  H   H2185     1.0  0.27718  0.61775  0.77159  1.0000
  H   H2186     1.0  0.16027  0.77381  0.96067  1.0000
  N   N123      1.0  0.30141  0.60105  0.76782  1.0000
  H   H2187     1.0  0.28887  0.62023  0.75050  1.0000
  H   H2188     1.0  0.17866  0.60518  0.67538  1.0000
  C   C1827     1.0  0.99535  0.73222  0.72364  1.0000
  H   H2189     1.0  0.16514  0.62129  0.81743  1.0000
  C   C1828     1.0  0.01009  0.71701  0.74550  1.0000
  C   C1829     1.0  0.30067  0.76626  0.77445  1.0000
  C   C1830     1.0  0.12726  0.62941  0.79546  1.0000
  H   H2190     1.0  0.36576  0.75192  0.66691  1.0000
  H   H2191     1.0  0.02411  0.72388  0.88640  1.0000
  C   C1831     1.0  0.42445  0.60953  0.67633  1.0000
  H   H2192     1.0  0.23421  0.60617  0.70209  1.0000
  H   H2193     1.0  0.15001  0.69292  0.94611  1.0000
  H   H2194     1.0  0.26737  0.75516  0.59729  1.0000
  H   H2195     1.0  0.17432  0.65704  0.63561  1.0000
  H   H2196     1.0  0.35958  0.66322  0.83927  1.0000
  H   H2197     1.0  0.17356  0.60610  0.77913  1.0000
  H   H2198     1.0  0.26056  0.75762  0.51552  1.0000
  H   H2199     1.0  0.17656  0.59413  0.65244  1.0000
  C   C1832     1.0  0.06215  0.77096  0.72403  1.0000
  H   H2200     1.0  0.23309  0.65078  0.69534  1.0000
  H   H2201     1.0  0.47158  0.76221  0.57336  1.0000
  H   H2202     1.0  0.17078  0.76995  0.62343  1.0000
  H   H2203     1.0  0.17992  0.62636  0.64268  1.0000
  C   C1833     1.0  0.33479  0.77755  0.57877  1.0000
  Fe  Fe246     1.0  0.24224  0.77559  0.64804  1.0000
  H   H2204     1.0  0.32948  0.76710  0.66648  1.0000
  C   C1834     1.0  0.48262  0.75454  0.62437  1.0000
  H   H2205     1.0  0.27901  0.60286  0.75993  1.0000
  H   H2206     1.0  0.32373  0.77853  0.58924  1.0000
  C   C1835     1.0  0.20143  0.67886  0.94476  1.0000
  C   C1836     1.0  0.32228  0.76696  0.63719  1.0000
  C   C1837     1.0  0.47458  0.71693  0.69792  1.0000
  H   H2207     1.0  0.28774  0.59592  0.79334  1.0000
  C   C1838     1.0  0.45604  0.78079  0.58659  1.0000
  H   H2208     1.0  0.13315  0.77140  0.62606  1.0000
  H   H2209     1.0  0.18427  0.70360  0.95846  1.0000
  H   H2210     1.0  0.17996  0.65962  0.96404  1.0000
  C   C1839     1.0  0.36662  0.58361  0.73985  1.0000
  C   C1840     1.0  0.47124  0.77247  0.57860  1.0000
  H   H2211     1.0  0.15083  0.76506  0.89257  1.0000
  S   S489      1.0  0.20725  0.64586  0.48003  1.0000
  H   H2212     1.0  0.30377  0.77259  0.76169  1.0000
  C   C1841     1.0  0.18066  0.76906  0.62993  1.0000
  H   H2213     1.0  0.29888  0.63562  0.47809  1.0000
  C   C1842     1.0  0.38040  0.59149  0.68345  1.0000
  H   H2214     1.0  0.30266  0.65913  0.48161  1.0000
  C   C1843     1.0  0.99897  0.71800  0.73594  1.0000
  H   H2215     1.0  0.99319  0.70761  0.73805  1.0000
  C   C1844     1.0  0.12614  0.78031  0.61753  1.0000
  N   N124      1.0  0.32220  0.78126  0.64377  1.0000
  C   C1845     1.0  0.17796  0.70109  0.94995  1.0000
  H   H2216     1.0  0.23073  0.68303  0.48165  1.0000
  S   S490      1.0  0.48485  0.77983  0.63747  1.0000
  H   H2217     1.0  0.24039  0.59093  0.49285  1.0000
  C   C1846     1.0  0.28016  0.78033  0.69456  1.0000
  C   C1847     1.0  0.48598  0.77692  0.57789  1.0000
  H   H2218     1.0  0.15247  0.78046  0.91249  1.0000
  H   H2219     1.0  0.44471  0.77692  0.58759  1.0000
  C   C1848     1.0  0.47443  0.73503  0.67078  1.0000
  H   H2220     1.0  0.16291  0.67650  0.96871  1.0000
  H   H2221     1.0  0.48829  0.68794  0.71779  1.0000
  H   H2222     1.0  0.46819  0.74136  0.66063  1.0000
  C   C1849     1.0  0.16123  0.78096  0.90064  1.0000
  S   S491      1.0  0.33408  0.77929  0.73555  1.0000
  C   C1850     1.0  0.19144  0.78034  0.95100  1.0000
  C   C1851     1.0  0.33322  0.77700  0.65565  1.0000
  H   H2223     1.0  0.30291  0.78043  0.62351  1.0000
  H   H2224     1.0  0.29964  0.77784  0.66181  1.0000
  S   S492      1.0  0.15593  0.78047  0.59465  1.0000
  H   H2225     1.0  0.23789  0.58329  0.60070  1.0000
  H   H2226     1.0  0.10280  0.78163  0.63558  1.0000
  H   H2227     1.0  0.30789  0.58238  0.78895  1.0000
  C   C1852     1.0  0.18377  0.78221  0.87002  1.0000
  H   H2228     1.0  0.23343  0.66430  0.47532  1.0000
  S   S493      1.0  0.06263  0.81942  0.19404  1.0000
  S   S494      1.0  0.22361  0.83949  0.99962  1.0000
  H   H2229     1.0  0.10278  0.79568  0.24704  1.0000
  Fe  Fe247     1.0  0.23407  0.82450  0.02202  1.0000
  Fe  Fe248     1.0  0.07726  0.82392  0.21005  1.0000
  S   S495      1.0  0.09736  0.83897  0.20243  1.0000
  H   H2230     1.0  0.00551  0.78818  0.11186  1.0000
  H   H2231     1.0  0.20141  0.85596  0.04310  1.0000
  S   S496      1.0  0.05591  0.82496  0.23215  1.0000
  H   H2232     1.0  0.20859  0.86965  0.01493  1.0000
  Fe  Fe249     1.0  0.12451  0.89486  0.24383  1.0000
  S   S497      1.0  0.15017  0.88372  0.23116  1.0000
  S   S498      1.0  0.10232  0.88331  0.24852  1.0000
  Fe  Fe250     1.0  0.13597  0.92337  0.25007  1.0000
  S   S499      1.0  0.16254  0.91410  0.23821  1.0000
  Fe  Fe251     1.0  0.15200  0.91010  0.21891  1.0000
  S   S500      1.0  0.16218  0.91950  0.19195  1.0000
  Fe  Fe252     1.0  0.15824  0.88865  0.25175  1.0000
  S   S501      1.0  0.17711  0.87024  0.26530  1.0000
  S   S502      1.0  0.12558  0.92094  0.22971  1.0000
  S   S503      1.0  0.13236  0.89815  0.26545  1.0000
  Fe  Fe253     1.0  0.36446  0.78377  0.20543  1.0000
  C   C1853     1.0  0.30695  0.88078  0.21244  1.0000
  H   H2233     1.0  0.34612  0.78415  0.03977  1.0000
  Fe  Fe254     1.0  0.33232  0.81000  0.20505  1.0000
  S   S504      1.0  0.31967  0.79397  0.19829  1.0000
  S   S505      1.0  0.31638  0.83520  0.20780  1.0000
  C   C1854     1.0  0.26469  0.96304  0.13120  1.0000
  H   H2234     1.0  0.29784  0.90614  0.15758  1.0000
  Fe  Fe255     1.0  0.34382  0.78803  0.18033  1.0000
  S   S506      1.0  0.34412  0.78820  0.15409  1.0000
  S   S507      1.0  0.34205  0.78996  0.22542  1.0000
  S   S508      1.0  0.35587  0.80541  0.18575  1.0000
  H   H2235     1.0  0.28158  0.80189  0.25597  1.0000
  C   C1855     1.0  0.18358  0.80113  0.98309  1.0000
  C   C1856     1.0  0.99637  0.79167  0.21443  1.0000
  C   C1857     1.0  0.24998  0.89368  0.03443  1.0000
  C   C1858     1.0  0.17438  0.97042  0.22164  1.0000
  C   C1859     1.0  0.00720  0.80099  0.21519  1.0000
  Fe  Fe256     1.0  0.06578  0.79748  0.23939  1.0000
  S   S509      1.0  0.17644  0.79443  0.27711  1.0000
  C   C1860     1.0  0.32300  0.79094  0.03163  1.0000
  C   C1861     1.0  0.99871  0.78937  0.12431  1.0000
  H   H2236     1.0  0.27382  0.82076  0.99696  1.0000
  H   H2237     1.0  0.11144  0.94737  0.29655  1.0000
  Fe  Fe257     1.0  0.26637  0.80619  0.03287  1.0000
  S   S510      1.0  0.25360  0.79747  0.05921  1.0000
  C   C1862     1.0  0.10552  0.79021  0.28964  1.0000
  Fe  Fe258     1.0  0.23527  0.79241  0.04799  1.0000
  Fe  Fe259     1.0  0.07103  0.79228  0.20457  1.0000
  Fe  Fe260     1.0  0.23827  0.82360  0.05653  1.0000
  S   S511      1.0  0.23020  0.83675  0.07798  1.0000
  Fe  Fe261     1.0  0.25046  0.89230  0.14699  1.0000
  S   S512      1.0  0.24284  0.91012  0.12431  1.0000
  S   S513      1.0  0.23489  0.87867  0.16943  1.0000
  Fe  Fe262     1.0  0.28677  0.89341  0.13380  1.0000
  S   S514      1.0  0.28230  0.91136  0.11021  1.0000
  S   S515      1.0  0.31284  0.88266  0.13750  1.0000
  Fe  Fe263     1.0  0.26031  0.92456  0.12666  1.0000
  Fe  Fe264     1.0  0.26554  0.89520  0.11006  1.0000
  S   S516      1.0  0.26962  0.88569  0.08665  1.0000
  S   S517      1.0  0.26612  0.90765  0.15035  1.0000
  S   S518      1.0  0.27173  0.87647  0.13260  1.0000
  C   C1863     1.0  0.28195  0.95759  0.12922  1.0000
  H   H2238     1.0  0.28014  0.79295  0.99364  1.0000
  H   H2239     1.0  0.28811  0.94647  0.12447  1.0000
  C   C1864     1.0  0.12485  0.97860  0.30270  1.0000
  C   C1865     1.0  0.24211  0.84926  0.08086  1.0000
  C   C1866     1.0  0.23665  0.85639  0.09487  1.0000
  C   C1867     1.0  0.24533  0.86706  0.09717  1.0000
  C   C1868     1.0  0.25948  0.87081  0.08537  1.0000
  C   C1869     1.0  0.26518  0.86332  0.07159  1.0000
  C   C1870     1.0  0.25654  0.85260  0.06932  1.0000
  H   H2240     1.0  0.22554  0.85381  0.10390  1.0000
  H   H2241     1.0  0.24082  0.87274  0.10783  1.0000
  H   H2242     1.0  0.27613  0.86615  0.06240  1.0000
  H   H2243     1.0  0.26090  0.84719  0.05849  1.0000
  C   C1871     1.0  0.24594  0.89706  0.05019  1.0000
  C   C1872     1.0  0.29713  0.83616  0.13353  1.0000
  N   N125      1.0  0.31097  0.83713  0.11867  1.0000
  S   S519      1.0  0.25235  0.83274  0.03075  1.0000
  C   C1873     1.0  0.22030  0.88770  0.05619  1.0000
  H   H2244     1.0  0.99306  0.82400  0.17547  1.0000
  C   C1874     1.0  0.12495  0.80725  0.28657  1.0000
  C   C1875     1.0  0.12469  0.96260  0.30180  1.0000
  H   H2245     1.0  0.08320  0.88045  0.18527  1.0000
  C   C1876     1.0  0.28450  0.78853  0.25738  1.0000
  Fe  Fe265     1.0  0.04198  0.81807  0.21700  1.0000
  H   H2246     1.0  0.31130  0.86260  0.11722  1.0000
  H   H2247     1.0  0.29762  0.82307  0.14057  1.0000
  C   C1877     1.0  0.31524  0.84822  0.18820  1.0000
  C   C1878     1.0  0.32927  0.84773  0.17516  1.0000
  C   C1879     1.0  0.32845  0.85839  0.15963  1.0000
  C   C1880     1.0  0.31347  0.86930  0.15698  1.0000
  C   C1881     1.0  0.29935  0.86974  0.16994  1.0000
  C   C1882     1.0  0.30034  0.85945  0.18564  1.0000
  H   H2248     1.0  0.34093  0.83950  0.17716  1.0000
  H   H2249     1.0  0.33944  0.85811  0.14968  1.0000
  H   H2250     1.0  0.28774  0.87817  0.16802  1.0000
  H   H2251     1.0  0.28955  0.86014  0.19578  1.0000
  H   H2252     1.0  0.13773  0.80755  0.28561  1.0000
  S   S520      1.0  0.21856  0.81772  0.04761  1.0000
  C   C1883     1.0  0.30978  0.85473  0.10962  1.0000
  H   H2253     1.0  0.20402  0.86297  0.05978  1.0000
  H   H2254     1.0  0.28317  0.89693  0.21875  1.0000
  H   H2255     1.0  0.12280  0.80205  0.21136  1.0000
  C   C1884     1.0  0.22443  0.82763  0.98537  1.0000
  H   H2256     1.0  0.30648  0.78839  0.23773  1.0000
  C   C1885     1.0  0.12833  0.79185  0.22085  1.0000
  H   H2257     1.0  0.22614  0.80426  0.00306  1.0000
  H   H2258     1.0  0.24321  0.88492  0.01707  1.0000
  H   H2259     1.0  0.13616  0.83355  0.26118  1.0000
  C   C1886     1.0  0.19032  0.78486  0.03057  1.0000
  H   H2260     1.0  0.10461  0.86402  0.28382  1.0000
  C   C1887     1.0  0.21769  0.87470  0.01817  1.0000
  C   C1888     1.0  0.18249  0.90839  0.18581  1.0000
  C   C1889     1.0  0.19246  0.91439  0.17059  1.0000
  C   C1890     1.0  0.20870  0.90545  0.16556  1.0000
  C   C1891     1.0  0.21482  0.89032  0.17558  1.0000
  C   C1892     1.0  0.20477  0.88428  0.19073  1.0000
  C   C1893     1.0  0.18870  0.89339  0.19594  1.0000
  H   H2261     1.0  0.18772  0.92603  0.16276  1.0000
  H   H2262     1.0  0.21642  0.91023  0.15391  1.0000
  H   H2263     1.0  0.20946  0.87260  0.19845  1.0000
  H   H2264     1.0  0.18113  0.88875  0.20775  1.0000
  C   C1894     1.0  0.16388  0.95938  0.27054  1.0000
  C   C1895     1.0  0.15456  0.95060  0.26626  1.0000
  H   H2265     1.0  0.17503  0.95271  0.27505  1.0000
  H   H2266     1.0  0.15849  0.93725  0.26759  1.0000
  C   C1896     1.0  0.17676  0.84920  0.26859  1.0000
  C   C1897     1.0  0.18497  0.83744  0.28028  1.0000
  C   C1898     1.0  0.18514  0.82051  0.28285  1.0000
  C   C1899     1.0  0.17721  0.81532  0.27360  1.0000
  C   C1900     1.0  0.16946  0.82698  0.26157  1.0000
  C   C1901     1.0  0.16907  0.84392  0.25917  1.0000
  H   H2267     1.0  0.19106  0.84146  0.28751  1.0000
  H   H2268     1.0  0.19119  0.81154  0.29215  1.0000
  H   H2269     1.0  0.16401  0.82282  0.25393  1.0000
  H   H2270     1.0  0.16313  0.85282  0.24983  1.0000
  C   C1902     1.0  0.20963  0.86173  0.04675  1.0000
  H   H2271     1.0  0.20920  0.88522  0.06525  1.0000
  C   C1903     1.0  0.19219  0.96346  0.19094  1.0000
  H   H2272     1.0  0.20862  0.79484  0.03511  1.0000
  C   C1904     1.0  0.32162  0.87821  0.20052  1.0000
  H   H2273     1.0  0.11644  0.84341  0.25604  1.0000
  C   C1905     1.0  0.09892  0.85057  0.21586  1.0000
  C   C1906     1.0  0.11328  0.85685  0.21266  1.0000
  C   C1907     1.0  0.11461  0.86667  0.22274  1.0000
  C   C1908     1.0  0.10145  0.87053  0.23592  1.0000
  C   C1909     1.0  0.08730  0.86389  0.23938  1.0000
  C   C1910     1.0  0.08607  0.85389  0.22944  1.0000
  H   H2274     1.0  0.12328  0.85433  0.20217  1.0000
  H   H2275     1.0  0.12561  0.87156  0.22013  1.0000
  H   H2276     1.0  0.07709  0.86675  0.24960  1.0000
  H   H2277     1.0  0.07493  0.84919  0.23202  1.0000
  C   C1911     1.0  0.13979  0.95900  0.26100  1.0000
  C   C1912     1.0  0.23919  0.88739  0.02938  1.0000
  H   H2278     1.0  0.08059  0.80324  0.28781  1.0000
  H   H2279     1.0  0.19724  0.90216  0.02829  1.0000
  H   H2280     1.0  0.26303  0.79813  0.98368  1.0000
  H   H2281     1.0  0.33347  0.80890  0.10857  1.0000
  H   H2282     1.0  0.18878  0.81663  0.99614  1.0000
  H   H2283     1.0  0.11016  0.80945  0.25420  1.0000
  H   H2284     1.0  0.37676  0.78417  0.26522  1.0000
  C   C1913     1.0  0.22392  0.88426  0.04016  1.0000
  S   S521      1.0  0.01537  0.83031  0.21450  1.0000
  C   C1914     1.0  0.25689  0.97788  0.13672  1.0000
  H   H2285     1.0  0.12949  0.85106  0.29113  1.0000
  H   H2286     1.0  0.28473  0.84101  0.13028  1.0000
  N   N126      1.0  0.22869  0.83774  0.23859  1.0000
  C   C1915     1.0  0.21514  0.85048  0.23175  1.0000
  C   C1916     1.0  0.22304  0.82181  0.24496  1.0000
  C   C1917     1.0  0.23099  0.84300  0.25273  1.0000
  C   C1918     1.0  0.24466  0.83542  0.22627  1.0000
  C   C1919     1.0  0.24685  0.84487  0.20965  1.0000
  C   C1920     1.0  0.25873  0.82344  0.23083  1.0000
  C   C1921     1.0  0.26217  0.84236  0.19842  1.0000
  C   C1922     1.0  0.27402  0.82111  0.21952  1.0000
  C   C1923     1.0  0.27572  0.83050  0.20335  1.0000
  H   H2287     1.0  0.21240  0.84707  0.22135  1.0000
  H   H2288     1.0  0.20331  0.85196  0.24126  1.0000
  H   H2289     1.0  0.21824  0.86299  0.22739  1.0000
  H   H2290     1.0  0.23152  0.81208  0.25220  1.0000
  H   H2291     1.0  0.22221  0.81681  0.23463  1.0000
  H   H2292     1.0  0.21057  0.82331  0.25349  1.0000
  H   H2293     1.0  0.21901  0.84565  0.26188  1.0000
  H   H2294     1.0  0.25451  0.90152  0.05426  1.0000
  H   H2295     1.0  0.23602  0.85450  0.24837  1.0000
  H   H2296     1.0  0.23702  0.85440  0.20492  1.0000
  H   H2297     1.0  0.25803  0.81588  0.24327  1.0000
  H   H2298     1.0  0.26358  0.84987  0.18587  1.0000
  H   H2299     1.0  0.28474  0.81217  0.22333  1.0000
  H   H2300     1.0  0.28767  0.82877  0.19471  1.0000
  N   N127      1.0  0.13130  0.90092  0.17629  1.0000
  C   C1924     1.0  0.13228  0.91870  0.17193  1.0000
  C   C1925     1.0  0.14269  0.89148  0.18753  1.0000
  C   C1926     1.0  0.13749  0.89463  0.16072  1.0000
  C   C1927     1.0  0.11410  0.89915  0.18483  1.0000
  C   C1928     1.0  0.10537  0.89000  0.17997  1.0000
  C   C1929     1.0  0.10588  0.90598  0.19903  1.0000
  C   C1930     1.0  0.08941  0.88799  0.18878  1.0000
  C   C1931     1.0  0.08988  0.90399  0.20766  1.0000
  C   C1932     1.0  0.08168  0.89499  0.20257  1.0000
  H   H2301     1.0  0.14495  0.92049  0.16490  1.0000
  H   H2302     1.0  0.12315  0.92646  0.16433  1.0000
  H   H2303     1.0  0.12996  0.92396  0.18304  1.0000
  H   H2304     1.0  0.15586  0.89231  0.18159  1.0000
  H   H2305     1.0  0.14216  0.87811  0.19135  1.0000
  H   H2306     1.0  0.13954  0.89636  0.19900  1.0000
  H   H2307     1.0  0.12924  0.90104  0.15183  1.0000
  H   H2308     1.0  0.15021  0.89674  0.15434  1.0000
  H   H2309     1.0  0.13854  0.88097  0.16318  1.0000
  H   H2310     1.0  0.11070  0.88388  0.16969  1.0000
  H   H2311     1.0  0.11194  0.91247  0.20393  1.0000
  C   C1933     1.0  0.30617  0.79027  0.03603  1.0000
  H   H2312     1.0  0.08411  0.90887  0.21879  1.0000
  S   S522      1.0  0.08764  0.79675  0.21805  1.0000
  N   N128      1.0  0.21208  0.87773  0.03528  1.0000
  S   S523      1.0  0.25480  0.78885  0.27990  1.0000
  H   H2313     1.0  0.16735  0.97238  0.23374  1.0000
  S   S524      1.0  0.24946  0.79883  0.02191  1.0000
  S   S525      1.0  0.25271  0.95245  0.12556  1.0000
  H   H2314     1.0  0.23002  0.78750  0.98252  1.0000
  H   H2315     1.0  0.06953  0.89295  0.20965  1.0000
  H   H2316     1.0  0.26170  0.89572  0.02619  1.0000
  C   C1934     1.0  0.29131  0.96698  0.13257  1.0000
  H   H2317     1.0  0.17799  0.94468  0.19637  1.0000
  C   C1935     1.0  0.09292  0.80443  0.28776  1.0000
  H   H2318     1.0  0.08588  0.83063  0.28385  1.0000
  C   C1936     1.0  0.18507  0.81622  0.98520  1.0000
  H   H2319     1.0  0.22960  0.86525  0.01671  1.0000
  H   H2320     1.0  0.32972  0.92103  0.14169  1.0000
  C   C1937     1.0  0.29462  0.89505  0.20948  1.0000
  C   C1938     1.0  0.27661  0.79762  0.98136  1.0000
  H   H2321     1.0  0.22837  0.89618  0.07351  1.0000
  H   H2322     1.0  0.26462  0.97511  0.09332  1.0000
  C   C1939     1.0  0.00195  0.81819  0.21378  1.0000
  H   H2323     1.0  0.30506  0.87146  0.22385  1.0000
  H   H2324     1.0  0.33534  0.88648  0.17654  1.0000
  H   H2325     1.0  0.28689  0.91752  0.19268  1.0000
  H   H2326     1.0  0.37114  0.78820  0.23735  1.0000
  H   H2327     1.0  0.28707  0.92465  0.16508  1.0000
  H   H2328     1.0  0.27449  0.83807  0.97989  1.0000
  H   H2329     1.0  0.14122  0.78638  0.21482  1.0000
  H   H2330     1.0  0.23971  0.83329  0.25971  1.0000
  H   H2331     1.0  0.13823  0.78253  0.08589  1.0000
  H   H2332     1.0  0.13735  0.81720  0.23960  1.0000
  H   H2333     1.0  0.12802  0.85521  0.26113  1.0000
  C   C1940     1.0  0.10126  0.85195  0.28523  1.0000
  S   S526      1.0  0.07227  0.78404  0.26400  1.0000
  C   C1941     1.0  0.23114  0.89406  0.06105  1.0000
  H   H2334     1.0  0.21926  0.88632  0.00872  1.0000
  C   C1942     1.0  0.20384  0.78387  0.03720  1.0000
  C   C1943     1.0  0.09616  0.82014  0.28551  1.0000
  H   H2335     1.0  0.31956  0.85585  0.09798  1.0000
  C   C1944     1.0  0.22639  0.81036  0.99025  1.0000
  H   H2336     1.0  0.32327  0.93197  0.17487  1.0000
  H   H2337     1.0  0.30116  0.93809  0.17667  1.0000
  H   H2338     1.0  0.24355  0.98224  0.13819  1.0000
  S   S527      1.0  0.12650  0.94828  0.25764  1.0000
  N   N129      1.0  0.11625  0.83853  0.28194  1.0000
  H   H2339     1.0  0.30471  0.96289  0.13055  1.0000
  C   C1945     1.0  0.12758  0.83838  0.29238  1.0000
  C   C1946     1.0  0.28354  0.98188  0.13798  1.0000
  C   C1947     1.0  0.11228  0.82201  0.28515  1.0000
  C   C1948     1.0  0.18027  0.95446  0.20066  1.0000
  H   H2340     1.0  0.33098  0.86684  0.20276  1.0000
  H   H2341     1.0  0.19917  0.96057  0.17908  1.0000
  H   H2342     1.0  0.16206  0.95098  0.22354  1.0000
  H   H2343     1.0  0.13604  0.98000  0.30514  1.0000
  H   H2344     1.0  0.09371  0.84875  0.29801  1.0000
  H   H2345     1.0  0.32724  0.83956  0.13276  1.0000
  C   C1949     1.0  0.00918  0.79225  0.17291  1.0000
  H   H2346     1.0  0.12256  0.83344  0.30572  1.0000
  H   H2347     1.0  0.32816  0.81867  0.13228  1.0000
  H   H2348     1.0  0.14033  0.83089  0.28880  1.0000
  H   H2349     1.0  0.09326  0.85472  0.27615  1.0000
  H   H2350     1.0  0.15772  0.79327  0.24667  1.0000
  C   C1950     1.0  0.15103  0.78336  0.25167  1.0000
  S   S528      1.0  0.29360  0.79984  0.02146  1.0000
  H   H2351     1.0  0.01962  0.79484  0.21685  1.0000
  C   C1951     1.0  0.19580  0.88974  0.03624  1.0000
  C   C1952     1.0  0.13478  0.97630  0.25946  1.0000
  H   H2352     1.0  0.25757  0.82774  0.98554  1.0000
  H   H2353     1.0  0.18674  0.88550  0.03209  1.0000
  H   H2354     1.0  0.29767  0.84357  0.14213  1.0000
  C   C1953     1.0  0.22830  0.80088  0.97862  1.0000
  H   H2355     1.0  0.01125  0.82500  0.14016  1.0000
  C   C1954     1.0  0.12462  0.84288  0.26430  1.0000
  H   H2356     1.0  0.31463  0.94242  0.15686  1.0000
  N   N130      1.0  0.00225  0.80581  0.16008  1.0000
  C   C1955     1.0  0.06007  0.78967  0.15049  1.0000
  H   H2357     1.0  0.01945  0.82085  0.15836  1.0000
  C   C1956     1.0  0.01552  0.81497  0.15042  1.0000
  H   H2358     1.0  0.32956  0.89969  0.15072  1.0000
  H   H2359     1.0  0.01462  0.79702  0.18058  1.0000
  C   C1957     1.0  0.11115  0.95964  0.29799  1.0000
  C   C1958     1.0  0.12149  0.79162  0.28907  1.0000
  H   H2360     1.0  0.01541  0.80200  0.12705  1.0000
  H   H2361     1.0  0.07177  0.79856  0.16465  1.0000
  C   C1959     1.0  0.15872  0.97666  0.26924  1.0000
  H   H2362     1.0  0.02698  0.80653  0.14515  1.0000
  H   H2363     1.0  0.99952  0.78573  0.18157  1.0000
  H   H2364     1.0  0.33778  0.83230  0.11417  1.0000
  H   H2365     1.0  0.18469  0.79664  0.02359  1.0000
  N   N131      1.0  0.12825  0.79798  0.23542  1.0000
  C   C1960     1.0  0.33317  0.78339  0.04314  1.0000
  C   C1961     1.0  0.11078  0.80490  0.24310  1.0000
  C   C1962     1.0  0.32675  0.83161  0.12464  1.0000
  C   C1963     1.0  0.99605  0.79849  0.14985  1.0000
  H   H2366     1.0  0.30092  0.92603  0.14528  1.0000
  H   H2367     1.0  0.05932  0.80094  0.14093  1.0000
  H   H2368     1.0  0.13545  0.95255  0.30339  1.0000
  H   H2369     1.0  0.34010  0.91075  0.15834  1.0000
  H   H2370     1.0  0.22174  0.85273  0.04694  1.0000
  C   C1964     1.0  0.17135  0.95798  0.21596  1.0000
  C   C1965     1.0  0.30974  0.82707  0.10770  1.0000
  C   C1966     1.0  0.29561  0.83125  0.10056  1.0000
  C   C1967     1.0  0.32230  0.81306  0.10375  1.0000
  C   C1968     1.0  0.29421  0.82207  0.09005  1.0000
  C   C1969     1.0  0.32072  0.80391  0.09327  1.0000
  C   C1970     1.0  0.30676  0.80844  0.08639  1.0000
  H   H2371     1.0  0.29755  0.86053  0.10614  1.0000
  H   H2372     1.0  0.18993  0.89147  0.04909  1.0000
  H   H2373     1.0  0.28552  0.84174  0.10298  1.0000
  H   H2374     1.0  0.28334  0.82561  0.08466  1.0000
  H   H2375     1.0  0.15002  0.80795  0.22235  1.0000
  H   H2376     1.0  0.30572  0.80138  0.07816  1.0000
  N   N132      1.0  0.31328  0.91658  0.16587  1.0000
  C   C1971     1.0  0.32889  0.91176  0.15370  1.0000
  C   C1972     1.0  0.29917  0.91848  0.15817  1.0000
  C   C1973     1.0  0.31309  0.93294  0.16871  1.0000
  C   C1974     1.0  0.31152  0.90432  0.18188  1.0000
  C   C1975     1.0  0.32393  0.88968  0.18539  1.0000
  C   C1976     1.0  0.29687  0.90673  0.19448  1.0000
  C   C1977     1.0  0.00432  0.79729  0.13327  1.0000
  H   H2377     1.0  0.33042  0.79324  0.09038  1.0000
  S   S529      1.0  0.04985  0.79063  0.22668  1.0000
  H   H2378     1.0  0.18795  0.97791  0.24342  1.0000
  H   H2379     1.0  0.23812  0.78314  0.09539  1.0000
  C   C1978     1.0  0.18629  0.97997  0.21202  1.0000
  H   H2380     1.0  0.08706  0.97019  0.29232  1.0000
  H   H2381     1.0  0.20839  0.97592  0.23047  1.0000
  C   C1979     1.0  0.13586  0.78400  0.24750  1.0000
  H   H2382     1.0  0.10471  0.81550  0.23433  1.0000
  H   H2383     1.0  0.32816  0.79750  0.01939  1.0000
  C   C1980     1.0  0.27121  0.82570  0.98431  1.0000
  H   H2384     1.0  0.30242  0.80709  0.98329  1.0000
  H   H2385     1.0  0.18609  0.79042  0.99291  1.0000
  H   H2386     1.0  0.13074  0.82229  0.22044  1.0000
  C   C1981     1.0  0.19521  0.97607  0.19644  1.0000
  C   C1982     1.0  0.06709  0.78834  0.16390  1.0000
  C   C1983     1.0  0.13706  0.81193  0.22925  1.0000
  C   C1984     1.0  0.09749  0.97258  0.29545  1.0000
  H   H2387     1.0  0.01922  0.78278  0.16717  1.0000
  S   S530      1.0  0.05307  0.80831  0.69163  1.0000
  H   H2388     1.0  0.11870  0.87122  0.65443  1.0000
  C   C1985     1.0  0.00845  0.79639  0.65658  1.0000
  H   H2389     1.0  0.16618  0.93537  0.73351  1.0000
  Fe  Fe266     1.0  0.25335  0.90795  0.78023  1.0000
  S   S531      1.0  0.23256  0.89747  0.77913  1.0000
  S   S532      1.0  0.27702  0.88863  0.78202  1.0000
  Fe  Fe267     1.0  0.23242  0.94321  0.77881  1.0000
  S   S533      1.0  0.21001  0.93512  0.77777  1.0000
  H   H2390     1.0  0.18388  0.84223  0.97465  1.0000
  Fe  Fe268     1.0  0.21726  0.91296  0.79744  1.0000
  S   S534      1.0  0.19767  0.90182  0.81757  1.0000
  Fe  Fe269     1.0  0.22733  0.92038  0.75967  1.0000
  S   S535      1.0  0.22001  0.92230  0.73594  1.0000
  S   S536      1.0  0.23840  0.92202  0.80014  1.0000
  S   S537      1.0  0.24937  0.92990  0.75910  1.0000
  Fe  Fe270     1.0  0.21827  0.83693  0.89447  1.0000
  H   H2391     1.0  0.15225  0.92072  0.72208  1.0000
  S   S538      1.0  0.22113  0.86336  0.88431  1.0000
  C   C1986     1.0  0.01578  0.82495  0.61677  1.0000
  C   C1987     1.0  0.18505  0.96583  0.69672  1.0000
  S   S539      1.0  0.20255  0.82646  0.91879  1.0000
  Fe  Fe271     1.0  0.06707  0.82509  0.67085  1.0000
  S   S540      1.0  0.08684  0.80430  0.66181  1.0000
  S   S541      1.0  0.07375  0.84892  0.67074  1.0000
  Fe  Fe272     1.0  0.03890  0.80809  0.67321  1.0000
  H   H2392     1.0  0.00574  0.78559  0.63774  1.0000
  C   C1988     1.0  0.22002  0.97988  0.70472  1.0000
  S   S542      1.0  0.25713  0.82069  0.66520  1.0000
  Fe  Fe273     1.0  0.06999  0.80488  0.64583  1.0000
  S   S543      1.0  0.07845  0.80580  0.61852  1.0000
  S   S544      1.0  0.05109  0.82689  0.65337  1.0000
  Fe  Fe274     1.0  0.13821  0.90641  0.70390  1.0000
  S   S545      1.0  0.13899  0.88416  0.72508  1.0000
  Fe  Fe275     1.0  0.16112  0.88634  0.67892  1.0000
  S   S546      1.0  0.16404  0.86264  0.69807  1.0000
  S   S547      1.0  0.17309  0.88908  0.65183  1.0000
  Fe  Fe276     1.0  0.13647  0.87058  0.70720  1.0000
  S   S548      1.0  0.12084  0.85120  0.71508  1.0000
  Fe  Fe277     1.0  0.16632  0.87842  0.71395  1.0000
  S   S549      1.0  0.18513  0.86877  0.73017  1.0000
  S   S550      1.0  0.13334  0.89335  0.68688  1.0000
  S   S551      1.0  0.16571  0.90164  0.69385  1.0000
  S   S552      1.0  0.26632  0.78306  0.64393  1.0000
  C   C1989     1.0  0.12004  0.86421  0.64482  1.0000
  C   C1990     1.0  0.35914  0.80911  0.66037  1.0000
  Fe  Fe278     1.0  0.22605  0.80896  0.63012  1.0000
  S   S553      1.0  0.22649  0.79843  0.65693  1.0000
  S   S554      1.0  0.20281  0.82468  0.62214  1.0000
  C   C1991     1.0  0.04335  0.82906  0.60114  1.0000
  C   C1992     1.0  0.33926  0.80439  0.57773  1.0000
  C   C1993     1.0  0.37178  0.79832  0.65176  1.0000
  C   C1994     1.0  0.26893  0.81215  0.94949  1.0000
  S   S555      1.0  0.24874  0.81949  0.62411  1.0000
  C   C1995     1.0  0.34571  0.82317  0.59692  1.0000
  H   H2393     1.0  0.24012  0.85285  0.66595  1.0000
  N   N133      1.0  0.22039  0.86441  0.68374  1.0000
  H   H2394     1.0  0.35228  0.80431  0.54563  1.0000
  Fe  Fe279     1.0  0.31128  0.82547  0.72808  1.0000
  S   S556      1.0  0.29791  0.80556  0.74376  1.0000
  S   S557      1.0  0.29807  0.85224  0.72218  1.0000
  Fe  Fe280     1.0  0.34423  0.80142  0.72008  1.0000
  C   C1996     1.0  0.37194  0.79909  0.68423  1.0000
  C   C1997     1.0  0.19333  0.78255  0.64263  1.0000
  C   C1998     1.0  0.13102  0.94438  0.79552  1.0000
  H   H2395     1.0  0.12170  0.87302  0.63255  1.0000
  H   H2396     1.0  0.24767  0.84106  0.69199  1.0000
  S   S558      1.0  0.32303  0.81208  0.70727  1.0000
  S   S559      1.0  0.33350  0.81643  0.73978  1.0000
  H   H2397     1.0  0.30475  0.79748  0.65927  1.0000
  H   H2398     1.0  0.15780  0.95605  0.80750  1.0000
  C   C1999     1.0  0.03976  0.80221  0.61810  1.0000
  S   S560      1.0  0.31924  0.78401  0.78099  1.0000
  H   H2399     1.0  0.22687  0.95667  0.68641  1.0000
  H   H2400     1.0  0.22716  0.84243  0.82366  1.0000
  H   H2401     1.0  0.26336  0.78499  0.67835  1.0000
  C   C2000     1.0  0.13367  0.94243  0.71520  1.0000
  H   H2402     1.0  0.28357  0.78816  0.97384  1.0000
  C   C2001     1.0  0.22935  0.86357  0.66647  1.0000
  C   C2002     1.0  0.20590  0.87868  0.68295  1.0000
  H   H2403     1.0  0.04929  0.86263  0.70875  1.0000
  S   S561      1.0  0.12344  0.93191  0.70741  1.0000
  C   C2003     1.0  0.18229  0.83068  0.97311  1.0000
  H   H2404     1.0  0.14447  0.78885  0.68792  1.0000
  H   H2405     1.0  0.27301  0.83584  0.77228  1.0000
  H   H2406     1.0  0.17515  0.88696  0.76428  1.0000
  Fe  Fe281     1.0  0.22569  0.80715  0.92233  1.0000
  H   H2407     1.0  0.18099  0.87724  0.79072  1.0000
  N   N134      1.0  0.03198  0.81728  0.60720  1.0000
  H   H2408     1.0  0.14938  0.90582  0.81325  1.0000
  H   H2409     1.0  0.15936  0.88327  0.79980  1.0000
  H   H2410     1.0  0.22113  0.86219  0.65911  1.0000
  C   C2004     1.0  0.16622  0.89836  0.76760  1.0000
  C   C2005     1.0  0.24879  0.83748  0.84342  1.0000
  C   C2006     1.0  0.18224  0.87103  0.64394  1.0000
  C   C2007     1.0  0.18719  0.85561  0.65420  1.0000
  C   C2008     1.0  0.19420  0.84138  0.64745  1.0000
  C   C2009     1.0  0.19571  0.84250  0.63054  1.0000
  C   C2010     1.0  0.19063  0.85789  0.62035  1.0000
  C   C2011     1.0  0.18424  0.87217  0.62697  1.0000
  H   H2411     1.0  0.18564  0.85465  0.66729  1.0000
  H   H2412     1.0  0.19799  0.82948  0.65541  1.0000
  H   H2413     1.0  0.19182  0.85881  0.60728  1.0000
  H   H2414     1.0  0.18050  0.88408  0.61897  1.0000
  H   H2415     1.0  0.13749  0.95660  0.76987  1.0000
  C   C2012     1.0  0.27129  0.83079  0.78553  1.0000
  H   H2416     1.0  0.25794  0.85404  0.79150  1.0000
  H   H2417     1.0  0.18655  0.91802  0.76486  1.0000
  C   C2013     1.0  0.17970  0.79838  0.62051  1.0000
  H   H2418     1.0  0.23429  0.87495  0.66002  1.0000
  H   H2419     1.0  0.11190  0.83562  0.63940  1.0000
  C   C2014     1.0  0.09981  0.79791  0.61204  1.0000
  C   C2015     1.0  0.10782  0.80369  0.59571  1.0000
  Fe  Fe282     1.0  0.32104  0.79529  0.75394  1.0000
  H   H2420     1.0  0.19719  0.87712  0.67624  1.0000
  C   C2016     1.0  0.13562  0.96783  0.72158  1.0000
  C   C2017     1.0  0.26878  0.80771  0.67949  1.0000
  H   H2421     1.0  0.10079  0.81274  0.58721  1.0000
  H   H2422     1.0  0.20973  0.89056  0.67614  1.0000
  H   H2423     1.0  0.30230  0.82469  0.96642  1.0000
  H   H2424     1.0  0.45019  0.78356  0.63946  1.0000
  C   C2018     1.0  0.08692  0.84912  0.68315  1.0000
  C   C2019     1.0  0.09228  0.83508  0.69485  1.0000
  C   C2020     1.0  0.10277  0.83582  0.70455  1.0000
  C   C2021     1.0  0.10827  0.85044  0.70230  1.0000
  C   C2022     1.0  0.10317  0.86435  0.69035  1.0000
  C   C2023     1.0  0.09227  0.86378  0.68106  1.0000
  H   H2425     1.0  0.08812  0.82376  0.69663  1.0000
  H   H2426     1.0  0.10659  0.82505  0.71386  1.0000
  H   H2427     1.0  0.10720  0.87568  0.68864  1.0000
  H   H2428     1.0  0.08793  0.87475  0.67220  1.0000
  C   C2024     1.0  0.22108  0.95335  0.69983  1.0000
  H   H2429     1.0  0.19003  0.79009  0.93958  1.0000
  H   H2430     1.0  0.99929  0.81848  0.60503  1.0000
  C   C2025     1.0  0.22784  0.80858  0.96205  1.0000
  C   C2026     1.0  0.22522  0.82593  0.95722  1.0000
  C   C2027     1.0  0.48595  0.78977  0.58540  1.0000
  C   C2028     1.0  0.17350  0.79025  0.89664  1.0000
  H   H2431     1.0  0.02417  0.82301  0.58411  1.0000
  H   H2432     1.0  0.22483  0.83199  0.94445  1.0000
  H   H2433     1.0  0.32839  0.80537  0.63424  1.0000
  C   C2029     1.0  0.21028  0.90720  0.73500  1.0000
  C   C2030     1.0  0.21435  0.89065  0.74340  1.0000
  C   C2031     1.0  0.20665  0.87882  0.74182  1.0000
  C   C2032     1.0  0.19476  0.88359  0.73202  1.0000
  C   C2033     1.0  0.19060  0.90018  0.72389  1.0000
  C   C2034     1.0  0.19851  0.91188  0.72517  1.0000
  H   H2434     1.0  0.22371  0.88689  0.75074  1.0000
  H   H2435     1.0  0.21001  0.86595  0.74806  1.0000
  H   H2436     1.0  0.18128  0.90408  0.71662  1.0000
  H   H2437     1.0  0.19532  0.92464  0.71864  1.0000
  C   C2035     1.0  0.28260  0.87826  0.76562  1.0000
  C   C2036     1.0  0.27679  0.88589  0.75106  1.0000
  C   C2037     1.0  0.28167  0.87785  0.73776  1.0000
  C   C2038     1.0  0.29202  0.86194  0.73911  1.0000
  C   C2039     1.0  0.29761  0.85414  0.75379  1.0000
  C   C2040     1.0  0.29302  0.86237  0.76698  1.0000
  H   H2438     1.0  0.26877  0.89814  0.74989  1.0000
  H   H2439     1.0  0.27741  0.88402  0.72642  1.0000
  H   H2440     1.0  0.30560  0.84187  0.75495  1.0000
  H   H2441     1.0  0.29748  0.85638  0.77825  1.0000
  C   C2041     1.0  0.20438  0.89085  0.83597  1.0000
  C   C2042     1.0  0.19576  0.87917  0.84730  1.0000
  C   C2043     1.0  0.20111  0.87025  0.86198  1.0000
  C   C2044     1.0  0.21473  0.87343  0.86561  1.0000
  C   C2045     1.0  0.22325  0.88516  0.85433  1.0000
  C   C2046     1.0  0.21829  0.89360  0.83942  1.0000
  H   H2442     1.0  0.18501  0.87693  0.84471  1.0000
  H   H2443     1.0  0.19440  0.86128  0.87070  1.0000
  H   H2444     1.0  0.23376  0.88768  0.85712  1.0000
  H   H2445     1.0  0.22504  0.90252  0.83083  1.0000
  C   C2047     1.0  0.00012  0.80466  0.66948  1.0000
  H   H2446     1.0  0.19566  0.95243  0.72597  1.0000
  H   H2447     1.0  0.31523  0.82238  0.57945  1.0000
  H   H2448     1.0  0.18530  0.95359  0.70460  1.0000
  S   S562      1.0  0.24195  0.81888  0.89915  1.0000
  C   C2048     1.0  0.38522  0.78916  0.67520  1.0000
  S   S563      1.0  0.01102  0.81031  0.68102  1.0000
  Fe  Fe283     1.0  0.07174  0.78746  0.68119  1.0000
  C   C2049     1.0  0.16263  0.78779  0.64705  1.0000
  C   C2050     1.0  0.28673  0.80471  0.69797  1.0000
  C   C2051     1.0  0.13645  0.84176  0.63139  1.0000
  H   H2449     1.0  0.34964  0.81809  0.68288  1.0000
  H   H2450     1.0  0.16729  0.90820  0.75605  1.0000
  H   H2451     1.0  0.03745  0.84114  0.59397  1.0000
  H   H2452     1.0  0.44370  0.79953  0.60072  1.0000
  H   H2453     1.0  0.11695  0.96622  0.70989  1.0000
  H   H2454     1.0  0.99996  0.84420  0.64977  1.0000
  C   C2052     1.0  0.26604  0.78985  0.57793  1.0000
  H   H2455     1.0  0.02361  0.80210  0.59621  1.0000
  C   C2053     1.0  0.27596  0.82094  0.95667  1.0000
  H   H2456     1.0  0.04215  0.80516  0.62895  1.0000
  H   H2457     1.0  0.14090  0.82108  0.59449  1.0000
  H   H2458     1.0  0.24832  0.96195  0.79913  1.0000
  C   C2054     1.0  0.14937  0.95909  0.72851  1.0000
  Fe  Fe284     1.0  0.26254  0.79483  0.61823  1.0000
  N   N135      1.0  0.35138  0.85617  0.70417  1.0000
  C   C2055     1.0  0.33845  0.85210  0.69846  1.0000
  C   C2056     1.0  0.35800  0.86980  0.69146  1.0000
  C   C2057     1.0  0.36525  0.84125  0.70518  1.0000
  C   C2058     1.0  0.34399  0.86157  0.72011  1.0000
  C   C2059     1.0  0.34968  0.85321  0.73495  1.0000
  C   C2060     1.0  0.33065  0.87571  0.72109  1.0000
  C   C2061     1.0  0.34243  0.85878  0.74973  1.0000
  C   C2062     1.0  0.32360  0.88122  0.73589  1.0000
  C   C2063     1.0  0.32948  0.87278  0.75018  1.0000
  H   H2459     1.0  0.32799  0.86291  0.69622  1.0000
  H   H2460     1.0  0.34356  0.84758  0.68671  1.0000
  H   H2461     1.0  0.33288  0.84225  0.70794  1.0000
  H   H2462     1.0  0.34802  0.88096  0.68869  1.0000
  H   H2463     1.0  0.36429  0.86596  0.67947  1.0000
  H   H2464     1.0  0.36721  0.87375  0.69566  1.0000
  H   H2465     1.0  0.37038  0.83731  0.69310  1.0000
  H   H2466     1.0  0.37579  0.84354  0.70880  1.0000
  H   H2467     1.0  0.36104  0.83032  0.71419  1.0000
  H   H2468     1.0  0.35955  0.84220  0.73558  1.0000
  H   H2469     1.0  0.32530  0.88246  0.71050  1.0000
  H   H2470     1.0  0.34671  0.85206  0.76100  1.0000
  H   H2471     1.0  0.31312  0.89178  0.73647  1.0000
  H   H2472     1.0  0.32362  0.87687  0.76173  1.0000
  H   H2473     1.0  0.16347  0.96507  0.68894  1.0000
  H   H2474     1.0  0.13119  0.80290  0.57786  1.0000
  C   C2064     1.0  0.19947  0.94086  0.82769  1.0000
  H   H2475     1.0  0.19312  0.97164  0.77603  1.0000
  H   H2476     1.0  0.28387  0.84426  0.95196  1.0000
  Fe  Fe285     1.0  0.31197  0.79110  0.72416  1.0000
  H   H2477     1.0  0.17442  0.95174  0.78988  1.0000
  H   H2478     1.0  0.30598  0.80434  0.96244  1.0000
  H   H2479     1.0  0.21742  0.94474  0.83866  1.0000
  C   C2065     1.0  0.00006  0.83915  0.63947  1.0000
  H   H2480     1.0  0.31890  0.79333  0.55418  1.0000
  C   C2066     1.0  0.06703  0.86550  0.72066  1.0000
  C   C2067     1.0  0.16107  0.78694  0.66417  1.0000
  C   C2068     1.0  0.33057  0.82760  0.59203  1.0000
  C   C2069     1.0  0.27008  0.79049  0.68360  1.0000
  C   C2070     1.0  0.03053  0.81227  0.59251  1.0000
  C   C2071     1.0  0.32074  0.80130  0.56153  1.0000
  S   S564      1.0  0.28531  0.79121  0.59803  1.0000
  H   H2481     1.0  0.26364  0.83999  0.91349  1.0000
  C   C2072     1.0  0.22361  0.83542  0.96884  1.0000
  H   H2482     1.0  0.05528  0.82395  0.59309  1.0000
  H   H2483     1.0  0.29647  0.79418  0.64400  1.0000
  H   H2484     1.0  0.08479  0.87082  0.73008  1.0000
  H   H2485     1.0  0.13087  0.98092  0.72155  1.0000
  C   C2073     1.0  0.35441  0.80006  0.58322  1.0000
  C   C2074     1.0  0.13463  0.93003  0.80755  1.0000
  C   C2075     1.0  0.38505  0.78860  0.65904  1.0000
  N   N136      1.0  0.20976  0.96805  0.70577  1.0000
  H   H2486     1.0  0.19438  0.79779  0.87818  1.0000
  C   C2076     1.0  0.18305  0.98104  0.78178  1.0000
  C   C2077     1.0  0.20200  0.96281  0.72355  1.0000
  C   C2078     1.0  0.01518  0.83237  0.62985  1.0000
  H   H2487     1.0  0.17144  0.79872  0.61240  1.0000
  H   H2488     1.0  0.34908  0.81700  0.65464  1.0000
  H   H2489     1.0  0.27605  0.85587  0.92513  1.0000
  C   C2079     1.0  0.14020  0.94541  0.77927  1.0000
  C   C2080     1.0  0.15540  0.94214  0.72844  1.0000
  N   N137      1.0  0.17823  0.78431  0.96553  1.0000
  H   H2490     1.0  0.17622  0.81054  0.62420  1.0000
  C   C2081     1.0  0.16179  0.78585  0.96198  1.0000
  C   C2082     1.0  0.14720  0.91651  0.80332  1.0000
  S   S565      1.0  0.17484  0.80072  0.91105  1.0000
  C   C2083     1.0  0.18834  0.94801  0.81713  1.0000
  C   C2084     1.0  0.32787  0.79451  0.62981  1.0000
  H   H2491     1.0  0.15146  0.78998  0.97213  1.0000
  H   H2492     1.0  0.36927  0.80583  0.59656  1.0000
  C   C2085     1.0  0.18485  0.79072  0.88136  1.0000
  C   C2086     1.0  0.13422  0.78642  0.60128  1.0000
  H   H2493     1.0  0.19245  0.79742  0.61244  1.0000
  C   C2087     1.0  0.24296  0.97515  0.79737  1.0000
  H   H2494     1.0  0.02639  0.83247  0.63319  1.0000
  Fe  Fe286     1.0  0.19864  0.80970  0.90481  1.0000
  S   S566      1.0  0.22087  0.78967  0.90976  1.0000
  N   N138      1.0  0.28046  0.81421  0.97307  1.0000
  C   C2088     1.0  0.47021  0.79793  0.59357  1.0000
  C   C2089     1.0  0.12348  0.83508  0.63020  1.0000
  C   C2090     1.0  0.14542  0.78949  0.67491  1.0000
  H   H2495     1.0  0.18192  0.93972  0.81522  1.0000
  H   H2496     1.0  0.21372  0.97474  0.82556  1.0000
  H   H2497     1.0  0.34060  0.78984  0.62279  1.0000
  Fe  Fe287     1.0  0.25044  0.80687  0.65029  1.0000
  H   H2498     1.0  0.12756  0.92930  0.82023  1.0000
  C   C2091     1.0  0.29856  0.81253  0.97118  1.0000
  H   H2499     1.0  0.15984  0.93359  0.76227  1.0000
  H   H2500     1.0  0.32097  0.81385  0.55336  1.0000
  C   C2092     1.0  0.17625  0.81518  0.95666  1.0000
  C   C2093     1.0  0.18596  0.96519  0.80934  1.0000
  N   N139      1.0  0.13428  0.84969  0.64535  1.0000
  H   H2501     1.0  0.15481  0.98144  0.81836  1.0000
  H   H2502     1.0  0.06186  0.78379  0.71796  1.0000
  S   S567      1.0  0.21190  0.82228  0.88012  1.0000
  C   C2094     1.0  0.05547  0.87123  0.71061  1.0000
  H   H2503     1.0  0.18846  0.91212  0.78611  1.0000
  C   C2095     1.0  0.26259  0.84108  0.79667  1.0000
  H   H2504     1.0  0.23123  0.94776  0.70678  1.0000
  S   S568      1.0  0.23160  0.79594  0.94770  1.0000
  H   H2505     1.0  0.26115  0.83225  0.84676  1.0000
  H   H2506     1.0  0.32127  0.83824  0.59560  1.0000
  Fe  Fe288     1.0  0.23458  0.80352  0.88626  1.0000
  C   C2096     1.0  0.28858  0.78747  0.70166  1.0000
  H   H2507     1.0  0.29266  0.81038  0.70379  1.0000
  H   H2508     1.0  0.30945  0.80228  0.57168  1.0000
  H   H2509     1.0  0.19637  0.89727  0.77322  1.0000
  C   C2097     1.0  0.15289  0.93204  0.77496  1.0000
  C   C2098     1.0  0.05215  0.88793  0.70269  1.0000
  H   H2510     1.0  0.15193  0.86548  0.63375  1.0000
  H   H2511     1.0  0.15348  0.89594  0.77071  1.0000
  H   H2512     1.0  0.24160  0.84616  0.85178  1.0000
  H   H2513     1.0  0.16023  0.84533  0.64564  1.0000
  H   H2514     1.0  0.26617  0.80010  0.95563  1.0000
  H   H2515     1.0  0.27636  0.82803  0.68335  1.0000
  H   H2516     1.0  0.20401  0.84839  0.68584  1.0000
  C   C2099     1.0  0.25855  0.85995  0.82273  1.0000
  N   N140      1.0  0.33619  0.79412  0.56802  1.0000
  C   C2100     1.0  0.15652  0.91702  0.78673  1.0000
  C   C2101     1.0  0.26003  0.83481  0.81410  1.0000
  C   C2102     1.0  0.26687  0.81764  0.81963  1.0000
  C   C2103     1.0  0.27572  0.80752  0.80835  1.0000
  C   C2104     1.0  0.27791  0.81408  0.79136  1.0000
  H   H2517     1.0  0.27173  0.85536  0.82395  1.0000
  H   H2518     1.0  0.25861  0.86808  0.81016  1.0000
  H   H2519     1.0  0.25205  0.86816  0.83167  1.0000
  H   H2520     1.0  0.19869  0.88000  0.69562  1.0000
  C   C2105     1.0  0.26323  0.78409  0.56536  1.0000
  S   S569      1.0  0.15896  0.96854  0.73808  1.0000
  H   H2521     1.0  0.14093  0.82615  0.66171  1.0000
  H   H2522     1.0  0.26559  0.81167  0.83261  1.0000
  H   H2523     1.0  0.28094  0.79449  0.81282  1.0000
  H   H2524     1.0  0.28481  0.80616  0.78270  1.0000
  C   C2106     1.0  0.21380  0.84910  0.69165  1.0000
  C   C2107     1.0  0.23198  0.86573  0.69309  1.0000
  C   C2108     1.0  0.24554  0.85230  0.69634  1.0000
  C   C2109     1.0  0.23039  0.88015  0.69904  1.0000
  C   C2110     1.0  0.25653  0.85306  0.70535  1.0000
  C   C2111     1.0  0.24156  0.88083  0.70791  1.0000
  C   C2112     1.0  0.25450  0.86727  0.71117  1.0000
  H   H2525     1.0  0.20822  0.84864  0.70510  1.0000
  H   H2526     1.0  0.22354  0.83756  0.69051  1.0000
  H   H2527     1.0  0.22048  0.89099  0.69727  1.0000
  H   H2528     1.0  0.26667  0.84256  0.70792  1.0000
  H   H2529     1.0  0.24003  0.89185  0.71254  1.0000
  H   H2530     1.0  0.26297  0.86771  0.71828  1.0000
  H   H2531     1.0  0.14794  0.79211  0.62863  1.0000
  S   S570      1.0  0.22722  0.97130  0.77477  1.0000
  C   C2113     1.0  0.17121  0.88770  0.79508  1.0000
  H   H2532     1.0  0.15685  0.96832  0.78709  1.0000
  N   N141      1.0  0.08228  0.90506  0.71529  1.0000
  C   C2114     1.0  0.08944  0.91389  0.69842  1.0000
  C   C2115     1.0  0.07085  0.91752  0.72458  1.0000
  C   C2116     1.0  0.09625  0.89678  0.72385  1.0000
  C   C2117     1.0  0.07295  0.89335  0.71416  1.0000
  C   C2118     1.0  0.07565  0.87632  0.72250  1.0000
  C   C2119     1.0  0.06059  0.89890  0.70455  1.0000
  H   H2533     1.0  0.25919  0.81212  0.92892  1.0000
  C   C2120     1.0  0.27418  0.84361  0.93195  1.0000
  H   H2534     1.0  0.04719  0.83160  0.61138  1.0000
  H   H2535     1.0  0.07982  0.92271  0.69200  1.0000
  H   H2536     1.0  0.09794  0.92153  0.69874  1.0000
  H   H2537     1.0  0.09672  0.90494  0.69044  1.0000
  H   H2538     1.0  0.06052  0.92494  0.71837  1.0000
  H   H2539     1.0  0.07752  0.92649  0.72577  1.0000
  H   H2540     1.0  0.06516  0.91139  0.73732  1.0000
  H   H2541     1.0  0.10509  0.88694  0.71765  1.0000
  H   H2542     1.0  0.10354  0.90574  0.72385  1.0000
  H   H2543     1.0  0.09181  0.89106  0.73710  1.0000
  H   H2544     1.0  0.19275  0.79390  0.64687  1.0000
  H   H2545     1.0  0.05750  0.91175  0.69823  1.0000
  H   H2546     1.0  0.03170  0.79300  0.62295  1.0000
  H   H2547     1.0  0.15999  0.79474  0.95011  1.0000
  H   H2548     1.0  0.33264  0.78794  0.66059  1.0000
  H   H2549     1.0  0.21448  0.94330  0.70158  1.0000
  H   H2550     1.0  0.04314  0.89229  0.69487  1.0000
  C   C2121     1.0  0.35927  0.80953  0.67652  1.0000
  H   H2551     1.0  0.34822  0.83025  0.60429  1.0000
  H   H2552     1.0  0.06978  0.85243  0.72660  1.0000
  C   C2122     1.0  0.13963  0.82683  0.60468  1.0000
  H   H2553     1.0  0.11506  0.82266  0.61641  1.0000
  H   H2554     1.0  0.17499  0.88985  0.80560  1.0000
  C   C2123     1.0  0.14762  0.93384  0.72182  1.0000
  C   C2124     1.0  0.18593  0.90783  0.77616  1.0000
  C   C2125     1.0  0.12772  0.95947  0.71503  1.0000
  C   C2126     1.0  0.16543  0.96178  0.79567  1.0000
  H   H2555     1.0  0.46890  0.80742  0.60017  1.0000
  S   S571      1.0  0.25111  0.79320  0.86455  1.0000
  C   C2127     1.0  0.35758  0.80941  0.59253  1.0000
  N   N142      1.0  0.25040  0.84590  0.82561  1.0000
  H   H2556     1.0  0.99075  0.78722  0.70462  1.0000
  S   S572      1.0  0.23972  0.78525  0.62164  1.0000
  C   C2128     1.0  0.27714  0.81477  0.68666  1.0000
  C   C2129     1.0  0.26724  0.83469  0.92533  1.0000
  H   H2557     1.0  0.31952  0.79923  0.62089  1.0000
  H   H2558     1.0  0.22543  0.86019  0.83169  1.0000
  C   C2130     1.0  0.13098  0.79286  0.66899  1.0000
  C   C2131     1.0  0.23334  0.85265  0.82257  1.0000
  H   H2559     1.0  0.23321  0.86094  0.81010  1.0000
  H   H2560     1.0  0.10799  0.86053  0.64704  1.0000
  C   C2132     1.0  0.12513  0.82768  0.61705  1.0000
  N   N143      1.0  0.16968  0.90289  0.78161  1.0000
  C   C2133     1.0  0.14907  0.85569  0.64504  1.0000
  H   H2561     1.0  0.11887  0.83388  0.66356  1.0000
  H   H2562     1.0  0.14719  0.86140  0.65580  1.0000
  C   C2134     1.0  0.15108  0.84071  0.61852  1.0000
  C   C2135     1.0  0.15251  0.83341  0.60536  1.0000
  H   H2563     1.0  0.17586  0.84141  0.94938  1.0000
  C   C2136     1.0  0.26476  0.81897  0.93402  1.0000
  H   H2564     1.0  0.24202  0.82724  0.84665  1.0000
  H   H2565     1.0  0.25525  0.97920  0.81430  1.0000
  C   C2137     1.0  0.35018  0.79204  0.55347  1.0000
  H   H2566     1.0  0.17311  0.81534  0.94525  1.0000
  C   C2138     1.0  0.20860  0.95044  0.83071  1.0000
  H   H2567     1.0  0.12113  0.95474  0.79878  1.0000
  C   C2139     1.0  0.13088  0.83761  0.66132  1.0000
  H   H2568     1.0  0.13009  0.84286  0.67208  1.0000
  H   H2569     1.0  0.16163  0.84543  0.61828  1.0000
  H   H2570     1.0  0.16376  0.83277  0.59565  1.0000
  C   C2140     1.0  0.17780  0.83018  0.95890  1.0000
  H   H2571     1.0  0.34784  0.78498  0.54554  1.0000
  C   C2141     1.0  0.32728  0.81837  0.58263  1.0000
  H   H2572     1.0  0.22200  0.84878  0.96494  1.0000
  S   S573      1.0  0.37032  0.79688  0.63224  1.0000
  H   H2573     1.0  0.02188  0.79342  0.65347  1.0000
  C   C2142     1.0  0.30509  0.78794  0.65254  1.0000
  C   C2143     1.0  0.27856  0.83685  0.94734  1.0000
  H   H2574     1.0  0.36205  0.78493  0.55704  1.0000
  H   H2575     1.0  0.20110  0.92774  0.83347  1.0000
  H   H2576     1.0  0.19252  0.97322  0.72813  1.0000
  C   C2144     1.0  0.17919  0.80015  0.96863  1.0000
  H   H2577     1.0  0.25646  0.79898  0.58377  1.0000
  C   C2145     1.0  0.45552  0.79352  0.59400  1.0000
  C   C2146     1.0  0.00024  0.82448  0.61413  1.0000
  H   H2578     1.0  0.19248  0.78279  0.85815  1.0000
  H   H2579     1.0  0.21131  0.95835  0.73151  1.0000
  S   S574      1.0  0.37072  0.79748  0.70539  1.0000
  C   C2147     1.0  0.99934  0.79189  0.64778  1.0000
  C   C2148     1.0  0.20647  0.96731  0.82337  1.0000
  H   H2580     1.0  0.25145  0.78869  0.56158  1.0000
  H   H2581     1.0  0.17176  0.78429  0.66958  1.0000
  C   C2149     1.0  0.17254  0.97227  0.68769  1.0000
  N   N144      1.0  0.17412  0.97333  0.79831  1.0000
  H   H2582     1.0  0.05200  0.79597  0.61141  1.0000
  C   C2150     1.0  0.19673  0.97515  0.69591  1.0000
  H   H2583     1.0  0.04296  0.80732  0.58511  1.0000
  H   H2584     1.0  0.36390  0.78927  0.58051  1.0000
  C   C2151     1.0  0.19531  0.97462  0.81288  1.0000
  C   C2152     1.0  0.12502  0.79815  0.59042  1.0000
  H   H2585     1.0  0.22942  0.97428  0.71257  1.0000
  N   N145      1.0  0.17887  0.78453  0.63536  1.0000
  H   H2586     1.0  0.12104  0.79637  0.64754  1.0000
  S   S575      1.0  0.05658  0.78609  0.66424  1.0000
  C   C2153     1.0  0.10897  0.78622  0.62299  1.0000
  C   C2154     1.0  0.14768  0.79136  0.64147  1.0000
  C   C2155     1.0  0.28135  0.78399  0.58267  1.0000
  C   C2156     1.0  0.13216  0.79380  0.65228  1.0000
  H   H2587     1.0  0.11886  0.79475  0.67735  1.0000
  C   C2157     1.0  0.73744  0.03889  0.23587  1.0000
  S   S576      1.0  0.82306  0.17286  0.31762  1.0000
  H   H2588     1.0  0.76263  0.03332  0.26891  1.0000
  C   C2158     1.0  0.97602  0.17573  0.20305  1.0000
  C   C2159     1.0  0.76540  0.02485  0.20795  1.0000
  H   H2589     1.0  0.87275  0.03591  0.22657  1.0000
  H   H2590     1.0  0.88415  0.05551  0.18330  1.0000
  Fe  Fe289     1.0  0.66110  0.12723  0.18048  1.0000
  S   S577      1.0  0.64099  0.11500  0.18094  1.0000
  S   S578      1.0  0.67677  0.13652  0.15604  1.0000
  Fe  Fe290     1.0  0.65461  0.12052  0.21782  1.0000
  S   S579      1.0  0.63510  0.10637  0.22148  1.0000
  S   S580      1.0  0.65862  0.12655  0.23969  1.0000
  Fe  Fe291     1.0  0.65245  0.09530  0.20040  1.0000
  S   S581      1.0  0.66135  0.06869  0.19792  1.0000
  Fe  Fe292     1.0  0.62601  0.12769  0.20181  1.0000
  S   S582      1.0  0.59984  0.14326  0.20636  1.0000
  S   S583      1.0  0.67303  0.10732  0.19910  1.0000
  S   S584      1.0  0.64510  0.14213  0.19892  1.0000
  H   H2591     1.0  0.91448  0.03701  0.19988  1.0000
  H   H2592     1.0  0.77313  0.99133  0.22012  1.0000
  H   H2593     1.0  0.54973  0.12031  0.29966  1.0000
  C   C2160     1.0  0.76375  0.09314  0.10509  1.0000
  C   C2161     1.0  0.59860  0.12635  0.27585  1.0000
  S   S585      1.0  0.56027  0.17207  0.30532  1.0000
  Fe  Fe293     1.0  0.70252  0.15596  0.28651  1.0000
  H   H2594     1.0  0.95654  0.16297  0.20621  1.0000
  S   S586      1.0  0.67966  0.16987  0.30145  1.0000
  Fe  Fe294     1.0  0.72065  0.12261  0.27764  1.0000
  S   S587      1.0  0.73960  0.13350  0.25683  1.0000
  S   S588      1.0  0.71947  0.09575  0.28450  1.0000
  Fe  Fe295     1.0  0.73977  0.14831  0.27451  1.0000
  S   S589      1.0  0.76368  0.15085  0.27823  1.0000
  Fe  Fe296     1.0  0.71799  0.15397  0.25062  1.0000
  C   C2162     1.0  0.73186  0.04898  0.24750  1.0000
  S   S590      1.0  0.72267  0.13562  0.29606  1.0000
  S   S591      1.0  0.69896  0.14163  0.27009  1.0000
  Fe  Fe297     1.0  0.73550  0.12355  0.01646  1.0000
  S   S592      1.0  0.71877  0.14107  0.99986  1.0000
  S   S593      1.0  0.72545  0.10213  0.03459  1.0000
  Fe  Fe298     1.0  0.76161  0.14418  0.00471  1.0000
  S   S594      1.0  0.73011  0.98581  0.13028  1.0000
  Fe  Fe299     1.0  0.72489  0.16074  0.00825  1.0000
  H   H2595     1.0  0.86195  0.99564  0.18323  1.0000
  C   C2163     1.0  0.77003  0.99983  0.22881  1.0000
  S   S595      1.0  0.73977  0.14342  0.02629  1.0000
  S   S596      1.0  0.75893  0.12262  0.99626  1.0000
  Fe  Fe300     1.0  0.76105  0.03308  0.09873  1.0000
  S   S597      1.0  0.73394  0.03237  0.10663  1.0000
  S   S598      1.0  0.77407  0.04436  0.07306  1.0000
  Fe  Fe301     1.0  0.76632  0.02052  0.13415  1.0000
  S   S599      1.0  0.73965  0.01927  0.14492  1.0000
  S   S600      1.0  0.78473  0.01356  0.15047  1.0000
  Fe  Fe302     1.0  0.74231  0.00781  0.12339  1.0000
  H   H2596     1.0  0.96346  0.17746  0.24914  1.0000
  Fe  Fe303     1.0  0.73389  0.04367  0.12724  1.0000
  S   S601      1.0  0.71628  0.06779  0.13124  1.0000
  S   S602      1.0  0.76958  0.00750  0.11368  1.0000
  S   S603      1.0  0.76046  0.04589  0.11839  1.0000
  Fe  Fe304     1.0  0.80320  0.05389  0.24017  1.0000
  S   S604      1.0  0.80117  0.07700  0.22011  1.0000
  S   S605      1.0  0.79141  0.05183  0.26718  1.0000
  S   S606      1.0  0.82642  0.05336  0.19481  1.0000
  Fe  Fe305     1.0  0.82876  0.06822  0.21176  1.0000
  S   S607      1.0  0.84544  0.08692  0.20227  1.0000
  Fe  Fe306     1.0  0.79888  0.06041  0.20499  1.0000
  S   S608      1.0  0.77887  0.06780  0.19024  1.0000
  S   S609      1.0  0.79833  0.03810  0.22599  1.0000
  Fe  Fe307     1.0  0.90876  0.15585  0.20992  1.0000
  S   S610      1.0  0.91814  0.12867  0.21965  1.0000
  C   C2164     1.0  0.82641  0.99346  0.21425  1.0000
  Fe  Fe308     1.0  0.89519  0.16315  0.24421  1.0000
  S   S611      1.0  0.90348  0.13665  0.25675  1.0000
  C   C2165     1.0  0.93011  0.14590  0.28085  1.0000
  Fe  Fe309     1.0  0.92720  0.13744  0.23734  1.0000
  Fe  Fe310     1.0  0.89350  0.13058  0.23793  1.0000
  S   S612      1.0  0.87756  0.11122  0.24746  1.0000
  S   S613      1.0  0.91957  0.16443  0.22616  1.0000
  S   S614      1.0  0.88344  0.15730  0.22680  1.0000
  C   C2166     1.0  0.96871  0.16464  0.24825  1.0000
  C   C2167     1.0  0.95886  0.15536  0.24558  1.0000
  C   C2168     1.0  0.60854  0.18151  0.17195  1.0000
  H   H2597     1.0  0.94615  0.16102  0.24453  1.0000
  C   C2169     1.0  0.85357  0.09405  0.21522  1.0000
  C   C2170     1.0  0.86250  0.10674  0.20814  1.0000
  C   C2171     1.0  0.86975  0.11229  0.21788  1.0000
  C   C2172     1.0  0.86826  0.10505  0.23478  1.0000
  C   C2173     1.0  0.85936  0.09234  0.24185  1.0000
  C   C2174     1.0  0.85189  0.08696  0.23217  1.0000
  H   H2598     1.0  0.86388  0.11226  0.19503  1.0000
  H   H2599     1.0  0.87665  0.12202  0.21228  1.0000
  H   H2600     1.0  0.85843  0.08649  0.25485  1.0000
  H   H2601     1.0  0.84513  0.07713  0.23776  1.0000
  C   C2175     1.0  0.78348  0.02949  0.16033  1.0000
  C   C2176     1.0  0.79639  0.02868  0.16777  1.0000
  C   C2177     1.0  0.79527  0.04082  0.17639  1.0000
  C   C2178     1.0  0.78120  0.05376  0.17774  1.0000
  C   C2179     1.0  0.76844  0.05484  0.16996  1.0000
  C   C2180     1.0  0.76956  0.04271  0.16128  1.0000
  H   H2602     1.0  0.80725  0.01860  0.16692  1.0000
  H   H2603     1.0  0.80524  0.04007  0.18213  1.0000
  H   H2604     1.0  0.75755  0.06488  0.17088  1.0000
  H   H2605     1.0  0.75953  0.04343  0.15558  1.0000
  C   C2181     1.0  0.73961  0.08565  0.04402  1.0000
  C   C2182     1.0  0.73381  0.07186  0.05470  1.0000
  C   C2183     1.0  0.74437  0.05907  0.06350  1.0000
  C   C2184     1.0  0.76098  0.05975  0.06129  1.0000
  C   C2185     1.0  0.76699  0.07325  0.05011  1.0000
  C   C2186     1.0  0.75627  0.08630  0.04161  1.0000
  H   H2606     1.0  0.72105  0.07109  0.05628  1.0000
  H   H2607     1.0  0.73976  0.04852  0.07176  1.0000
  H   H2608     1.0  0.77987  0.07376  0.04826  1.0000
  H   H2609     1.0  0.76088  0.09683  0.03324  1.0000
  C   C2187     1.0  0.73926  0.08338  0.27936  1.0000
  C   C2188     1.0  0.74489  0.06941  0.29097  1.0000
  C   C2189     1.0  0.76091  0.05967  0.28706  1.0000
  C   C2190     1.0  0.77107  0.06354  0.27133  1.0000
  C   C2191     1.0  0.76522  0.07720  0.25950  1.0000
  C   C2192     1.0  0.74942  0.08732  0.26366  1.0000
  H   H2610     1.0  0.73701  0.06635  0.30313  1.0000
  H   H2611     1.0  0.76543  0.04911  0.29623  1.0000
  H   H2612     1.0  0.77299  0.08026  0.24735  1.0000
  H   H2613     1.0  0.74502  0.09814  0.25475  1.0000
  H   H2614     1.0  0.73037  0.04152  0.22648  1.0000
  H   H2615     1.0  0.94431  0.16831  0.32162  1.0000
  H   H2616     1.0  0.69200  0.15760  0.07067  1.0000
  S   S615      1.0  0.71983  0.16992  0.26646  1.0000
  C   C2193     1.0  0.86445  0.16479  0.28157  1.0000
  C   C2194     1.0  0.85118  0.16229  0.29524  1.0000
  H   H2617     1.0  0.61921  0.15369  0.25014  1.0000
  C   C2195     1.0  0.60899  0.15679  0.24395  1.0000
  H   H2618     1.0  0.87217  0.15440  0.27630  1.0000
  H   H2619     1.0  0.84875  0.14996  0.30048  1.0000
  C   C2196     1.0  0.54942  0.15616  0.27037  1.0000
  C   C2197     1.0  0.76644  0.17103  0.29630  1.0000
  H   H2620     1.0  0.92861  0.18098  0.30186  1.0000
  S   S616      1.0  0.91410  0.16752  0.18276  1.0000
  H   H2621     1.0  0.76532  0.99271  0.24142  1.0000
  H   H2622     1.0  0.54409  0.11795  0.27219  1.0000
  C   C2198     1.0  0.90865  0.17078  0.11826  1.0000
  S   S617      1.0  0.71503  0.16344  0.22424  1.0000
  H   H2623     1.0  0.77221  0.15979  0.30394  1.0000
  H   H2624     1.0  0.62299  0.15060  0.17326  1.0000
  C   C2199     1.0  0.67678  0.06801  0.17948  1.0000
  C   C2200     1.0  0.68573  0.05278  0.17536  1.0000
  C   C2201     1.0  0.69815  0.05244  0.16066  1.0000
  C   C2202     1.0  0.70157  0.06735  0.15013  1.0000
  C   C2203     1.0  0.69279  0.08247  0.15438  1.0000
  C   C2204     1.0  0.68040  0.08281  0.16891  1.0000
  H   H2625     1.0  0.68299  0.04128  0.18345  1.0000
  H   H2626     1.0  0.70484  0.04070  0.15738  1.0000
  H   H2627     1.0  0.69558  0.09402  0.14645  1.0000
  H   H2628     1.0  0.67363  0.09462  0.17181  1.0000
  H   H2629     1.0  0.68447  0.16194  0.12812  1.0000
  C   C2205     1.0  0.67137  0.14094  0.23259  1.0000
  C   C2206     1.0  0.67110  0.15115  0.24285  1.0000
  C   C2207     1.0  0.68337  0.16034  0.23874  1.0000
  C   C2208     1.0  0.69626  0.15876  0.22480  1.0000
  C   C2209     1.0  0.69543  0.15018  0.21348  1.0000
  C   C2210     1.0  0.68284  0.14128  0.21735  1.0000
  H   H2630     1.0  0.66196  0.15134  0.25437  1.0000
  H   H2631     1.0  0.68361  0.16765  0.24708  1.0000
  H   H2632     1.0  0.70517  0.14939  0.20242  1.0000
  H   H2633     1.0  0.68282  0.13371  0.20919  1.0000
  H   H2634     1.0  0.94954  0.14609  0.32472  1.0000
  H   H2635     1.0  0.89948  0.08054  0.20100  1.0000
  N   N146      1.0  0.55226  0.13788  0.27619  1.0000
  H   H2636     1.0  0.87812  0.17585  0.18870  1.0000
  C   C2211     1.0  0.95422  0.15760  0.31809  1.0000
  H   H2637     1.0  0.73494  0.02045  0.21502  1.0000
  C   C2212     1.0  0.58292  0.16452  0.22761  1.0000
  H   H2638     1.0  0.55691  0.16161  0.27530  1.0000
  H   H2639     1.0  0.59975  0.10888  0.24453  1.0000
  H   H2640     1.0  0.97617  0.17478  0.29440  1.0000
  C   C2213     1.0  0.66817  0.17975  0.33085  1.0000
  C   C2214     1.0  0.69822  0.16625  0.34120  1.0000
  C   C2215     1.0  0.69677  0.16445  0.32593  1.0000
  C   C2216     1.0  0.68170  0.17115  0.32079  1.0000
  H   H2641     1.0  0.59604  0.18019  0.17175  1.0000
  H   H2642     1.0  0.62902  0.16691  0.32583  1.0000
  H   H2643     1.0  0.70988  0.16108  0.34517  1.0000
  H   H2644     1.0  0.70733  0.15799  0.31816  1.0000
  H   H2645     1.0  0.72059  0.05858  0.24718  1.0000
  H   H2646     1.0  0.55297  0.15970  0.25661  1.0000
  S   S618      1.0  0.83095  0.04617  0.23304  1.0000
  H   H2647     1.0  0.63841  0.12949  0.27172  1.0000
  C   C2217     1.0  0.61036  0.14899  0.23120  1.0000
  C   C2218     1.0  0.59746  0.15285  0.22286  1.0000
  C   C2219     1.0  0.77379  0.16209  0.03178  1.0000
  H   H2648     1.0  0.60133  0.16773  0.29854  1.0000
  H   H2649     1.0  0.62139  0.13972  0.22814  1.0000
  H   H2650     1.0  0.57010  0.11993  0.25127  1.0000
  H   H2651     1.0  0.90506  0.15858  0.27872  1.0000
  H   H2652     1.0  0.66367  0.11548  0.28273  1.0000
  C   C2220     1.0  0.75191  0.02588  0.23631  1.0000
  S   S619      1.0  0.74697  0.16293  0.98753  1.0000
  H   H2653     1.0  0.95479  0.13583  0.28384  1.0000
  N   N147      1.0  0.75525  0.09807  0.09101  1.0000
  H   H2654     1.0  0.77255  0.01537  0.24930  1.0000
  C   C2221     1.0  0.84038  0.14733  0.24005  1.0000
  C   C2222     1.0  0.79800  0.17142  0.01331  1.0000
  H   H2655     1.0  0.71803  0.17288  0.12499  1.0000
  H   H2656     1.0  0.98687  0.11850  0.24588  1.0000
  S   S620      1.0  0.78590  0.15065  0.00282  1.0000
  C   C2223     1.0  0.75543  0.03467  0.25983  1.0000
  H   H2657     1.0  0.90699  0.09187  0.22008  1.0000
  C   C2224     1.0  0.90306  0.07153  0.24073  1.0000
  Fe  Fe311     1.0  0.82596  0.03207  0.21704  1.0000
  H   H2658     1.0  0.77636  0.02870  0.20909  1.0000
  H   H2659     1.0  0.70958  0.08888  0.10106  1.0000
  C   C2225     1.0  0.67575  0.17939  0.16761  1.0000
  C   C2226     1.0  0.67940  0.15627  0.15480  1.0000
  H   H2660     1.0  0.64029  0.17127  0.17199  1.0000
  C   C2227     1.0  0.80579  0.99155  0.20073  1.0000
  H   H2661     1.0  0.78212  0.00252  0.22849  1.0000
  H   H2662     1.0  0.97779  0.14528  0.28306  1.0000
  C   C2228     1.0  0.86751  0.18076  0.27472  1.0000
  H   H2663     1.0  0.60691  0.12851  0.28213  1.0000
  H   H2664     1.0  0.85342  0.14234  0.23530  1.0000
  H   H2665     1.0  0.64014  0.16923  0.12793  1.0000
  C   C2229     1.0  0.81161  0.14628  0.24468  1.0000
  H   H2666     1.0  0.59269  0.17934  0.36094  1.0000
  C   C2230     1.0  0.82834  0.14046  0.23799  1.0000
  C   C2231     1.0  0.97337  0.14494  0.29656  1.0000
  H   H2667     1.0  0.73651  0.05472  0.26842  1.0000
  H   H2668     1.0  0.57292  0.16766  0.22114  1.0000
  C   C2232     1.0  0.85863  0.98442  0.18292  1.0000
  H   H2669     1.0  0.71478  0.08355  0.08136  1.0000
  C   C2233     1.0  0.63110  0.14870  0.28569  1.0000
  C   C2234     1.0  0.60674  0.16998  0.30785  1.0000
  C   C2235     1.0  0.63484  0.15558  0.29714  1.0000
  H   H2670     1.0  0.98424  0.14569  0.30084  1.0000
  H   H2671     1.0  0.79719  0.99745  0.19261  1.0000
  Fe  Fe312     1.0  0.74248  0.14165  0.98044  1.0000
  C   C2236     1.0  0.80688  0.15909  0.25329  1.0000
  H   H2672     1.0  0.76276  0.10448  0.06425  1.0000
  H   H2673     1.0  0.70475  0.15790  0.04095  1.0000
  C   C2237     1.0  0.96253  0.17306  0.19873  1.0000
  H   H2674     1.0  0.77879  0.09145  0.07418  1.0000
  H   H2675     1.0  0.75599  0.08756  0.11692  1.0000
  H   H2676     1.0  0.86793  0.04203  0.20663  1.0000
  H   H2677     1.0  0.77261  0.11299  0.07522  1.0000
  H   H2678     1.0  0.61106  0.17419  0.18428  1.0000
  H   H2679     1.0  0.64224  0.17896  0.30955  1.0000
  H   H2680     1.0  0.52843  0.13681  0.27300  1.0000
  H   H2681     1.0  0.71416  0.10436  0.08255  1.0000
  H   H2682     1.0  0.90596  0.07714  0.24918  1.0000
  N   N148      1.0  0.88938  0.05012  0.20773  1.0000
  H   H2683     1.0  0.74358  0.08652  0.07944  1.0000
  C   C2238     1.0  0.81876  0.16684  0.25508  1.0000
  C   C2239     1.0  0.91555  0.17098  0.29059  1.0000
  C   C2240     1.0  0.65549  0.12632  0.28703  1.0000
  C   C2241     1.0  0.96531  0.13865  0.24482  1.0000
  H   H2684     1.0  0.76451  0.15478  0.03479  1.0000
  C   C2242     1.0  0.65948  0.13265  0.29837  1.0000
  C   C2243     1.0  0.76785  0.10206  0.07551  1.0000
  C   C2244     1.0  0.90365  0.07983  0.22427  1.0000
  H   H2685     1.0  0.92197  0.17538  0.14460  1.0000
  H   H2686     1.0  0.81322  0.01419  0.19889  1.0000
  H   H2687     1.0  0.70169  0.14833  0.10122  1.0000
  N   N149      1.0  0.75762  0.01524  0.22396  1.0000
  H   H2688     1.0  0.65336  0.15130  0.31208  1.0000
  H   H2689     1.0  0.57032  0.18135  0.24421  1.0000
  H   H2690     1.0  0.89054  0.03750  0.24059  1.0000
  H   H2691     1.0  0.72216  0.15093  0.07445  1.0000
  S   S621      1.0  0.95302  0.12625  0.24250  1.0000
  H   H2692     1.0  0.84581  0.16471  0.24995  1.0000
  C   C2245     1.0  0.72840  0.11078  0.10860  1.0000
  N   N150      1.0  0.79535  0.09997  0.27561  1.0000
  C   C2246     1.0  0.80420  0.09231  0.26109  1.0000
  C   C2247     1.0  0.79143  0.08644  0.29011  1.0000
  C   C2248     1.0  0.77948  0.11091  0.27181  1.0000
  C   C2249     1.0  0.80519  0.10946  0.27969  1.0000
  C   C2250     1.0  0.82243  0.10854  0.27257  1.0000
  C   C2251     1.0  0.79784  0.11924  0.29185  1.0000
  C   C2252     1.0  0.83160  0.11698  0.27729  1.0000
  C   C2253     1.0  0.80712  0.12763  0.29648  1.0000
  C   C2254     1.0  0.82398  0.12647  0.28923  1.0000
  H   H2693     1.0  0.79621  0.08599  0.25780  1.0000
  H   H2694     1.0  0.80805  0.10180  0.24988  1.0000
  H   H2695     1.0  0.81531  0.08243  0.26367  1.0000
  H   H2696     1.0  0.78391  0.09132  0.30125  1.0000
  H   H2697     1.0  0.80298  0.07787  0.29342  1.0000
  H   H2698     1.0  0.78414  0.07885  0.28760  1.0000
  H   H2699     1.0  0.77252  0.10449  0.26729  1.0000
  H   H2700     1.0  0.77070  0.11502  0.28287  1.0000
  H   H2701     1.0  0.78169  0.12225  0.26218  1.0000
  H   H2702     1.0  0.82914  0.10137  0.26334  1.0000
  H   H2703     1.0  0.78485  0.12039  0.29800  1.0000
  H   H2704     1.0  0.84476  0.11609  0.27165  1.0000
  H   H2705     1.0  0.80121  0.13496  0.30586  1.0000
  H   H2706     1.0  0.83121  0.13281  0.29298  1.0000
  N   N151      1.0  0.72638  0.09981  0.21976  1.0000
  C   C2255     1.0  0.71662  0.10643  0.23471  1.0000
  C   C2256     1.0  0.74342  0.09176  0.22251  1.0000
  C   C2257     1.0  0.72743  0.11413  0.20542  1.0000
  C   C2258     1.0  0.71901  0.08787  0.21605  1.0000
  C   C2259     1.0  0.72731  0.07990  0.20258  1.0000
  C   C2260     1.0  0.70314  0.08454  0.22486  1.0000
  C   C2261     1.0  0.72010  0.06946  0.19810  1.0000
  C   C2262     1.0  0.69617  0.07389  0.22039  1.0000
  C   C2263     1.0  0.70454  0.06651  0.20696  1.0000
  H   H2707     1.0  0.71543  0.09633  0.24608  1.0000
  H   H2708     1.0  0.72253  0.11528  0.23723  1.0000
  H   H2709     1.0  0.70394  0.11361  0.23318  1.0000
  H   H2710     1.0  0.74327  0.08067  0.23294  1.0000
  H   H2711     1.0  0.74919  0.10046  0.22543  1.0000
  H   H2712     1.0  0.75210  0.08761  0.21143  1.0000
  H   H2713     1.0  0.71508  0.11962  0.20209  1.0000
  H   H2714     1.0  0.73156  0.12419  0.20810  1.0000
  H   H2715     1.0  0.73635  0.11051  0.19418  1.0000
  H   H2716     1.0  0.73925  0.08208  0.19507  1.0000
  H   H2717     1.0  0.69563  0.09033  0.23498  1.0000
  H   H2718     1.0  0.72639  0.06399  0.18741  1.0000
  H   H2719     1.0  0.68383  0.07190  0.22689  1.0000
  H   H2720     1.0  0.69871  0.05885  0.20316  1.0000
  C   C2264     1.0  0.78581  0.16212  0.01696  1.0000
  H   H2721     1.0  0.70557  0.12269  0.12307  1.0000
  H   H2722     1.0  0.63304  0.15122  0.15213  1.0000
  H   H2723     1.0  0.74628  0.12880  0.06919  1.0000
  H   H2724     1.0  0.90226  0.02521  0.21713  1.0000
  H   H2725     1.0  0.53226  0.13767  0.29814  1.0000
  H   H2726     1.0  0.87959  0.07318  0.19216  1.0000
  H   H2727     1.0  0.90092  0.06366  0.18406  1.0000
  C   C2265     1.0  0.89406  0.04937  0.23562  1.0000
  H   H2728     1.0  0.82059  0.16387  0.28663  1.0000
  H   H2729     1.0  0.72927  0.09967  0.11837  1.0000
  C   C2266     1.0  0.57741  0.12179  0.25873  1.0000
  C   C2267     1.0  0.58152  0.13305  0.27987  1.0000
  H   H2730     1.0  0.61844  0.11274  0.25984  1.0000
  C   C2268     1.0  0.87276  0.04609  0.21530  1.0000
  C   C2269     1.0  0.81482  0.00106  0.20428  1.0000
  C   C2270     1.0  0.64123  0.13423  0.28086  1.0000
  H   H2731     1.0  0.67078  0.12662  0.30294  1.0000
  C   C2271     1.0  0.67658  0.16246  0.16906  1.0000
  H   H2732     1.0  0.91255  0.16215  0.12949  1.0000
  C   C2272     1.0  0.74957  0.08359  0.09014  1.0000
  N   N152      1.0  0.62437  0.17142  0.30136  1.0000
  H   H2733     1.0  0.62060  0.15474  0.27997  1.0000
  C   C2273     1.0  0.69191  0.16930  0.06178  1.0000
  C   C2274     1.0  0.54608  0.13388  0.29449  1.0000
  C   C2275     1.0  0.54199  0.13176  0.26875  1.0000
  C   C2276     1.0  0.76098  0.02433  0.24845  1.0000
  H   H2734     1.0  0.80738  0.17144  0.00189  1.0000
  C   C2277     1.0  0.68231  0.16665  0.13918  1.0000
  C   C2278     1.0  0.88855  0.06112  0.19111  1.0000
  H   H2735     1.0  0.97041  0.13258  0.30296  1.0000
  C   C2279     1.0  0.73791  0.12682  0.08119  1.0000
  C   C2280     1.0  0.71463  0.12381  0.11134  1.0000
  C   C2281     1.0  0.89920  0.07313  0.21342  1.0000
  H   H2736     1.0  0.53611  0.16226  0.27429  1.0000
  S   S622      1.0  0.83881  0.00513  0.21757  1.0000
  C   C2282     1.0  0.89413  0.05768  0.21883  1.0000
  C   C2283     1.0  0.89834  0.05630  0.24639  1.0000
  C   C2284     1.0  0.74067  0.11199  0.09354  1.0000
  S   S623      1.0  0.51451  0.16988  0.30618  1.0000
  H   H2737     1.0  0.89783  0.04995  0.25926  1.0000
  H   H2738     1.0  0.86351  0.05714  0.21894  1.0000
  H   H2739     1.0  0.55074  0.14061  0.30100  1.0000
  H   H2740     1.0  0.83206  0.13034  0.23151  1.0000
  H   H2741     1.0  0.76978  0.01753  0.19807  1.0000
  C   C2285     1.0  0.98180  0.13143  0.24642  1.0000
  H   H2742     1.0  0.67479  0.15429  0.18118  1.0000
  C   C2286     1.0  0.69920  0.16946  0.04499  1.0000
  H   H2743     1.0  0.76018  0.07279  0.08846  1.0000
  H   H2744     1.0  0.74058  0.07928  0.10160  1.0000
  H   H2745     1.0  0.76709  0.10400  0.10707  1.0000
  C   C2287     1.0  0.71243  0.13826  0.09908  1.0000
  N   N153      1.0  0.69022  0.09863  0.08720  1.0000
  C   C2288     1.0  0.68288  0.08367  0.09371  1.0000
  C   C2289     1.0  0.68942  0.10470  0.06941  1.0000
  C   C2290     1.0  0.70797  0.09365  0.08807  1.0000
  C   C2291     1.0  0.68168  0.11123  0.09736  1.0000
  C   C2292     1.0  0.67957  0.10672  0.11489  1.0000
  C   C2293     1.0  0.67617  0.12832  0.09028  1.0000
  C   C2294     1.0  0.67227  0.11852  0.12470  1.0000
  C   C2295     1.0  0.66901  0.14004  0.10023  1.0000
  C   C2296     1.0  0.66720  0.13516  0.11737  1.0000
  H   H2746     1.0  0.66914  0.08712  0.09498  1.0000
  H   H2747     1.0  0.68812  0.07462  0.08545  1.0000
  H   H2748     1.0  0.68553  0.07658  0.10600  1.0000
  H   H2749     1.0  0.67633  0.10918  0.06789  1.0000
  H   H2750     1.0  0.69546  0.09477  0.06222  1.0000
  H   H2751     1.0  0.69631  0.11483  0.06312  1.0000
  C   C2297     1.0  0.57032  0.13066  0.27169  1.0000
  C   C2298     1.0  0.62207  0.15749  0.16040  1.0000
  N   N154      1.0  0.81351  0.18017  0.26458  1.0000
  H   H2752     1.0  0.68397  0.09409  0.12118  1.0000
  H   H2753     1.0  0.67746  0.13303  0.07707  1.0000
  H   H2754     1.0  0.67093  0.11479  0.13806  1.0000
  H   H2755     1.0  0.66513  0.15306  0.09457  1.0000
  H   H2756     1.0  0.66215  0.14431  0.12502  1.0000
  H   H2757     1.0  0.61064  0.15557  0.15811  1.0000
  C   C2299     1.0  0.59446  0.16819  0.24892  1.0000
  C   C2300     1.0  0.64932  0.14700  0.30348  1.0000
  H   H2758     1.0  0.57725  0.14046  0.28917  1.0000
  H   H2759     1.0  0.89873  0.02861  0.19679  1.0000
  H   H2760     1.0  0.77538  0.08343  0.10297  1.0000
  C   C2301     1.0  0.96427  0.17461  0.29160  1.0000
  C   C2302     1.0  0.49984  0.17364  0.29374  1.0000
  H   H2761     1.0  0.80224  0.14068  0.24345  1.0000
  C   C2303     1.0  0.90175  0.03456  0.20527  1.0000
  C   C2304     1.0  0.59455  0.11528  0.25471  1.0000
  C   C2305     1.0  0.84078  0.17578  0.30186  1.0000
  H   H2762     1.0  0.54463  0.13582  0.25498  1.0000
  C   C2306     1.0  0.84633  0.98566  0.17464  1.0000
  C   C2307     1.0  0.72400  0.13971  0.08402  1.0000
  C   C2308     1.0  0.60511  0.11745  0.26331  1.0000
  H   H2763     1.0  0.74777  0.00069  0.21353  1.0000
  H   H2764     1.0  0.75663  0.03644  0.20342  1.0000
  H   H2765     1.0  0.93044  0.13629  0.27470  1.0000
  N   N155      1.0  0.62149  0.17544  0.15809  1.0000
  C   C2309     1.0  0.78605  0.18073  0.03919  1.0000
  C   C2310     1.0  0.62944  0.17655  0.31407  1.0000
  C   C2311     1.0  0.83578  0.16027  0.24851  1.0000
  C   C2312     1.0  0.76058  0.17011  0.28304  1.0000
  S   S624      1.0  0.59360  0.17740  0.26512  1.0000
  C   C2313     1.0  0.74081  0.04683  0.25948  1.0000
  C   C2314     1.0  0.80947  0.17247  0.28245  1.0000
  C   C2315     1.0  0.74346  0.01001  0.22151  1.0000
  C   C2316     1.0  0.58141  0.17219  0.24069  1.0000
  S   S625      1.0  0.68669  0.17815  0.36974  1.0000
  H   H2766     1.0  0.96504  0.15736  0.32302  1.0000
  C   C2317     1.0  0.94413  0.14579  0.28626  1.0000
  C   C2318     1.0  0.94424  0.15839  0.29405  1.0000
  C   C2319     1.0  0.68468  0.17494  0.35118  1.0000
  N   N156      1.0  0.95884  0.15876  0.29991  1.0000
  H   H2767     1.0  0.60544  0.15970  0.31902  1.0000
  C   C2320     1.0  0.62962  0.17960  0.12701  1.0000
  H   H2768     1.0  0.90440  0.18073  0.29215  1.0000
  H   H2769     1.0  0.73610  0.00435  0.23359  1.0000
  C   C2321     1.0  0.92948  0.17099  0.29607  1.0000
  H   H2770     1.0  0.91896  0.16843  0.10739  1.0000
  C   C2322     1.0  0.98517  0.15739  0.24993  1.0000
  C   C2323     1.0  0.79805  0.18082  0.02434  1.0000
  C   C2324     1.0  0.91587  0.15846  0.28300  1.0000
  H   H2771     1.0  0.89765  0.16719  0.11685  1.0000
  H   H2772     1.0  0.76478  0.17102  0.05445  1.0000
  H   H2773     1.0  0.96641  0.17661  0.27789  1.0000
  H   H2774     1.0  0.97983  0.16756  0.21401  1.0000
  H   H2775     1.0  0.79984  0.16510  0.28534  1.0000
  H   H2776     1.0  0.64818  0.17161  0.15049  1.0000
  C   C2325     1.0  0.63767  0.17734  0.15949  1.0000
  H   H2777     1.0  0.79382  0.16258  0.25884  1.0000
  H   H2778     1.0  0.84027  0.99774  0.16844  1.0000
  C   C2326     1.0  0.77400  0.17126  0.04294  1.0000
  H   H2779     1.0  0.83745  0.18182  0.26680  1.0000
  H   H2780     1.0  0.80476  0.18193  0.29026  1.0000
  H   H2781     1.0  0.89464  0.18209  0.14598  1.0000
  C   C2327     1.0  0.66966  0.18166  0.34599  1.0000
  H   H2782     1.0  0.59866  0.18161  0.31147  1.0000
  H   H2783     1.0  0.94625  0.18112  0.18163  1.0000
  H   H2784     1.0  0.94574  0.17053  0.81119  1.0000
  H   H2785     1.0  0.66237  0.17249  0.82652  1.0000
  H   H2786     1.0  0.69879  0.04849  0.88385  1.0000
  S   S626      1.0  0.71094  0.04158  0.75403  1.0000
  Fe  Fe313     1.0  0.70442  0.04642  0.79923  1.0000
  S   S627      1.0  0.70479  0.06788  0.77761  1.0000
  S   S628      1.0  0.69996  0.05365  0.82383  1.0000
  Fe  Fe314     1.0  0.68921  0.05657  0.76882  1.0000
  S   S629      1.0  0.66874  0.07451  0.75718  1.0000
  Fe  Fe315     1.0  0.72646  0.05135  0.76464  1.0000
  S   S630      1.0  0.74690  0.06422  0.74876  1.0000
  S   S631      1.0  0.68677  0.03600  0.79166  1.0000
  Fe  Fe316     1.0  0.74064  0.14686  0.85565  1.0000
  S   S632      1.0  0.72121  0.14589  0.87929  1.0000
  S   S633      1.0  0.75401  0.16799  0.84629  1.0000
  Fe  Fe317     1.0  0.73496  0.11614  0.84862  1.0000
  S   S634      1.0  0.71540  0.11233  0.87199  1.0000
  S   S635      1.0  0.74386  0.09971  0.82982  1.0000
  Fe  Fe318     1.0  0.70602  0.13988  0.86524  1.0000
  S   S636      1.0  0.67831  0.14913  0.87011  1.0000
  Fe  Fe319     1.0  0.73226  0.11855  0.88414  1.0000
  S   S637      1.0  0.72429  0.14343  0.84088  1.0000
  S   S638      1.0  0.75297  0.11984  0.86141  1.0000
  Fe  Fe320     1.0  0.81681  0.04350  0.66948  1.0000
  S   S639      1.0  0.84273  0.03671  0.65471  1.0000
  S   S640      1.0  0.79354  0.05685  0.66050  1.0000
  Fe  Fe321     1.0  0.82642  0.02570  0.70218  1.0000
  S   S641      1.0  0.81570  0.01574  0.72887  1.0000
  Fe  Fe322     1.0  0.85011  0.04378  0.67471  1.0000
  S   S642      1.0  0.86928  0.05981  0.66721  1.0000
  S   S643      1.0  0.98407  0.13731  0.74188  1.0000
  S   S644      1.0  0.82393  0.05228  0.68825  1.0000
  S   S645      1.0  0.81659  0.01791  0.68470  1.0000
  Fe  Fe323     1.0  0.88565  0.13041  0.70038  1.0000
  S   S646      1.0  0.90794  0.13072  0.67916  1.0000
  S   S647      1.0  0.86647  0.11462  0.70591  1.0000
  Fe  Fe324     1.0  0.89393  0.15681  0.71315  1.0000
  S   S648      1.0  0.91661  0.15894  0.69283  1.0000
  H   H2787     1.0  0.81861  0.16911  0.57454  1.0000
  Fe  Fe325     1.0  0.90058  0.15844  0.67637  1.0000
  H   H2788     1.0  0.81430  0.01530  0.59348  1.0000
  Fe  Fe326     1.0  0.92161  0.13116  0.69796  1.0000
  S   S649      1.0  0.87740  0.15827  0.69630  1.0000
  S   S650      1.0  0.89980  0.12889  0.71951  1.0000
  Fe  Fe327     1.0  0.78100  0.10292  0.58729  1.0000
  S   S651      1.0  0.78187  0.10778  0.61131  1.0000
  S   S652      1.0  0.79496  0.07712  0.58471  1.0000
  Fe  Fe328     1.0  0.76189  0.13815  0.57637  1.0000
  S   S653      1.0  0.76144  0.14574  0.59952  1.0000
  S   S654      1.0  0.75254  0.15785  0.55560  1.0000
  Fe  Fe329     1.0  0.78801  0.13172  0.59616  1.0000
  S   S655      1.0  0.80967  0.13971  0.59884  1.0000
  Fe  Fe330     1.0  0.75531  0.12082  0.61221  1.0000
  S   S656      1.0  0.73722  0.11560  0.63640  1.0000
  S   S657      1.0  0.78916  0.12616  0.57194  1.0000
  S   S658      1.0  0.75367  0.11416  0.58934  1.0000
  H   H2789     1.0  0.86699  0.17517  0.66403  1.0000
  C   C2328     1.0  0.70254  0.16515  0.57322  1.0000
  H   H2790     1.0  0.66038  0.15272  0.94203  1.0000
  Fe  Fe331     1.0  0.67425  0.16095  0.70619  1.0000
  C   C2329     1.0  0.49882  0.17843  0.61651  1.0000
  S   S659      1.0  0.69216  0.14132  0.71981  1.0000
  H   H2791     1.0  0.85051  0.17571  0.94195  1.0000
  H   H2792     1.0  0.65021  0.17451  0.49140  1.0000
  H   H2793     1.0  0.70933  0.03752  0.85826  1.0000
  C   C2330     1.0  0.78769  0.18060  0.59197  1.0000
  N   N157      1.0  0.68305  0.14434  0.92520  1.0000
  S   S660      1.0  0.65976  0.15589  0.69072  1.0000
  C   C2331     1.0  0.80700  0.14297  0.61869  1.0000
  H   H2794     1.0  0.71593  0.15312  0.68473  1.0000
  S   S661      1.0  0.94709  0.11486  0.69988  1.0000
  C   C2332     1.0  0.97141  0.16787  0.76521  1.0000
  C   C2333     1.0  0.81854  0.14974  0.62194  1.0000
  N   N158      1.0  0.82205  0.00802  0.61668  1.0000
  C   C2334     1.0  0.94898  0.13250  0.72137  1.0000
  H   H2795     1.0  0.82934  0.15237  0.61240  1.0000
  C   C2335     1.0  0.71963  0.13181  0.63775  1.0000
  C   C2336     1.0  0.71736  0.14508  0.62421  1.0000
  C   C2337     1.0  0.81203  0.16741  0.95851  1.0000
  C   C2338     1.0  0.69353  0.15947  0.64175  1.0000
  C   C2339     1.0  0.69572  0.14608  0.65515  1.0000
  C   C2340     1.0  0.70852  0.13213  0.65305  1.0000
  H   H2796     1.0  0.72577  0.14474  0.61228  1.0000
  H   H2797     1.0  0.74581  0.08218  0.66111  1.0000
  C   C2341     1.0  0.66039  0.15451  0.53481  1.0000
  H   H2798     1.0  0.71009  0.12179  0.66342  1.0000
  Fe  Fe332     1.0  0.66862  0.17715  0.67160  1.0000
  H   H2799     1.0  0.72528  0.09962  0.67914  1.0000
  C   C2342     1.0  0.82537  0.11809  0.66802  1.0000
  C   C2343     1.0  0.85386  0.11738  0.65337  1.0000
  H   H2800     1.0  0.84601  0.01233  0.61639  1.0000
  C   C2344     1.0  0.95729  0.13716  0.73075  1.0000
  C   C2345     1.0  0.98253  0.11774  0.72163  1.0000
  H   H2801     1.0  0.69467  0.17888  0.50558  1.0000
  H   H2802     1.0  0.93600  0.13812  0.72148  1.0000
  H   H2803     1.0  0.83469  0.00380  0.63638  1.0000
  H   H2804     1.0  0.81106  0.10705  0.65945  1.0000
  H   H2805     1.0  0.72994  0.06050  0.72170  1.0000
  H   H2806     1.0  0.77163  0.04621  0.71143  1.0000
  C   C2346     1.0  0.94584  0.16349  0.78419  1.0000
  H   H2807     1.0  0.86279  0.10479  0.63351  1.0000
  C   C2347     1.0  0.65309  0.16859  0.50349  1.0000
  C   C2348     1.0  0.74414  0.04859  0.85933  1.0000
  H   H2808     1.0  0.78805  0.17485  0.92059  1.0000
  C   C2349     1.0  0.79441  0.05938  0.63941  1.0000
  C   C2350     1.0  0.80962  0.05743  0.62795  1.0000
  C   C2351     1.0  0.80991  0.06153  0.61089  1.0000
  C   C2352     1.0  0.79495  0.06739  0.60543  1.0000
  C   C2353     1.0  0.77979  0.06852  0.61698  1.0000
  C   C2354     1.0  0.77952  0.06454  0.63393  1.0000
  H   H2809     1.0  0.82113  0.05378  0.63212  1.0000
  H   H2810     1.0  0.82164  0.06122  0.60194  1.0000
  H   H2811     1.0  0.76822  0.07348  0.61278  1.0000
  H   H2812     1.0  0.76773  0.06622  0.64269  1.0000
  C   C2355     1.0  0.86783  0.07560  0.67758  1.0000
  C   C2356     1.0  0.88026  0.08490  0.67231  1.0000
  C   C2357     1.0  0.87990  0.09708  0.68064  1.0000
  C   C2358     1.0  0.86718  0.09995  0.69449  1.0000
  C   C2359     1.0  0.85460  0.09085  0.69959  1.0000
  C   C2360     1.0  0.85488  0.07878  0.69116  1.0000
  H   H2813     1.0  0.89028  0.08260  0.66177  1.0000
  H   H2814     1.0  0.88946  0.10424  0.67629  1.0000
  H   H2815     1.0  0.84468  0.09299  0.71024  1.0000
  H   H2816     1.0  0.84526  0.07172  0.69539  1.0000
  H   H2817     1.0  0.80379  0.00419  0.63956  1.0000
  C   C2361     1.0  0.67113  0.16894  0.85867  1.0000
  C   C2362     1.0  0.79010  0.14643  0.95665  1.0000
  C   C2363     1.0  0.69346  0.14759  0.53992  1.0000
  H   H2818     1.0  0.76142  0.03710  0.89143  1.0000
  S   S662      1.0  0.79572  0.16019  0.66662  1.0000
  C   C2364     1.0  0.82237  0.01854  0.59976  1.0000
  C   C2365     1.0  0.71156  0.04834  0.87718  1.0000
  H   H2819     1.0  0.60844  0.17986  0.61221  1.0000
  H   H2820     1.0  0.81504  0.18160  0.55470  1.0000
  C   C2366     1.0  0.76642  0.05075  0.74495  1.0000
  C   C2367     1.0  0.77996  0.05718  0.73452  1.0000
  C   C2368     1.0  0.79523  0.04646  0.72987  1.0000
  C   C2369     1.0  0.79710  0.02929  0.73585  1.0000
  H   H2821     1.0  0.77856  0.07044  0.72977  1.0000
  H   H2822     1.0  0.80561  0.05150  0.72178  1.0000
  S   S663      1.0  0.85326  0.01762  0.69016  1.0000
  H   H2823     1.0  0.80083  0.17000  0.69324  1.0000
  C   C2370     1.0  0.67523  0.09293  0.74601  1.0000
  C   C2371     1.0  0.69217  0.09309  0.74085  1.0000
  C   C2372     1.0  0.69727  0.10796  0.73247  1.0000
  C   C2373     1.0  0.68548  0.12265  0.72891  1.0000
  C   C2374     1.0  0.66854  0.12242  0.73345  1.0000
  C   C2375     1.0  0.66342  0.10760  0.74225  1.0000
  H   H2824     1.0  0.70137  0.08174  0.74336  1.0000
  H   H2825     1.0  0.71039  0.10807  0.72883  1.0000
  H   H2826     1.0  0.65939  0.13377  0.73074  1.0000
  H   H2827     1.0  0.65033  0.10751  0.74642  1.0000
  C   C2376     1.0  0.71191  0.06696  0.82495  1.0000
  C   C2377     1.0  0.70587  0.07681  0.83689  1.0000
  C   C2378     1.0  0.71552  0.08689  0.83856  1.0000
  C   C2379     1.0  0.73140  0.08702  0.82843  1.0000
  C   C2380     1.0  0.73747  0.07712  0.81656  1.0000
  C   C2381     1.0  0.72769  0.06731  0.81464  1.0000
  H   H2828     1.0  0.69371  0.07651  0.84496  1.0000
  H   H2829     1.0  0.71070  0.09445  0.84775  1.0000
  H   H2830     1.0  0.74982  0.07702  0.80880  1.0000
  H   H2831     1.0  0.73253  0.05965  0.80552  1.0000
  C   C2382     1.0  0.70552  0.17825  0.92243  1.0000
  C   C2383     1.0  0.78264  0.15741  0.88020  1.0000
  C   C2384     1.0  0.77159  0.15622  0.87132  1.0000
  C   C2385     1.0  0.76773  0.16894  0.85782  1.0000
  H   H2832     1.0  0.83837  0.09784  0.60624  1.0000
  Fe  Fe333     1.0  0.84315  0.01146  0.67156  1.0000
  H   H2833     1.0  0.78572  0.14747  0.89052  1.0000
  H   H2834     1.0  0.76624  0.14538  0.87481  1.0000
  H   H2835     1.0  0.74495  0.13531  0.90099  1.0000
  H   H2836     1.0  0.75802  0.02855  0.75945  1.0000
  H   H2837     1.0  0.75915  0.05389  0.67280  1.0000
  H   H2838     1.0  0.73249  0.09856  0.94507  1.0000
  H   H2839     1.0  0.77801  0.02453  0.71099  1.0000
  C   C2386     1.0  0.97414  0.11297  0.71230  1.0000
  C   C2387     1.0  0.98731  0.16232  0.79307  1.0000
  C   C2388     1.0  0.75405  0.02492  0.69549  1.0000
  S   S664      1.0  0.72747  0.03037  0.78695  1.0000
  C   C2389     1.0  0.70552  0.15924  0.94896  1.0000
  H   H2840     1.0  0.62769  0.16780  0.51566  1.0000
  C   C2390     1.0  0.71974  0.15868  0.57173  1.0000
  C   C2391     1.0  0.73096  0.16528  0.55788  1.0000
  C   C2392     1.0  0.80771  0.17231  0.70134  1.0000
  H   H2841     1.0  0.71641  0.05952  0.89390  1.0000
  H   H2842     1.0  0.77853  0.04001  0.69204  1.0000
  H   H2843     1.0  0.72430  0.14853  0.58121  1.0000
  H   H2844     1.0  0.69544  0.17288  0.84510  1.0000
  H   H2845     1.0  0.73676  0.11565  0.96212  1.0000
  H   H2846     1.0  0.73144  0.07802  0.89384  1.0000
  H   H2847     1.0  0.85819  0.07786  0.63482  1.0000
  H   H2848     1.0  0.69387  0.15986  0.58384  1.0000
  H   H2849     1.0  0.98639  0.17737  0.82610  1.0000
  H   H2850     1.0  0.82426  0.15991  0.63947  1.0000
  H   H2851     1.0  0.74660  0.03756  0.73136  1.0000
  H   H2852     1.0  0.75200  0.01726  0.72767  1.0000
  C   C2393     1.0  0.70987  0.17335  0.93779  1.0000
  H   H2853     1.0  0.78262  0.17041  0.59096  1.0000
  H   H2854     1.0  0.67812  0.16869  0.74538  1.0000
  H   H2855     1.0  0.94195  0.16073  0.77405  1.0000
  C   C2394     1.0  0.69655  0.17824  0.56091  1.0000
  C   C2395     1.0  0.74229  0.07705  0.67431  1.0000
  H   H2856     1.0  0.84370  0.07047  0.62858  1.0000
  C   C2396     1.0  0.83464  0.17238  0.92816  1.0000
  C   C2397     1.0  0.76840  0.03360  0.75132  1.0000
  C   C2398     1.0  0.73859  0.05495  0.87402  1.0000
  C   C2399     1.0  0.75524  0.07565  0.86661  1.0000
  H   H2857     1.0  0.84234  0.12852  0.67436  1.0000
  C   C2400     1.0  0.84473  0.07824  0.63655  1.0000
  H   H2858     1.0  0.83587  0.11678  0.61256  1.0000
  H   H2859     1.0  0.81224  0.08705  0.64649  1.0000
  C   C2401     1.0  0.82322  0.10961  0.65725  1.0000
  H   H2860     1.0  0.75649  0.04878  0.85174  1.0000
  H   H2861     1.0  0.76228  0.07209  0.85469  1.0000
  H   H2862     1.0  0.70844  0.17091  0.51963  1.0000
  H   H2863     1.0  0.81504  0.12180  0.67783  1.0000
  H   H2864     1.0  0.82971  0.16376  0.67465  1.0000
  C   C2402     1.0  0.70256  0.14527  0.51148  1.0000
  H   H2865     1.0  0.62933  0.17413  0.67321  1.0000
  C   C2403     1.0  0.67662  0.15229  0.90984  1.0000
  C   C2404     1.0  0.81929  0.16913  0.92885  1.0000
  H   H2866     1.0  0.95622  0.17904  0.83018  1.0000
  C   C2405     1.0  0.95905  0.16930  0.80873  1.0000
  C   C2406     1.0  0.69201  0.15461  0.92937  1.0000
  H   H2867     1.0  0.50411  0.17102  0.62702  1.0000
  H   H2868     1.0  0.94293  0.17684  0.72776  1.0000
  H   H2869     1.0  0.93953  0.15633  0.79601  1.0000
  C   C2407     1.0  0.64406  0.15778  0.53274  1.0000
  S   S665      1.0  0.71695  0.99453  0.77462  1.0000
  H   H2870     1.0  0.68702  0.18021  0.52688  1.0000
  H   H2871     1.0  0.66885  0.15256  0.82162  1.0000
  C   C2408     1.0  0.73373  0.04219  0.85392  1.0000
  H   H2872     1.0  0.75330  0.15236  0.65156  1.0000
  H   H2873     1.0  0.81644  0.08828  0.62479  1.0000
  S   S666      1.0  0.67787  0.17714  0.64457  1.0000
  H   H2874     1.0  0.66820  0.16465  0.91066  1.0000
  H   H2875     1.0  0.79545  0.01061  0.62100  1.0000
  H   H2876     1.0  0.77772  0.17555  0.96541  1.0000
  H   H2877     1.0  0.69338  0.17944  0.78761  1.0000
  H   H2878     1.0  0.76516  0.17410  0.95263  1.0000
  H   H2879     1.0  0.70940  0.15521  0.96071  1.0000
  C   C2409     1.0  0.78954  0.17150  0.87587  1.0000
  N   N159      1.0  0.91239  0.07623  0.71587  1.0000
  C   C2410     1.0  0.90485  0.08363  0.73071  1.0000
  C   C2411     1.0  0.92911  0.06602  0.71778  1.0000
  C   C2412     1.0  0.91442  0.09010  0.70126  1.0000
  C   C2413     1.0  0.90228  0.06598  0.71335  1.0000
  C   C2414     1.0  0.88643  0.06421  0.72368  1.0000
  C   C2415     1.0  0.90806  0.05773  0.69992  1.0000
  C   C2416     1.0  0.87717  0.05459  0.72077  1.0000
  C   C2417     1.0  0.89862  0.04826  0.69706  1.0000
  C   C2418     1.0  0.88325  0.04664  0.70750  1.0000
  H   H2880     1.0  0.90308  0.07389  0.74228  1.0000
  H   H2881     1.0  0.91288  0.09109  0.73231  1.0000
  H   H2882     1.0  0.89264  0.09235  0.72960  1.0000
  H   H2883     1.0  0.93680  0.07334  0.72020  1.0000
  H   H2884     1.0  0.93639  0.06145  0.70642  1.0000
  H   H2885     1.0  0.92813  0.05503  0.72825  1.0000
  H   H2886     1.0  0.92195  0.09812  0.70267  1.0000
  H   H2887     1.0  0.92080  0.08580  0.68956  1.0000
  H   H2888     1.0  0.90211  0.09809  0.69955  1.0000
  H   H2889     1.0  0.88071  0.07041  0.73387  1.0000
  H   H2890     1.0  0.91974  0.05886  0.69126  1.0000
  H   H2891     1.0  0.86496  0.05369  0.72854  1.0000
  H   H2892     1.0  0.90296  0.04255  0.68638  1.0000
  H   H2893     1.0  0.87576  0.03971  0.70491  1.0000
  H   H2894     1.0  0.74916  0.15228  0.91789  1.0000
  H   H2895     1.0  0.75122  0.07235  0.89903  1.0000
  C   C2419     1.0  0.73362  0.06439  0.70840  1.0000
  H   H2896     1.0  0.95064  0.14643  0.73799  1.0000
  H   H2897     1.0  0.85509  0.10164  0.61208  1.0000
  N   N160      1.0  0.69093  0.15574  0.52286  1.0000
  C   C2420     1.0  0.65402  0.17577  0.86131  1.0000
  C   C2421     1.0  0.74972  0.06080  0.68113  1.0000
  C   C2422     1.0  0.71749  0.04205  0.86282  1.0000
  C   C2423     1.0  0.73608  0.11030  0.93914  1.0000
  S   S667      1.0  0.61280  0.17361  0.70746  1.0000
  H   H2898     1.0  0.74834  0.11933  0.70511  1.0000
  H   H2899     1.0  0.80925  0.10703  0.63212  1.0000
  C   C2424     1.0  0.83180  0.16260  0.71395  1.0000
  H   H2900     1.0  0.69727  0.18108  0.87301  1.0000
  H   H2901     1.0  0.68863  0.12022  0.91919  1.0000
  H   H2902     1.0  0.80046  0.13650  0.95211  1.0000
  C   C2425     1.0  0.85194  0.10870  0.64269  1.0000
  C   C2426     1.0  0.83969  0.18072  0.72684  1.0000
  C   C2427     1.0  0.83891  0.14881  0.72537  1.0000
  H   H2903     1.0  0.69882  0.13327  0.51362  1.0000
  C   C2428     1.0  0.84062  0.12204  0.66601  1.0000
  H   H2904     1.0  0.85159  0.14040  0.74564  1.0000
  C   C2429     1.0  0.66946  0.16523  0.50539  1.0000
  H   H2905     1.0  0.77932  0.07906  0.68337  1.0000
  H   H2906     1.0  0.76501  0.09100  0.70804  1.0000
  H   H2907     1.0  0.85181  0.16868  0.74719  1.0000
  H   H2908     1.0  0.72388  0.13573  0.69943  1.0000
  C   C2430     1.0  0.72497  0.17851  0.54574  1.0000
  H   H2909     1.0  0.71556  0.14238  0.51319  1.0000
  H   H2910     1.0  0.79763  0.15289  0.92343  1.0000
  C   C2431     1.0  0.84135  0.10322  0.61521  1.0000
  H   H2911     1.0  0.70230  0.16910  0.61577  1.0000
  C   C2432     1.0  0.68643  0.98697  0.77755  1.0000
  Fe  Fe334     1.0  0.70995  0.02154  0.77741  1.0000
  N   N161      1.0  0.62858  0.12164  0.70487  1.0000
  C   C2433     1.0  0.61763  0.10964  0.70938  1.0000
  C   C2434     1.0  0.62636  0.12882  0.71941  1.0000
  C   C2435     1.0  0.62279  0.13540  0.69149  1.0000
  C   C2436     1.0  0.64620  0.11303  0.70012  1.0000
  C   C2437     1.0  0.65345  0.09931  0.71144  1.0000
  C   C2438     1.0  0.65667  0.11794  0.68441  1.0000
  C   C2439     1.0  0.67009  0.09109  0.70739  1.0000
  C   C2440     1.0  0.67331  0.10960  0.68047  1.0000
  C   C2441     1.0  0.68001  0.09623  0.69194  1.0000
  H   H2912     1.0  0.61993  0.09977  0.72051  1.0000
  H   H2913     1.0  0.60423  0.11588  0.71234  1.0000
  H   H2914     1.0  0.61953  0.10339  0.69901  1.0000
  H   H2915     1.0  0.62877  0.11915  0.73061  1.0000
  H   H2916     1.0  0.61347  0.13623  0.72282  1.0000
  H   H2917     1.0  0.63490  0.13739  0.71675  1.0000
  H   H2918     1.0  0.62365  0.13093  0.68023  1.0000
  H   H2919     1.0  0.60956  0.14176  0.69545  1.0000
  H   H2920     1.0  0.63005  0.14523  0.68801  1.0000
  H   H2921     1.0  0.64639  0.09491  0.72369  1.0000
  H   H2922     1.0  0.65240  0.12827  0.67496  1.0000
  H   H2923     1.0  0.67532  0.08077  0.71642  1.0000
  H   H2924     1.0  0.68105  0.11358  0.66843  1.0000
  H   H2925     1.0  0.69290  0.08983  0.68885  1.0000
  H   H2926     1.0  0.81780  0.03198  0.59997  1.0000
  S   S668      1.0  0.80346  0.17292  0.88698  1.0000
  H   H2927     1.0  0.80371  0.16555  0.97056  1.0000
  H   H2928     1.0  0.77824  0.14296  0.95760  1.0000
  C   C2442     1.0  0.66903  0.16451  0.78771  1.0000
  C   C2443     1.0  0.67493  0.17084  0.77058  1.0000
  C   C2444     1.0  0.66254  0.14992  0.79193  1.0000
  C   C2445     1.0  0.67384  0.16345  0.75842  1.0000
  C   C2446     1.0  0.66156  0.14259  0.77964  1.0000
  C   C2447     1.0  0.66703  0.14947  0.76294  1.0000
  H   H2929     1.0  0.79059  0.14605  0.96954  1.0000
  H   H2930     1.0  0.81757  0.99308  0.66870  1.0000
  C   C2448     1.0  0.69550  0.17211  0.51849  1.0000
  H   H2931     1.0  0.66223  0.14938  0.54729  1.0000
  H   H2932     1.0  0.84339  0.17442  0.91635  1.0000
  C   C2449     1.0  0.96982  0.14096  0.78332  1.0000
  H   H2933     1.0  0.77985  0.14081  0.65607  1.0000
  H   H2934     1.0  0.66947  0.14458  0.90725  1.0000
  H   H2935     1.0  0.69457  0.15964  0.80198  1.0000
  C   C2450     1.0  0.69457  0.12834  0.92278  1.0000
  H   H2936     1.0  0.65792  0.14405  0.80461  1.0000
  C   C2451     1.0  0.66857  0.14094  0.93886  1.0000
  H   H2937     1.0  0.65634  0.13162  0.78306  1.0000
  H   H2938     1.0  0.66603  0.14394  0.75345  1.0000
  N   N162      1.0  0.96425  0.15914  0.78212  1.0000
  H   H2939     1.0  0.62704  0.17622  0.59647  1.0000
  H   H2940     1.0  0.73112  0.16977  0.77927  1.0000
  C   C2452     1.0  0.68721  0.17265  0.79974  1.0000
  C   C2453     1.0  0.97006  0.16368  0.79465  1.0000
  H   H2941     1.0  0.69480  0.13847  0.95351  1.0000
  C   C2454     1.0  0.60508  0.17901  0.68933  1.0000
  H   H2942     1.0  0.70657  0.14601  0.54083  1.0000
  S   S669      1.0  0.90218  0.17676  0.65194  1.0000
  H   H2943     1.0  0.74076  0.16501  0.68232  1.0000
  H   H2944     1.0  0.68570  0.15523  0.54905  1.0000
  H   H2945     1.0  0.97614  0.16164  0.70465  1.0000
  H   H2946     1.0  0.68687  0.15382  0.89869  1.0000
  H   H2947     1.0  0.81378  0.13980  0.71636  1.0000
  C   C2455     1.0  0.98190  0.17335  0.81757  1.0000
  N   N163      1.0  0.79118  0.16291  0.94547  1.0000
  C   C2456     1.0  0.68219  0.17795  0.84700  1.0000
  H   H2948     1.0  0.68058  0.99878  0.78105  1.0000
  H   H2949     1.0  0.81755  0.98532  0.71605  1.0000
  H   H2950     1.0  0.64542  0.16884  0.87036  1.0000
  S   S670      1.0  0.74631  0.14780  0.95253  1.0000
  C   C2457     1.0  0.81570  0.15395  0.63726  1.0000
  H   H2951     1.0  0.73249  0.16306  0.65864  1.0000
  Fe  Fe335     1.0  0.63940  0.17582  0.70053  1.0000
  H   H2952     1.0  0.83938  0.13612  0.72532  1.0000
  C   C2458     1.0  0.79058  0.14327  0.64656  1.0000
  H   H2953     1.0  0.61836  0.17954  0.64804  1.0000
  H   H2954     1.0  0.96588  0.16625  0.75560  1.0000
  N   N164      1.0  0.66965  0.17307  0.80027  1.0000
  H   H2955     1.0  0.70306  0.15148  0.49821  1.0000
  H   H2956     1.0  0.81695  0.16878  0.91723  1.0000
  C   C2459     1.0  0.70413  0.15884  0.62618  1.0000
  C   C2460     1.0  0.84602  0.15107  0.73719  1.0000
  H   H2957     1.0  0.68818  0.17866  0.80929  1.0000
  H   H2958     1.0  0.83740  0.17736  0.68180  1.0000
  H   H2959     1.0  0.97350  0.16684  0.68343  1.0000
  C   C2461     1.0  0.61605  0.17785  0.67403  1.0000
  C   C2462     1.0  0.82764  0.99031  0.61552  1.0000
  H   H2960     1.0  0.80301  0.16631  0.56630  1.0000
  H   H2961     1.0  0.69928  0.12115  0.93410  1.0000
  H   H2962     1.0  0.96910  0.18146  0.76443  1.0000
  C   C2463     1.0  0.67363  0.15823  0.52112  1.0000
  H   H2963     1.0  0.83884  0.98637  0.71113  1.0000
  H   H2964     1.0  0.92166  0.16672  0.72111  1.0000
  H   H2965     1.0  0.96500  0.13686  0.77466  1.0000
  H   H2966     1.0  0.68761  0.14643  0.66716  1.0000
  C   C2464     1.0  0.83868  0.17311  0.94253  1.0000
  H   H2967     1.0  0.69052  0.13504  0.54396  1.0000
  H   H2968     1.0  0.71737  0.08843  0.70934  1.0000
  C   C2465     1.0  0.74544  0.05383  0.69836  1.0000
  C   C2466     1.0  0.74584  0.03029  0.72280  1.0000
  C   C2467     1.0  0.80750  0.16652  0.94413  1.0000
  H   H2969     1.0  0.81508  0.14285  0.69455  1.0000
  H   H2970     1.0  0.78519  0.00961  0.75158  1.0000
  C   C2468     1.0  0.80147  0.15114  0.64939  1.0000
  C   C2469     1.0  0.79312  0.13948  0.63107  1.0000
  C   C2470     1.0  0.83647  0.10482  0.64409  1.0000
  H   H2971     1.0  0.64869  0.16570  0.81889  1.0000
  N   N165      1.0  0.82418  0.16068  0.70126  1.0000
  C   C2471     1.0  0.74295  0.13103  0.91429  1.0000
  H   H2972     1.0  0.83352  0.13433  0.70238  1.0000
  C   C2472     1.0  0.91784  0.17523  0.72932  1.0000
  C   C2473     1.0  0.72189  0.05471  0.88278  1.0000
  C   C2474     1.0  0.73068  0.08695  0.68446  1.0000
  H   H2973     1.0  0.70571  0.13045  0.91281  1.0000
  S   S671      1.0  0.65291  0.17883  0.71810  1.0000
  C   C2475     1.0  0.73848  0.11995  0.94881  1.0000
  C   C2476     1.0  0.95737  0.12048  0.71202  1.0000
  H   H2974     1.0  0.69390  0.17349  0.90604  1.0000
  C   C2477     1.0  0.74323  0.13510  0.94115  1.0000
  S   S672      1.0  0.85367  0.98725  0.66275  1.0000
  N   N166      1.0  0.74997  0.06148  0.87955  1.0000
  C   C2478     1.0  0.81743  0.09444  0.63420  1.0000
  C   C2479     1.0  0.90098  0.18035  0.73630  1.0000
  H   H2975     1.0  0.74126  0.02574  0.69417  1.0000
  H   H2976     1.0  0.75901  0.01181  0.70140  1.0000
  H   H2977     1.0  0.73807  0.03776  0.84245  1.0000
  H   H2978     1.0  0.77626  0.09558  0.65541  1.0000
  N   N167      1.0  0.83486  0.09541  0.63272  1.0000
  H   H2979     1.0  0.78424  0.13414  0.62862  1.0000
  H   H2980     1.0  0.76214  0.02710  0.68288  1.0000
  H   H2981     1.0  0.86581  0.12018  0.65207  1.0000
  N   N168      1.0  0.71619  0.11298  0.77772  1.0000
  C   C2480     1.0  0.70766  0.11455  0.76431  1.0000
  C   C2481     1.0  0.73187  0.10022  0.77524  1.0000
  C   C2482     1.0  0.70520  0.10697  0.79373  1.0000
  C   C2483     1.0  0.71999  0.12874  0.77798  1.0000
  C   C2484     1.0  0.71620  0.14380  0.76620  1.0000
  C   C2485     1.0  0.72790  0.12929  0.79027  1.0000
  C   C2486     1.0  0.72026  0.15835  0.76673  1.0000
  C   C2487     1.0  0.73183  0.14391  0.79073  1.0000
  C   C2488     1.0  0.72806  0.15841  0.77894  1.0000
  H   H2982     1.0  0.71548  0.11838  0.75181  1.0000
  H   H2983     1.0  0.70494  0.10254  0.76452  1.0000
  H   H2984     1.0  0.69551  0.12359  0.76558  1.0000
  H   H2985     1.0  0.74045  0.10421  0.76329  1.0000
  H   H2986     1.0  0.72956  0.08811  0.77503  1.0000
  H   H2987     1.0  0.73869  0.09758  0.78525  1.0000
  H   H2988     1.0  0.70191  0.09519  0.79397  1.0000
  H   H2989     1.0  0.71115  0.10418  0.80441  1.0000
  H   H2990     1.0  0.69340  0.11633  0.79619  1.0000
  H   H2991     1.0  0.71015  0.14470  0.75640  1.0000
  H   H2992     1.0  0.73125  0.11833  0.79962  1.0000
  H   H2993     1.0  0.71734  0.16971  0.75762  1.0000
  H   H2994     1.0  0.73792  0.14392  0.80026  1.0000
  H   H2995     1.0  0.72343  0.18050  0.59308  1.0000
  C   C2489     1.0  0.78377  0.02288  0.74684  1.0000
  C   C2490     1.0  0.74545  0.14059  0.92390  1.0000
  H   H2996     1.0  0.73846  0.05739  0.90572  1.0000
  C   C2491     1.0  0.73829  0.11585  0.92186  1.0000
  H   H2997     1.0  0.84048  0.07222  0.64977  1.0000
  C   C2492     1.0  0.77127  0.03681  0.70492  1.0000
  H   H2998     1.0  0.71956  0.13251  0.68152  1.0000
  H   H2999     1.0  0.76334  0.08136  0.87051  1.0000
  H   H3000     1.0  0.74423  0.08551  0.86383  1.0000
  C   C2493     1.0  0.69669  0.16910  0.91820  1.0000
  C   C2494     1.0  0.69701  0.14980  0.94475  1.0000
  S   S673      1.0  0.73476  0.10399  0.90986  1.0000
  H   H3001     1.0  0.96544  0.13397  0.79608  1.0000
  C   C2495     1.0  0.97413  0.13001  0.73073  1.0000
  H   H3002     1.0  0.75973  0.12371  0.65166  1.0000
  H   H3003     1.0  0.77239  0.04428  0.87069  1.0000
  N   N169      1.0  0.75389  0.03675  0.70536  1.0000
  H   H3004     1.0  0.73253  0.03043  0.72396  1.0000
  H   H3005     1.0  0.77347  0.05259  0.88712  1.0000
  C   C2496     1.0  0.72633  0.08065  0.70145  1.0000
  C   C2497     1.0  0.76495  0.04828  0.88230  1.0000
  C   C2498     1.0  0.74237  0.06748  0.89521  1.0000
  H   H3006     1.0  0.63408  0.15513  0.54336  1.0000
  N   N170      1.0  0.74180  0.14167  0.67661  1.0000
  C   C2499     1.0  0.74816  0.15198  0.68375  1.0000
  C   C2500     1.0  0.74092  0.15051  0.65926  1.0000
  C   C2501     1.0  0.72460  0.14072  0.68594  1.0000
  C   C2502     1.0  0.75242  0.12466  0.67809  1.0000
  C   C2503     1.0  0.75440  0.11471  0.69395  1.0000
  C   C2504     1.0  0.76066  0.11729  0.66420  1.0000
  C   C2505     1.0  0.76399  0.09847  0.69577  1.0000
  C   C2506     1.0  0.77036  0.10108  0.66615  1.0000
  C   C2507     1.0  0.77203  0.09171  0.68189  1.0000
  H   H3007     1.0  0.74763  0.14718  0.69724  1.0000
  H   H3008     1.0  0.76134  0.15248  0.67760  1.0000
  H   H3009     1.0  0.98066  0.10353  0.70522  1.0000
  H   H3010     1.0  0.73591  0.14364  0.65324  1.0000
  H   H3011     1.0  0.98503  0.16317  0.76126  1.0000
  C   C2508     1.0  0.60985  0.18096  0.65975  1.0000
  H   H3012     1.0  0.77586  0.15964  0.93085  1.0000
  H   H3013     1.0  0.77580  0.17659  0.56500  1.0000
  H   H3014     1.0  0.80131  0.02531  0.62806  1.0000
  C   C2509     1.0  0.78816  0.16257  0.92937  1.0000
  C   C2510     1.0  0.83517  0.16458  0.68470  1.0000
  H   H3015     1.0  0.67234  0.13284  0.95034  1.0000
  H   H3016     1.0  0.66089  0.13432  0.93549  1.0000
  C   C2511     1.0  0.83333  0.01250  0.62433  1.0000
  C   C2512     1.0  0.82738  0.17064  0.95768  1.0000
  H   H3017     1.0  0.98362  0.13699  0.78005  1.0000
  H   H3018     1.0  0.67874  0.16873  0.49445  1.0000
  C   C2513     1.0  0.96495  0.17424  0.81986  1.0000
  C   C2514     1.0  0.80879  0.17598  0.56740  1.0000
  C   C2515     1.0  0.80491  0.01211  0.62679  1.0000
  C   C2516     1.0  0.64041  0.16489  0.51714  1.0000
  C   C2517     1.0  0.84624  0.16699  0.73804  1.0000
  H   H3019     1.0  0.79973  0.17119  0.71408  1.0000
  C   C2518     1.0  0.83275  0.17862  0.71483  1.0000
  H   H3020     1.0  0.83044  0.17134  0.96887  1.0000
  C   C2519     1.0  0.66204  0.16552  0.81750  1.0000
  C   C2520     1.0  0.92990  0.18094  0.73316  1.0000
  H   H3021     1.0  0.83005  0.98311  0.69589  1.0000
  S   S674      1.0  0.68501  0.18053  0.68607  1.0000
  C   C2521     1.0  0.82153  0.14365  0.70383  1.0000
  H   H3022     1.0  0.83512  0.01705  0.59177  1.0000
  H   H3023     1.0  0.82864  0.02524  0.62676  1.0000
  S   S675      1.0  0.88556  0.17333  0.73173  1.0000
  H   H3024     1.0  0.97954  0.14575  0.69371  1.0000
  C   C2522     1.0  0.98129  0.15853  0.69218  1.0000
  H   H3025     1.0  0.84757  0.15584  0.68399  1.0000
  H   H3026     1.0  0.94083  0.17701  0.78368  1.0000
  H   H3027     1.0  0.85345  0.99162  0.60351  1.0000
  H   H3028     1.0  0.79606  0.17492  0.60084  1.0000
  C   C2523     1.0  0.77765  0.17584  0.95243  1.0000
  C   C2524     1.0  0.84443  0.98388  0.60820  1.0000
  H   H3029     1.0  0.80365  0.98279  0.62655  1.0000
  H   H3030     1.0  0.71704  0.18022  0.94095  1.0000
  H   H3031     1.0  0.68026  0.18172  0.76646  1.0000
  C   C2525     1.0  0.50062  0.31303  0.17340  1.0000
  H   H3032     1.0  0.63816  0.19065  0.15697  1.0000
  Fe  Fe336     1.0  0.64089  0.21569  0.40296  1.0000
  H   H3033     1.0  0.86972  0.20334  0.22542  1.0000
  Fe  Fe337     1.0  0.81999  0.22840  0.00816  1.0000
  H   H3034     1.0  0.77179  0.31610  0.05460  1.0000
  S   S676      1.0  0.56977  0.20881  0.29180  1.0000
  C   C2526     1.0  0.71829  0.19439  0.13298  1.0000
  H   H3035     1.0  0.51154  0.19063  0.27332  1.0000
  S   S677      1.0  0.54418  0.19871  0.27513  1.0000
  H   H3036     1.0  0.61398  0.20978  0.09672  1.0000
  C   C2527     1.0  0.94832  0.20105  0.12462  1.0000
  Fe  Fe338     1.0  0.54342  0.21805  0.28857  1.0000
  C   C2528     1.0  0.95535  0.25333  0.12793  1.0000
  C   C2529     1.0  0.57583  0.21682  0.42389  1.0000
  H   H3037     1.0  0.62992  0.30803  0.13198  1.0000
  S   S678      1.0  0.63345  0.23909  0.38434  1.0000
  H   H3038     1.0  0.68063  0.28210  0.12118  1.0000
  Fe  Fe339     1.0  0.66084  0.23627  0.37397  1.0000
  S   S679      1.0  0.67565  0.25621  0.36521  1.0000
  Fe  Fe340     1.0  0.63405  0.22191  0.36830  1.0000
  S   S680      1.0  0.61582  0.22892  0.35119  1.0000
  Fe  Fe341     1.0  0.56651  0.29094  0.19237  1.0000
  C   C2530     1.0  0.57756  0.28645  0.25491  1.0000
  S   S681      1.0  0.57491  0.26467  0.20566  1.0000
  Fe  Fe342     1.0  0.57499  0.31295  0.15861  1.0000
  S   S682      1.0  0.55646  0.33543  0.16600  1.0000
  S   S683      1.0  0.59431  0.31383  0.13463  1.0000
  Fe  Fe343     1.0  0.56622  0.32725  0.18939  1.0000
  H   H3039     1.0  0.68286  0.19134  0.12566  1.0000
  S   S684      1.0  0.58590  0.30611  0.18106  1.0000
  S   S685      1.0  0.55709  0.29583  0.16931  1.0000
  C   C2531     1.0  0.54856  0.27017  0.23176  1.0000
  H   H3040     1.0  0.50044  0.21887  0.22476  1.0000
  S   S686      1.0  0.86433  0.23451  0.16069  1.0000
  H   H3041     1.0  0.69511  0.36554  0.06199  1.0000
  Fe  Fe344     1.0  0.71012  0.33665  0.40303  1.0000
  S   S687      1.0  0.73594  0.32306  0.40618  1.0000
  S   S688      1.0  0.70298  0.36388  0.39152  1.0000
  Fe  Fe345     1.0  0.69696  0.30489  0.41382  1.0000
  S   S689      1.0  0.72182  0.28901  0.41701  1.0000
  S   S690      1.0  0.67549  0.29219  0.42051  1.0000
  Fe  Fe346     1.0  0.72302  0.30820  0.42967  1.0000
  S   S691      1.0  0.73142  0.29699  0.45386  1.0000
  Fe  Fe347     1.0  0.73204  0.30541  0.39328  1.0000
  S   S692      1.0  0.75057  0.29853  0.37063  1.0000
  S   S693      1.0  0.69741  0.32331  0.42776  1.0000
  S   S694      1.0  0.70698  0.31973  0.38898  1.0000
  Fe  Fe348     1.0  0.78888  0.25095  0.02358  1.0000
  S   S695      1.0  0.79102  0.23780  0.04943  1.0000
  S   S696      1.0  0.76846  0.27147  0.01468  1.0000
  Fe  Fe349     1.0  0.81831  0.23834  0.04052  1.0000
  S   S697      1.0  0.82553  0.24775  0.05947  1.0000
  Fe  Fe350     1.0  0.79801  0.21426  0.04015  1.0000
  H   H3042     1.0  0.79642  0.31450  0.01666  1.0000
  Fe  Fe351     1.0  0.87980  0.24901  0.13902  1.0000
  S   S698      1.0  0.90108  0.23428  0.12365  1.0000
  Fe  Fe352     1.0  0.88791  0.28140  0.11827  1.0000
  S   S699      1.0  0.90995  0.26913  0.10116  1.0000
  S   S700      1.0  0.88220  0.30920  0.11426  1.0000
  Fe  Fe353     1.0  0.89292  0.25286  0.10184  1.0000
  S   S701      1.0  0.89292  0.24358  0.07945  1.0000
  Fe  Fe354     1.0  0.91592  0.25171  0.12462  1.0000
  S   S702      1.0  0.87039  0.26659  0.11723  1.0000
  S   S703      1.0  0.89499  0.26516  0.14166  1.0000
  Fe  Fe355     1.0  0.64193  0.23736  0.10519  1.0000
  S   S704      1.0  0.65874  0.24798  0.11328  1.0000
  S   S705      1.0  0.61424  0.24614  0.11102  1.0000
  Fe  Fe356     1.0  0.66947  0.20895  0.09428  1.0000
  S   S706      1.0  0.68889  0.21727  0.10088  1.0000
  H   H3043     1.0  0.80068  0.24272  0.97973  1.0000
  Fe  Fe357     1.0  0.66968  0.22158  0.12385  1.0000
  S   S707      1.0  0.67406  0.21156  0.14957  1.0000
  Fe  Fe358     1.0  0.67645  0.24280  0.08961  1.0000
  S   S708      1.0  0.69350  0.25978  0.07478  1.0000
  S   S709      1.0  0.65115  0.21140  0.11812  1.0000
  S   S710      1.0  0.65865  0.23430  0.08047  1.0000
  Fe  Fe359     1.0  0.80163  0.23427  0.31013  1.0000
  S   S711      1.0  0.80769  0.21590  0.33302  1.0000
  S   S712      1.0  0.81387  0.25589  0.29846  1.0000
  Fe  Fe360     1.0  0.77991  0.21964  0.34193  1.0000
  S   S713      1.0  0.76441  0.22315  0.36705  1.0000
  S   S714      1.0  0.77411  0.23954  0.31992  1.0000
  Fe  Fe361     1.0  0.78593  0.31433  0.22071  1.0000
  S   S715      1.0  0.78800  0.28778  0.22022  1.0000
  S   S716      1.0  0.76660  0.32472  0.24122  1.0000
  Fe  Fe362     1.0  0.81099  0.32002  0.18804  1.0000
  S   S717      1.0  0.81505  0.29407  0.18490  1.0000
  S   S718      1.0  0.82370  0.33876  0.16849  1.0000
  Fe  Fe363     1.0  0.78756  0.29750  0.19340  1.0000
  S   S719      1.0  0.77453  0.28763  0.18023  1.0000
  Fe  Fe364     1.0  0.81537  0.28675  0.21185  1.0000
  S   S720      1.0  0.83293  0.26335  0.22100  1.0000
  S   S721      1.0  0.78310  0.32419  0.19443  1.0000
  S   S722      1.0  0.81356  0.31261  0.21453  1.0000
  Fe  Fe365     1.0  0.73122  0.32521  0.07968  1.0000
  S   S723      1.0  0.75109  0.30752  0.09208  1.0000
  S   S724      1.0  0.73216  0.32962  0.05252  1.0000
  S   S725      1.0  0.72794  0.31881  0.12666  1.0000
  Fe  Fe366     1.0  0.74757  0.32782  0.10526  1.0000
  S   S726      1.0  0.76900  0.33412  0.11044  1.0000
  Fe  Fe367     1.0  0.72968  0.30023  0.11212  1.0000
  S   S727      1.0  0.72768  0.27400  0.12388  1.0000
  S   S728      1.0  0.70997  0.31622  0.09863  1.0000
  H   H3044     1.0  0.64427  0.20901  0.17440  1.0000
  H   H3045     1.0  0.88983  0.21813  0.23847  1.0000
  C   C2532     1.0  0.77447  0.29995  0.16032  1.0000
  C   C2533     1.0  0.76802  0.29529  0.14947  1.0000
  C   C2534     1.0  0.76702  0.30552  0.13384  1.0000
  C   C2535     1.0  0.77200  0.32068  0.12924  1.0000
  C   C2536     1.0  0.77873  0.32523  0.13996  1.0000
  C   C2537     1.0  0.78018  0.31473  0.15543  1.0000
  H   H3046     1.0  0.76355  0.28389  0.15321  1.0000
  H   H3047     1.0  0.76221  0.30173  0.12542  1.0000
  H   H3048     1.0  0.78249  0.33700  0.13650  1.0000
  H   H3049     1.0  0.78546  0.31827  0.16361  1.0000
  C   C2538     1.0  0.82079  0.25760  0.27702  1.0000
  C   C2539     1.0  0.81969  0.27339  0.26661  1.0000
  C   C2540     1.0  0.82368  0.27508  0.24939  1.0000
  C   C2541     1.0  0.82926  0.26100  0.24252  1.0000
  C   C2542     1.0  0.83122  0.24514  0.25289  1.0000
  C   C2543     1.0  0.82685  0.24345  0.27018  1.0000
  H   H3050     1.0  0.81533  0.28434  0.27184  1.0000
  H   H3051     1.0  0.82242  0.28733  0.24149  1.0000
  H   H3052     1.0  0.83558  0.23421  0.24764  1.0000
  H   H3053     1.0  0.82824  0.23123  0.27823  1.0000
  Fe  Fe368     1.0  0.56948  0.18802  0.28085  1.0000
  H   H3054     1.0  0.71189  0.36661  0.21462  1.0000
  C   C2544     1.0  0.92721  0.18470  0.13477  1.0000
  C   C2545     1.0  0.82655  0.18963  0.26176  1.0000
  C   C2546     1.0  0.69142  0.19953  0.03868  1.0000
  C   C2547     1.0  0.68443  0.19938  0.05551  1.0000
  C   C2548     1.0  0.89146  0.19074  0.13447  1.0000
  H   H3055     1.0  0.76021  0.18922  0.99081  1.0000
  H   H3056     1.0  0.69106  0.21123  0.02971  1.0000
  H   H3057     1.0  0.67872  0.21095  0.05948  1.0000
  C   C2549     1.0  0.70421  0.26231  0.08827  1.0000
  C   C2550     1.0  0.71575  0.27247  0.08227  1.0000
  C   C2551     1.0  0.72332  0.27562  0.09324  1.0000
  C   C2552     1.0  0.71985  0.26817  0.11010  1.0000
  C   C2553     1.0  0.70921  0.25709  0.11594  1.0000
  C   C2554     1.0  0.70130  0.25425  0.10504  1.0000
  H   H3058     1.0  0.71881  0.27793  0.06919  1.0000
  H   H3059     1.0  0.73180  0.28392  0.08870  1.0000
  H   H3060     1.0  0.70656  0.25122  0.12898  1.0000
  H   H3061     1.0  0.69289  0.24592  0.10975  1.0000
  H   H3062     1.0  0.71181  0.35116  0.35697  1.0000
  H   H3063     1.0  0.68882  0.28739  0.45927  1.0000
  C   C2555     1.0  0.71383  0.21904  0.37588  1.0000
  H   H3064     1.0  0.78739  0.32844  0.33156  1.0000
  H   H3065     1.0  0.71010  0.37576  0.31394  1.0000
  H   H3066     1.0  0.72036  0.32579  0.35065  1.0000
  H   H3067     1.0  0.73486  0.26199  0.45201  1.0000
  H   H3068     1.0  0.58057  0.30978  0.21558  1.0000
  C   C2556     1.0  0.73047  0.21556  0.11193  1.0000
  C   C2557     1.0  0.95465  0.26778  0.11541  1.0000
  C   C2558     1.0  0.96659  0.27746  0.11181  1.0000
  H   H3069     1.0  0.94495  0.27148  0.10848  1.0000
  H   H3070     1.0  0.96600  0.28863  0.10210  1.0000
  C   C2559     1.0  0.86743  0.31720  0.13043  1.0000
  C   C2560     1.0  0.86088  0.30661  0.14488  1.0000
  C   C2561     1.0  0.84773  0.31318  0.15684  1.0000
  C   C2562     1.0  0.84096  0.33030  0.15432  1.0000
  C   C2563     1.0  0.84790  0.34090  0.14008  1.0000
  C   C2564     1.0  0.86113  0.33437  0.12819  1.0000
  H   H3071     1.0  0.86577  0.29334  0.14677  1.0000
  H   H3072     1.0  0.84312  0.30500  0.16813  1.0000
  H   H3073     1.0  0.84284  0.35417  0.13812  1.0000
  H   H3074     1.0  0.86615  0.34261  0.11701  1.0000
  C   C2565     1.0  0.79441  0.33622  0.06566  1.0000
  C   C2566     1.0  0.94197  0.20862  0.11043  1.0000
  H   H3075     1.0  0.72931  0.35184  0.20628  1.0000
  H   H3076     1.0  0.59650  0.20339  0.14902  1.0000
  C   C2567     1.0  0.78289  0.31925  0.05539  1.0000
  H   H3077     1.0  0.68640  0.36419  0.31718  1.0000
  H   H3078     1.0  0.73846  0.25835  0.02298  1.0000
  C   C2568     1.0  0.53929  0.26572  0.24789  1.0000
  H   H3079     1.0  0.67328  0.23713  0.45264  1.0000
  H   H3080     1.0  0.50613  0.27954  0.15677  1.0000
  C   C2569     1.0  0.75769  0.28680  0.02607  1.0000
  C   C2570     1.0  0.75680  0.28413  0.04309  1.0000
  C   C2571     1.0  0.74867  0.29713  0.05149  1.0000
  C   C2572     1.0  0.74154  0.31272  0.04286  1.0000
  C   C2573     1.0  0.74210  0.31514  0.02598  1.0000
  C   C2574     1.0  0.75005  0.30220  0.01765  1.0000
  H   H3081     1.0  0.76240  0.27211  0.04971  1.0000
  H   H3082     1.0  0.74822  0.29518  0.06452  1.0000
  H   H3083     1.0  0.73656  0.32713  0.01924  1.0000
  H   H3084     1.0  0.75060  0.30427  0.00451  1.0000
  C   C2575     1.0  0.84472  0.24378  0.06545  1.0000
  C   C2576     1.0  0.86006  0.24098  0.05431  1.0000
  C   C2577     1.0  0.87481  0.24051  0.05890  1.0000
  C   C2578     1.0  0.87434  0.24288  0.07460  1.0000
  C   C2579     1.0  0.85909  0.24498  0.08595  1.0000
  C   C2580     1.0  0.84437  0.24543  0.08138  1.0000
  H   H3085     1.0  0.86053  0.23975  0.04198  1.0000
  H   H3086     1.0  0.88659  0.23874  0.05008  1.0000
  H   H3087     1.0  0.85862  0.24663  0.09810  1.0000
  H   H3088     1.0  0.83256  0.24752  0.09007  1.0000
  C   C2581     1.0  0.75420  0.27754  0.36989  1.0000
  C   C2582     1.0  0.76711  0.27134  0.35762  1.0000
  C   C2583     1.0  0.77030  0.25463  0.35673  1.0000
  C   C2584     1.0  0.76064  0.24402  0.36821  1.0000
  C   C2585     1.0  0.74773  0.25019  0.38054  1.0000
  C   C2586     1.0  0.74439  0.26698  0.38128  1.0000
  H   H3089     1.0  0.77489  0.27937  0.34900  1.0000
  H   H3090     1.0  0.78050  0.24987  0.34739  1.0000
  H   H3091     1.0  0.74023  0.24200  0.38938  1.0000
  H   H3092     1.0  0.73422  0.27175  0.39058  1.0000
  H   H3093     1.0  0.91910  0.20016  0.16637  1.0000
  H   H3094     1.0  0.82207  0.20013  0.26830  1.0000
  C   C2587     1.0  0.75610  0.35171  0.25535  1.0000
  C   C2588     1.0  0.76829  0.34377  0.24369  1.0000
  C   C2589     1.0  0.78119  0.35142  0.23375  1.0000
  H   H3095     1.0  0.69574  0.30195  0.46549  1.0000
  C   C2590     1.0  0.72263  0.20977  0.12831  1.0000
  H   H3096     1.0  0.74603  0.34585  0.26294  1.0000
  H   H3097     1.0  0.79062  0.34536  0.22469  1.0000
  H   H3098     1.0  0.77626  0.22280  0.99302  1.0000
  H   H3099     1.0  0.65909  0.18821  0.35372  1.0000
  H   H3100     1.0  0.79254  0.34573  0.07250  1.0000
  C   C2591     1.0  0.73435  0.36108  0.37145  1.0000
  C   C2592     1.0  0.52367  0.25885  0.21121  1.0000
  C   C2593     1.0  0.75729  0.20104  0.29006  1.0000
  S   S729      1.0  0.69214  0.36113  0.24700  1.0000
  H   H3101     1.0  0.90701  0.19698  0.09292  1.0000
  H   H3102     1.0  0.73774  0.34952  0.37990  1.0000
  C   C2594     1.0  0.72039  0.22515  0.03463  1.0000
  C   C2595     1.0  0.89861  0.22645  0.20424  1.0000
  C   C2596     1.0  0.59929  0.29557  0.12709  1.0000
  C   C2597     1.0  0.61437  0.29173  0.11581  1.0000
  C   C2598     1.0  0.61901  0.27659  0.11071  1.0000
  C   C2599     1.0  0.60834  0.26549  0.11649  1.0000
  C   C2600     1.0  0.59299  0.26962  0.12719  1.0000
  C   C2601     1.0  0.58854  0.28458  0.13255  1.0000
  H   H3103     1.0  0.62245  0.30045  0.11099  1.0000
  H   H3104     1.0  0.63065  0.27366  0.10200  1.0000
  H   H3105     1.0  0.58458  0.26119  0.13144  1.0000
  H   H3106     1.0  0.57660  0.28775  0.14057  1.0000
  C   C2602     1.0  0.67542  0.26609  0.38072  1.0000
  C   C2603     1.0  0.68699  0.27589  0.37781  1.0000
  C   C2604     1.0  0.68711  0.28384  0.39001  1.0000
  C   C2605     1.0  0.67532  0.28245  0.40501  1.0000
  C   C2606     1.0  0.66368  0.27269  0.40790  1.0000
  C   C2607     1.0  0.66387  0.26432  0.39587  1.0000
  H   H3107     1.0  0.69588  0.27736  0.36610  1.0000
  H   H3108     1.0  0.69629  0.29112  0.38773  1.0000
  H   H3109     1.0  0.65450  0.27157  0.41947  1.0000
  H   H3110     1.0  0.65487  0.25679  0.39820  1.0000
  C   C2608     1.0  0.54451  0.25030  0.25798  1.0000
  C   C2609     1.0  0.56313  0.25932  0.22578  1.0000
  C   C2610     1.0  0.56837  0.24393  0.23588  1.0000
  C   C2611     1.0  0.55903  0.23939  0.25195  1.0000
  H   H3111     1.0  0.57964  0.23549  0.23131  1.0000
  H   H3112     1.0  0.56311  0.22744  0.25961  1.0000
  C   C2612     1.0  0.50673  0.29323  0.21516  1.0000
  S   S730      1.0  0.88331  0.18449  0.25702  1.0000
  C   C2613     1.0  0.58597  0.21423  0.33098  1.0000
  C   C2614     1.0  0.59599  0.22313  0.33406  1.0000
  C   C2615     1.0  0.60488  0.21634  0.34679  1.0000
  C   C2616     1.0  0.60400  0.20030  0.35615  1.0000
  H   H3113     1.0  0.62107  0.18824  0.31734  1.0000
  H   H3114     1.0  0.57888  0.21982  0.32143  1.0000
  H   H3115     1.0  0.59656  0.23554  0.32677  1.0000
  C   C2617     1.0  0.49967  0.29019  0.16221  1.0000
  C   C2618     1.0  0.60213  0.20961  0.20604  1.0000
  C   C2619     1.0  0.50885  0.29914  0.16650  1.0000
  C   C2620     1.0  0.94109  0.18895  0.13666  1.0000
  Fe  Fe369     1.0  0.67522  0.37404  0.22933  1.0000
  H   H3116     1.0  0.73864  0.19667  0.99873  1.0000
  H   H3117     1.0  0.88180  0.23983  0.23052  1.0000
  C   C2621     1.0  0.72163  0.18478  0.12128  1.0000
  N   N171      1.0  0.74231  0.21260  0.08237  1.0000
  H   H3118     1.0  0.71982  0.33227  0.45497  1.0000
  H   H3119     1.0  0.88134  0.28281  0.19109  1.0000
  C   C2622     1.0  0.68806  0.20952  0.29146  1.0000
  C   C2623     1.0  0.73294  0.31485  0.33012  1.0000
  S   S731      1.0  0.94014  0.24129  0.13341  1.0000
  C   C2624     1.0  0.88056  0.22697  0.23159  1.0000
  N   N172      1.0  0.70250  0.35640  0.33473  1.0000
  H   H3120     1.0  0.72576  0.25325  0.43211  1.0000
  H   H3121     1.0  0.66330  0.19994  0.42901  1.0000
  H   H3122     1.0  0.85586  0.23213  0.21680  1.0000
  H   H3123     1.0  0.73054  0.33123  0.28990  1.0000
  C   C2625     1.0  0.79181  0.30389  0.02588  1.0000
  H   H3124     1.0  0.54627  0.24126  0.20397  1.0000
  C   C2626     1.0  0.72450  0.23511  0.34796  1.0000
  C   C2627     1.0  0.73039  0.23731  0.33055  1.0000
  C   C2628     1.0  0.72333  0.24866  0.35506  1.0000
  C   C2629     1.0  0.73457  0.25218  0.32079  1.0000
  C   C2630     1.0  0.72797  0.26334  0.34525  1.0000
  C   C2631     1.0  0.73351  0.26512  0.32816  1.0000
  H   H3125     1.0  0.73190  0.22745  0.32436  1.0000
  H   H3126     1.0  0.71903  0.24822  0.36818  1.0000
  H   H3127     1.0  0.73931  0.25338  0.30752  1.0000
  H   H3128     1.0  0.72745  0.27328  0.35105  1.0000
  H   H3129     1.0  0.73730  0.27641  0.32065  1.0000
  N   N173      1.0  0.68148  0.31655  0.06176  1.0000
  C   C2632     1.0  0.67273  0.32343  0.04787  1.0000
  C   C2633     1.0  0.69919  0.30938  0.05504  1.0000
  C   C2634     1.0  0.67393  0.30272  0.07307  1.0000
  C   C2635     1.0  0.68045  0.33004  0.06992  1.0000
  C   C2636     1.0  0.67165  0.33042  0.08655  1.0000
  C   C2637     1.0  0.68853  0.34332  0.06119  1.0000
  C   C2638     1.0  0.67140  0.34316  0.09393  1.0000
  C   C2639     1.0  0.68830  0.35589  0.06875  1.0000
  C   C2640     1.0  0.67977  0.35580  0.08510  1.0000
  H   H3130     1.0  0.67836  0.33323  0.03832  1.0000
  H   H3131     1.0  0.67319  0.31361  0.04143  1.0000
  H   H3132     1.0  0.65941  0.32908  0.05239  1.0000
  H   H3133     1.0  0.70672  0.30646  0.06457  1.0000
  H   H3134     1.0  0.70504  0.31796  0.04413  1.0000
  H   H3135     1.0  0.70073  0.29773  0.05084  1.0000
  H   H3136     1.0  0.66038  0.30694  0.07799  1.0000
  H   H3137     1.0  0.67502  0.29275  0.06656  1.0000
  H   H3138     1.0  0.68031  0.29670  0.08359  1.0000
  H   H3139     1.0  0.66525  0.32084  0.09427  1.0000
  H   H3140     1.0  0.69555  0.34383  0.04855  1.0000
  H   H3141     1.0  0.66520  0.34295  0.10678  1.0000
  N   N174      1.0  0.57494  0.30204  0.24218  1.0000
  C   C2641     1.0  0.58280  0.31439  0.24458  1.0000
  H   H3142     1.0  0.62059  0.18259  0.27646  1.0000
  C   C2642     1.0  0.56425  0.27919  0.26556  1.0000
  H   H3143     1.0  0.77944  0.33643  0.27804  1.0000
  N   N175      1.0  0.71952  0.21943  0.35783  1.0000
  C   C2643     1.0  0.61527  0.19582  0.20748  1.0000
  C   C2644     1.0  0.61856  0.18445  0.14142  1.0000
  H   H3144     1.0  0.79516  0.27341  0.04556  1.0000
  C   C2645     1.0  0.66783  0.20183  0.45182  1.0000
  H   H3145     1.0  0.55138  0.28464  0.26509  1.0000
  H   H3146     1.0  0.88273  0.20327  0.20498  1.0000
  N   N176      1.0  0.82544  0.31004  0.10974  1.0000
  C   C2646     1.0  0.81345  0.32521  0.10376  1.0000
  C   C2647     1.0  0.81639  0.29915  0.12391  1.0000
  C   C2648     1.0  0.83714  0.31522  0.11617  1.0000
  C   C2649     1.0  0.83375  0.30119  0.09607  1.0000
  C   C2650     1.0  0.85111  0.29913  0.08895  1.0000
  C   C2651     1.0  0.82434  0.29448  0.08934  1.0000
  C   C2652     1.0  0.85849  0.29069  0.07604  1.0000
  C   C2653     1.0  0.83188  0.28600  0.07649  1.0000
  C   C2654     1.0  0.84888  0.28426  0.06974  1.0000
  H   H3147     1.0  0.81980  0.33361  0.09303  1.0000
  H   H3148     1.0  0.80353  0.32226  0.09976  1.0000
  H   H3149     1.0  0.80705  0.33239  0.11361  1.0000
  H   H3150     1.0  0.80558  0.29660  0.12104  1.0000
  H   H3151     1.0  0.81126  0.30488  0.13494  1.0000
  H   H3152     1.0  0.82483  0.28707  0.12784  1.0000
  H   H3153     1.0  0.84388  0.32420  0.10655  1.0000
  H   H3154     1.0  0.83065  0.32151  0.12670  1.0000
  H   H3155     1.0  0.84645  0.30424  0.12086  1.0000
  H   H3156     1.0  0.85939  0.30369  0.09325  1.0000
  H   H3157     1.0  0.81105  0.29577  0.09398  1.0000
  H   H3158     1.0  0.87183  0.28882  0.07108  1.0000
  H   H3159     1.0  0.82459  0.28048  0.07188  1.0000
  H   H3160     1.0  0.85476  0.27745  0.05994  1.0000
  H   H3161     1.0  0.74628  0.21140  0.26874  1.0000
  H   H3162     1.0  0.49882  0.25401  0.25029  1.0000
  Fe  Fe370     1.0  0.77410  0.21871  0.30899  1.0000
  H   H3163     1.0  0.88894  0.20358  0.13645  1.0000
  C   C2655     1.0  0.67784  0.36600  0.15024  1.0000
  H   H3164     1.0  0.61500  0.31786  0.15489  1.0000
  H   H3165     1.0  0.75955  0.22159  0.09017  1.0000
  S   S732      1.0  0.64737  0.38045  0.23407  1.0000
  H   H3166     1.0  0.77922  0.26278  0.13076  1.0000
  H   H3167     1.0  0.69518  0.22821  0.35238  1.0000
  C   C2656     1.0  0.59586  0.22620  0.39991  1.0000
  H   H3168     1.0  0.73877  0.23432  0.06261  1.0000
  H   H3169     1.0  0.72607  0.37361  0.23021  1.0000
  H   H3170     1.0  0.76833  0.36756  0.20575  1.0000
  N   N177      1.0  0.58620  0.21302  0.40787  1.0000
  H   H3171     1.0  0.86818  0.22558  0.23977  1.0000
  C   C2657     1.0  0.77871  0.36581  0.16537  1.0000
  H   H3172     1.0  0.93562  0.28208  0.16350  1.0000
  H   H3173     1.0  0.71214  0.18999  0.14569  1.0000
  Fe  Fe371     1.0  0.53464  0.18456  0.30063  1.0000
  C   C2658     1.0  0.66101  0.20706  0.46686  1.0000
  C   C2659     1.0  0.78179  0.36708  0.23536  1.0000
  H   H3174     1.0  0.59657  0.31044  0.24239  1.0000
  C   C2660     1.0  0.77217  0.21085  0.99742  1.0000
  N   N178      1.0  0.62173  0.23837  0.16715  1.0000
  C   C2661     1.0  0.62590  0.23322  0.15111  1.0000
  C   C2662     1.0  0.60694  0.25241  0.16698  1.0000
  C   C2663     1.0  0.63574  0.24478  0.16822  1.0000
  C   C2664     1.0  0.61918  0.22389  0.18102  1.0000
  H   H3175     1.0  0.98970  0.25461  0.14009  1.0000
  C   C2665     1.0  0.60396  0.22350  0.19304  1.0000
  H   H3176     1.0  0.58084  0.37030  0.21064  1.0000
  H   H3177     1.0  0.80045  0.19743  0.24647  1.0000
  C   C2666     1.0  0.52048  0.23683  0.24205  1.0000
  C   C2667     1.0  0.68462  0.18426  0.06705  1.0000
  H   H3178     1.0  0.62757  0.24388  0.14040  1.0000
  C   C2668     1.0  0.73325  0.22957  0.07587  1.0000
  H   H3179     1.0  0.60342  0.25738  0.17845  1.0000
  H   H3180     1.0  0.59601  0.24871  0.16559  1.0000
  H   H3181     1.0  0.60928  0.26305  0.15638  1.0000
  H   H3182     1.0  0.63766  0.25603  0.15830  1.0000
  H   H3183     1.0  0.63345  0.24809  0.18043  1.0000
  H   H3184     1.0  0.64779  0.23557  0.16668  1.0000
  H   H3185     1.0  0.71622  0.21441  0.27228  1.0000
  H   H3186     1.0  0.59336  0.23386  0.19287  1.0000
  H   H3187     1.0  0.68067  0.34842  0.33509  1.0000
  C   C2669     1.0  0.84403  0.19168  0.29513  1.0000
  H   H3188     1.0  0.65001  0.34922  0.14085  1.0000
  H   H3189     1.0  0.63471  0.34769  0.12032  1.0000
  H   H3190     1.0  0.81608  0.21684  0.17116  1.0000
  N   N179      1.0  0.90482  0.18841  0.11947  1.0000
  C   C2670     1.0  0.50995  0.26329  0.22412  1.0000
  C   C2671     1.0  0.75135  0.19611  0.00009  1.0000
  C   C2672     1.0  0.70418  0.24760  0.42003  1.0000
  H   H3191     1.0  0.51557  0.29272  0.20301  1.0000
  H   H3192     1.0  0.60533  0.19301  0.39950  1.0000
  C   C2673     1.0  0.96813  0.24855  0.13669  1.0000
  H   H3193     1.0  0.60760  0.19797  0.41771  1.0000
  C   C2674     1.0  0.92817  0.20437  0.10833  1.0000
  H   H3194     1.0  0.71769  0.24264  0.41566  1.0000
  H   H3195     1.0  0.58019  0.32659  0.23576  1.0000
  H   H3196     1.0  0.55691  0.25882  0.28500  1.0000
  C   C2675     1.0  0.61502  0.20252  0.10905  1.0000
  H   H3197     1.0  0.52553  0.26699  0.19905  1.0000
  H   H3198     1.0  0.67476  0.25787  0.44098  1.0000
  C   C2676     1.0  0.65792  0.20427  0.44041  1.0000
  H   H3199     1.0  0.80746  0.18802  0.02140  1.0000
  H   H3200     1.0  0.54347  0.22182  0.23138  1.0000
  H   H3201     1.0  0.66572  0.36320  0.15268  1.0000
  C   C2677     1.0  0.96447  0.19620  0.17529  1.0000
  C   C2678     1.0  0.50133  0.18431  0.27806  1.0000
  C   C2679     1.0  0.70412  0.24469  0.44952  1.0000
  C   C2680     1.0  0.78070  0.33159  0.06405  1.0000
  C   C2681     1.0  0.88535  0.29282  0.18119  1.0000
  H   H3202     1.0  0.71022  0.20709  0.38295  1.0000
  Fe  Fe372     1.0  0.55902  0.19364  0.31610  1.0000
  C   C2682     1.0  0.87968  0.32135  0.16638  1.0000
  C   C2683     1.0  0.70910  0.37336  0.14422  1.0000
  C   C2684     1.0  0.53552  0.24401  0.21381  1.0000
  C   C2685     1.0  0.91367  0.21757  0.20933  1.0000
  C   C2686     1.0  0.70314  0.22148  0.43947  1.0000
  H   H3203     1.0  0.51964  0.22854  0.25420  1.0000
  C   C2687     1.0  0.70992  0.20386  0.30597  1.0000
  H   H3204     1.0  0.57741  0.28888  0.22334  1.0000
  H   H3205     1.0  0.72390  0.22032  0.38103  1.0000
  H   H3206     1.0  0.72116  0.37630  0.14180  1.0000
  C   C2688     1.0  0.73387  0.20621  0.09960  1.0000
  C   C2689     1.0  0.75901  0.34333  0.32195  1.0000
  C   C2690     1.0  0.77792  0.32503  0.30461  1.0000
  C   C2691     1.0  0.77835  0.30935  0.31588  1.0000
  C   C2692     1.0  0.78090  0.29473  0.31039  1.0000
  C   C2693     1.0  0.78271  0.29531  0.29365  1.0000
  H   H3207     1.0  0.75761  0.33299  0.33306  1.0000
  H   H3208     1.0  0.75674  0.35478  0.32668  1.0000
  H   H3209     1.0  0.74899  0.34494  0.31541  1.0000
  H   H3210     1.0  0.77681  0.30823  0.32905  1.0000
  H   H3211     1.0  0.78177  0.28276  0.31905  1.0000
  H   H3212     1.0  0.78493  0.28390  0.28944  1.0000
  N   N180      1.0  0.75435  0.21295  0.99762  1.0000
  C   C2694     1.0  0.88276  0.18693  0.18204  1.0000
  H   H3213     1.0  0.67323  0.18428  0.17861  1.0000
  H   H3214     1.0  0.71981  0.21729  0.13744  1.0000
  C   C2695     1.0  0.74372  0.22202  0.01058  1.0000
  C   C2696     1.0  0.73034  0.21610  0.02274  1.0000
  C   C2697     1.0  0.74630  0.23755  0.01105  1.0000
  H   H3215     1.0  0.70262  0.22909  0.37846  1.0000
  C   C2698     1.0  0.73624  0.24649  0.02296  1.0000
  C   C2699     1.0  0.72327  0.24034  0.03468  1.0000
  H   H3216     1.0  0.61618  0.35347  0.13548  1.0000
  H   H3217     1.0  0.76612  0.21830  0.06951  1.0000
  C   C2700     1.0  0.85743  0.19415  0.28164  1.0000
  C   C2701     1.0  0.89991  0.18625  0.17796  1.0000
  C   C2702     1.0  0.72928  0.19053  0.10480  1.0000
  H   H3218     1.0  0.63772  0.22373  0.14956  1.0000
  H   H3219     1.0  0.77465  0.20513  0.01002  1.0000
  H   H3220     1.0  0.75087  0.34921  0.44907  1.0000
  H   H3221     1.0  0.74429  0.35852  0.22419  1.0000
  H   H3222     1.0  0.71999  0.20822  0.30826  1.0000
  H   H3223     1.0  0.75604  0.24304  0.00210  1.0000
  C   C2703     1.0  0.73373  0.20507  0.35567  1.0000
  C   C2704     1.0  0.98432  0.18866  0.19350  1.0000
  H   H3224     1.0  0.74460  0.30626  0.30747  1.0000
  N   N181      1.0  0.69944  0.21721  0.29574  1.0000
  H   H3225     1.0  0.77151  0.29719  0.45270  1.0000
  C   C2705     1.0  0.93172  0.31342  0.14477  1.0000
  C   C2706     1.0  0.71028  0.22394  0.27996  1.0000
  C   C2707     1.0  0.69061  0.23057  0.30492  1.0000
  C   C2708     1.0  0.67298  0.23459  0.31033  1.0000
  C   C2709     1.0  0.69974  0.23981  0.30906  1.0000
  C   C2710     1.0  0.66513  0.24709  0.31926  1.0000
  C   C2711     1.0  0.69176  0.25212  0.31819  1.0000
  C   C2712     1.0  0.67450  0.25572  0.32331  1.0000
  C   C2713     1.0  0.58268  0.29842  0.22550  1.0000
  C   C2714     1.0  0.79901  0.31110  0.04805  1.0000
  H   H3226     1.0  0.87955  0.18860  0.13354  1.0000
  Fe  Fe373     1.0  0.65013  0.37254  0.21021  1.0000
  C   C2715     1.0  0.81276  0.31627  0.04975  1.0000
  C   C2716     1.0  0.72626  0.30778  0.46998  1.0000
  S   S733      1.0  0.51140  0.32429  0.17976  1.0000
  C   C2717     1.0  0.56725  0.26424  0.27715  1.0000
  H   H3227     1.0  0.72065  0.22805  0.28200  1.0000
  H   H3228     1.0  0.66491  0.22812  0.30810  1.0000
  H   H3229     1.0  0.71316  0.23742  0.30538  1.0000
  H   H3230     1.0  0.65169  0.24971  0.32359  1.0000
  H   H3231     1.0  0.69893  0.25881  0.32158  1.0000
  H   H3232     1.0  0.66839  0.26502  0.33071  1.0000
  N   N182      1.0  0.72136  0.32425  0.17921  1.0000
  C   C2718     1.0  0.72677  0.30731  0.17580  1.0000
  C   C2719     1.0  0.70431  0.33135  0.17608  1.0000
  C   C2720     1.0  0.73239  0.33488  0.16718  1.0000
  C   C2721     1.0  0.72245  0.32324  0.19640  1.0000
  C   C2722     1.0  0.70820  0.32680  0.20916  1.0000
  C   C2723     1.0  0.73813  0.31808  0.20094  1.0000
  C   C2724     1.0  0.70973  0.32603  0.22518  1.0000
  C   C2725     1.0  0.73949  0.31708  0.21705  1.0000
  C   C2726     1.0  0.72534  0.32124  0.22910  1.0000
  H   H3233     1.0  0.71878  0.29894  0.18458  1.0000
  H   H3234     1.0  0.72627  0.30740  0.16297  1.0000
  H   H3235     1.0  0.73978  0.30147  0.17709  1.0000
  H   H3236     1.0  0.69543  0.32340  0.18371  1.0000
  H   H3237     1.0  0.70404  0.33251  0.16291  1.0000
  H   H3238     1.0  0.69942  0.34407  0.17865  1.0000
  H   H3239     1.0  0.74576  0.32961  0.16729  1.0000
  C   C2727     1.0  0.70622  0.36417  0.13444  1.0000
  H   H3240     1.0  0.72914  0.34754  0.16981  1.0000
  H   H3241     1.0  0.69571  0.33022  0.20714  1.0000
  H   H3242     1.0  0.74949  0.31462  0.19210  1.0000
  H   H3243     1.0  0.69872  0.32925  0.23464  1.0000
  H   H3244     1.0  0.75160  0.31312  0.22025  1.0000
  H   H3245     1.0  0.72650  0.32077  0.24149  1.0000
  C   C2728     1.0  0.90010  0.23731  0.18830  1.0000
  C   C2729     1.0  0.91571  0.23894  0.17815  1.0000
  C   C2730     1.0  0.92918  0.21945  0.19914  1.0000
  C   C2731     1.0  0.93019  0.23008  0.18354  1.0000
  H   H3246     1.0  0.88941  0.24432  0.18316  1.0000
  H   H3247     1.0  0.91664  0.24678  0.16579  1.0000
  H   H3248     1.0  0.94753  0.21820  0.10122  1.0000
  H   H3249     1.0  0.94221  0.23134  0.17547  1.0000
  H   H3250     1.0  0.79513  0.20315  0.26627  1.0000
  S   S734      1.0  0.78576  0.19264  0.05302  1.0000
  H   H3251     1.0  0.76668  0.35832  0.29014  1.0000
  C   C2732     1.0  0.92003  0.19259  0.12075  1.0000
  N   N183      1.0  0.77559  0.34030  0.31068  1.0000
  H   H3252     1.0  0.89177  0.19724  0.22262  1.0000
  C   C2733     1.0  0.80810  0.24872  0.15524  1.0000
  H   H3253     1.0  0.70205  0.26131  0.41837  1.0000
  C   C2734     1.0  0.64097  0.21172  0.44403  1.0000
  H   H3254     1.0  0.71699  0.36242  0.26276  1.0000
  S   S735      1.0  0.82540  0.21352  0.03305  1.0000
  C   C2735     1.0  0.77660  0.35544  0.29720  1.0000
  H   H3255     1.0  0.77494  0.36667  0.30216  1.0000
  S   S736      1.0  0.79318  0.22744  0.01521  1.0000
  S   S737      1.0  0.54744  0.31150  0.20263  1.0000
  Fe  Fe374     1.0  0.53927  0.31767  0.17851  1.0000
  H   H3256     1.0  0.52226  0.29535  0.16436  1.0000
  C   C2736     1.0  0.90590  0.20054  0.16932  1.0000
  H   H3257     1.0  0.81796  0.25046  0.19047  1.0000
  H   H3258     1.0  0.73680  0.37686  0.17078  1.0000
  C   C2737     1.0  0.71819  0.37075  0.37437  1.0000
  H   H3259     1.0  0.79562  0.23638  0.19779  1.0000
  Fe  Fe375     1.0  0.71011  0.33562  0.11144  1.0000
  H   H3260     1.0  0.80937  0.26692  0.17505  1.0000
  S   S738      1.0  0.72954  0.34642  0.09114  1.0000
  C   C2738     1.0  0.78850  0.33827  0.32001  1.0000
  H   H3261     1.0  0.78753  0.34990  0.32400  1.0000
  C   C2739     1.0  0.66469  0.31580  0.46245  1.0000
  H   H3262     1.0  0.54423  0.28179  0.22389  1.0000
  H   H3263     1.0  0.78505  0.25340  0.18468  1.0000
  C   C2740     1.0  0.64079  0.34313  0.15087  1.0000
  C   C2741     1.0  0.77966  0.32519  0.28760  1.0000
  C   C2742     1.0  0.78199  0.31050  0.28231  1.0000
  H   H3264     1.0  0.78890  0.35412  0.28834  1.0000
  S   S739      1.0  0.81551  0.25316  0.01485  1.0000
  H   H3265     1.0  0.69787  0.24539  0.41134  1.0000
  C   C2743     1.0  0.81713  0.25408  0.17718  1.0000
  C   C2744     1.0  0.89508  0.31857  0.15534  1.0000
  C   C2745     1.0  0.65468  0.29411  0.12592  1.0000
  H   H3266     1.0  0.64677  0.33616  0.16149  1.0000
  C   C2746     1.0  0.55712  0.30998  0.24249  1.0000
  C   C2747     1.0  0.79384  0.24111  0.18482  1.0000
  H   H3267     1.0  0.82997  0.25457  0.16983  1.0000
  C   C2748     1.0  0.62566  0.34271  0.13137  1.0000
  C   C2749     1.0  0.64272  0.30703  0.13214  1.0000
  H   H3268     1.0  0.56640  0.22866  0.42185  1.0000
  H   H3269     1.0  0.80122  0.33497  0.31228  1.0000
  H   H3270     1.0  0.78082  0.25344  0.15966  1.0000
  H   H3271     1.0  0.96878  0.23737  0.14637  1.0000
  C   C2750     1.0  0.57398  0.22269  0.38202  1.0000
  S   S740      1.0  0.80109  0.21548  0.29675  1.0000
  C   C2751     1.0  0.71856  0.25147  0.44469  1.0000
  H   H3272     1.0  0.65098  0.28555  0.12111  1.0000
  C   C2752     1.0  0.67136  0.29211  0.12599  1.0000
  H   H3273     1.0  0.55561  0.32179  0.23289  1.0000
  H   H3274     1.0  0.57808  0.31668  0.25737  1.0000
  H   H3275     1.0  0.82254  0.22077  0.18775  1.0000
  N   N184      1.0  0.80985  0.24254  0.17271  1.0000
  N   N185      1.0  0.63416  0.33215  0.14479  1.0000
  C   C2753     1.0  0.64711  0.31843  0.13855  1.0000
  C   C2754     1.0  0.66423  0.31589  0.13862  1.0000
  C   C2755     1.0  0.67610  0.30292  0.13238  1.0000
  H   H3276     1.0  0.68912  0.30120  0.13251  1.0000
  H   H3277     1.0  0.59411  0.21866  0.12115  1.0000
  H   H3278     1.0  0.73138  0.33637  0.15417  1.0000
  C   C2756     1.0  0.58345  0.25605  0.27848  1.0000
  H   H3279     1.0  0.82608  0.28471  0.04171  1.0000
  H   H3280     1.0  0.78773  0.23245  0.18230  1.0000
  H   H3281     1.0  0.66882  0.32377  0.14337  1.0000
  H   H3282     1.0  0.63683  0.18493  0.10029  1.0000
  H   H3283     1.0  0.83373  0.22582  0.16700  1.0000
  C   C2757     1.0  0.59677  0.26281  0.26826  1.0000
  H   H3284     1.0  0.82451  0.30035  0.02267  1.0000
  S   S741      1.0  0.57033  0.34507  0.20241  1.0000
  N   N186      1.0  0.80098  0.29763  0.03950  1.0000
  C   C2758     1.0  0.82100  0.22578  0.17473  1.0000
  C   C2759     1.0  0.79244  0.25365  0.15064  1.0000
  H   H3285     1.0  0.86273  0.31070  0.18762  1.0000
  H   H3286     1.0  0.61879  0.33582  0.12727  1.0000
  C   C2760     1.0  0.79131  0.25917  0.13398  1.0000
  H   H3287     1.0  0.55060  0.30181  0.23975  1.0000
  H   H3288     1.0  0.60351  0.32426  0.19493  1.0000
  H   H3289     1.0  0.63120  0.32743  0.19581  1.0000
  C   C2761     1.0  0.62158  0.32519  0.15873  1.0000
  H   H3290     1.0  0.61169  0.33519  0.16380  1.0000
  H   H3291     1.0  0.78349  0.31084  0.26926  1.0000
  C   C2762     1.0  0.72304  0.36518  0.20433  1.0000
  H   H3292     1.0  0.94461  0.31122  0.13700  1.0000
  C   C2763     1.0  0.59031  0.34718  0.20242  1.0000
  H   H3293     1.0  0.73384  0.22745  0.10902  1.0000
  H   H3294     1.0  0.89965  0.22642  0.15802  1.0000
  S   S742      1.0  0.66098  0.22132  0.35631  1.0000
  H   H3295     1.0  0.91353  0.20885  0.22116  1.0000
  H   H3296     1.0  0.73917  0.30389  0.33783  1.0000
  N   N187      1.0  0.69783  0.23972  0.43759  1.0000
  C   C2764     1.0  0.60457  0.33509  0.19832  1.0000
  C   C2765     1.0  0.82240  0.25016  0.14219  1.0000
  H   H3297     1.0  0.87119  0.33340  0.16464  1.0000
  C   C2766     1.0  0.80563  0.26004  0.12148  1.0000
  H   H3298     1.0  0.69846  0.21708  0.43093  1.0000
  H   H3299     1.0  0.67442  0.24201  0.43115  1.0000
  H   H3300     1.0  0.98456  0.19068  0.22384  1.0000
  H   H3301     1.0  0.83471  0.24700  0.14474  1.0000
  H   H3302     1.0  0.75300  0.18839  0.01251  1.0000
  H   H3303     1.0  0.58565  0.24439  0.28741  1.0000
  C   C2767     1.0  0.82113  0.25567  0.12559  1.0000
  H   H3304     1.0  0.80470  0.26411  0.10859  1.0000
  H   H3305     1.0  0.62741  0.31692  0.16902  1.0000
  H   H3306     1.0  0.61587  0.22805  0.14978  1.0000
  H   H3307     1.0  0.68004  0.21878  0.28344  1.0000
  C   C2768     1.0  0.67934  0.24442  0.44078  1.0000
  H   H3308     1.0  0.95873  0.20478  0.12634  1.0000
  H   H3309     1.0  0.83625  0.20210  0.30035  1.0000
  H   H3310     1.0  0.78078  0.28770  0.05726  1.0000
  C   C2769     1.0  0.62023  0.33688  0.19889  1.0000
  C   C2770     1.0  0.59392  0.27777  0.25661  1.0000
  H   H3311     1.0  0.60466  0.28240  0.24881  1.0000
  H   H3312     1.0  0.74541  0.37991  0.22172  1.0000
  H   H3313     1.0  0.85978  0.20652  0.27644  1.0000
  C   C2771     1.0  0.87485  0.30852  0.17931  1.0000
  H   H3314     1.0  0.83225  0.25653  0.11587  1.0000
  C   C2772     1.0  0.69991  0.35333  0.35305  1.0000
  H   H3315     1.0  0.76824  0.33757  0.06962  1.0000
  C   C2773     1.0  0.70569  0.21717  0.35204  1.0000
  H   H3316     1.0  0.91407  0.29204  0.12891  1.0000
  C   C2774     1.0  0.97927  0.27281  0.12070  1.0000
  C   C2775     1.0  0.75146  0.20013  0.27672  1.0000
  H   H3317     1.0  0.86771  0.23192  0.19625  1.0000
  N   N188      1.0  0.88239  0.22367  0.21502  1.0000
  C   C2776     1.0  0.74351  0.20218  0.07066  1.0000
  S   S743      1.0  0.63926  0.19867  0.38780  1.0000
  C   C2777     1.0  0.88158  0.20615  0.21710  1.0000
  H   H3318     1.0  0.93271  0.31369  0.15734  1.0000
  S   S744      1.0  0.62813  0.21445  0.43003  1.0000
  H   H3319     1.0  0.55055  0.31323  0.25467  1.0000
  H   H3320     1.0  0.92548  0.32605  0.13903  1.0000
  C   C2778     1.0  0.57549  0.21173  0.39759  1.0000
  S   S745      1.0  0.66830  0.21418  0.39353  1.0000
  C   C2779     1.0  0.71382  0.34234  0.32762  1.0000
  C   C2780     1.0  0.63228  0.20958  0.18290  1.0000
  C   C2781     1.0  0.78029  0.36529  0.18121  1.0000
  C   C2782     1.0  0.62180  0.35075  0.20360  1.0000
  C   C2783     1.0  0.59184  0.36096  0.20729  1.0000
  H   H3321     1.0  0.69407  0.34248  0.35936  1.0000
  C   C2784     1.0  0.75670  0.36737  0.25696  1.0000
  C   C2785     1.0  0.86783  0.23437  0.20827  1.0000
  H   H3322     1.0  0.89489  0.21223  0.10496  1.0000
  H   H3323     1.0  0.86748  0.24780  0.20657  1.0000
  H   H3324     1.0  0.60938  0.25637  0.26929  1.0000
  C   C2786     1.0  0.75941  0.21338  0.08224  1.0000
  S   S746      1.0  0.53266  0.24456  0.27794  1.0000
  H   H3325     1.0  0.52796  0.27408  0.25248  1.0000
  S   S747      1.0  0.64186  0.35215  0.20416  1.0000
  C   C2787     1.0  0.69895  0.18460  0.03344  1.0000
  H   H3326     1.0  0.76686  0.20081  0.08667  1.0000
  H   H3327     1.0  0.79302  0.29402  0.01916  1.0000
  H   H3328     1.0  0.66078  0.28520  0.46656  1.0000
  H   H3329     1.0  0.60414  0.22395  0.38785  1.0000
  H   H3330     1.0  0.59636  0.29372  0.22367  1.0000
  C   C2788     1.0  0.72413  0.25632  0.45610  1.0000
  H   H3331     1.0  0.67999  0.20356  0.30277  1.0000
  H   H3332     1.0  0.67993  0.36535  0.09107  1.0000
  C   C2789     1.0  0.72815  0.33029  0.30317  1.0000
  H   H3333     1.0  0.56366  0.22885  0.36033  1.0000
  H   H3334     1.0  0.77824  0.30828  0.03039  1.0000
  S   S748      1.0  0.53229  0.20467  0.31391  1.0000
  H   H3335     1.0  0.73100  0.20101  0.07030  1.0000
  H   H3336     1.0  0.70304  0.23479  0.27243  1.0000
  H   H3337     1.0  0.56669  0.19032  0.41475  1.0000
  S   S749      1.0  0.68647  0.34949  0.12517  1.0000
  C   C2790     1.0  0.87778  0.21609  0.16810  1.0000
  H   H3338     1.0  0.74457  0.20649  0.35948  1.0000
  H   H3339     1.0  0.80081  0.27851  0.06184  1.0000
  C   C2791     1.0  0.53396  0.23304  0.22921  1.0000
  H   H3340     1.0  0.50590  0.24120  0.19989  1.0000
  H   H3341     1.0  0.69158  0.36415  0.35812  1.0000
  C   C2792     1.0  0.76098  0.33656  0.47075  1.0000
  C   C2793     1.0  0.71723  0.34320  0.31029  1.0000
  C   C2794     1.0  0.74635  0.36647  0.35766  1.0000
  H   H3342     1.0  0.89795  0.32876  0.14516  1.0000
  H   H3343     1.0  0.71149  0.35392  0.30209  1.0000
  S   S750      1.0  0.75528  0.22039  0.29439  1.0000
  C   C2795     1.0  0.75732  0.33754  0.45557  1.0000
  C   C2796     1.0  0.89485  0.21542  0.16450  1.0000
  C   C2797     1.0  0.68117  0.18347  0.13779  1.0000
  C   C2798     1.0  0.74987  0.37222  0.19070  1.0000
  C   C2799     1.0  0.90090  0.28994  0.17034  1.0000
  H   H3344     1.0  0.71607  0.36006  0.12448  1.0000
  H   H3345     1.0  0.68082  0.19574  0.44901  1.0000
  Fe  Fe376     1.0  0.80523  0.19727  0.32034  1.0000
  C   C2800     1.0  0.81856  0.29068  0.03209  1.0000
  C   C2801     1.0  0.87167  0.20189  0.17711  1.0000
  H   H3346     1.0  0.85846  0.20235  0.17997  1.0000
  H   H3347     1.0  0.75890  0.35901  0.35570  1.0000
  C   C2802     1.0  0.63407  0.21669  0.45923  1.0000
  C   C2803     1.0  0.79411  0.28377  0.05153  1.0000
  H   H3348     1.0  0.72715  0.20460  0.02322  1.0000
  H   H3349     1.0  0.58357  0.21813  0.43179  1.0000
  C   C2804     1.0  0.81041  0.32863  0.05847  1.0000
  S   S751      1.0  0.67785  0.36405  0.20722  1.0000
  C   C2805     1.0  0.69050  0.36069  0.13733  1.0000
  C   C2806     1.0  0.90638  0.30289  0.15723  1.0000
  C   C2807     1.0  0.60382  0.20750  0.12290  1.0000
  H   H3350     1.0  0.58761  0.23878  0.39771  1.0000
  N   N189      1.0  0.73461  0.37553  0.20369  1.0000
  C   C2808     1.0  0.67755  0.19000  0.15191  1.0000
  S   S752      1.0  0.77801  0.19900  0.33174  1.0000
  S   S753      1.0  0.83305  0.22166  0.98326  1.0000
  H   H3351     1.0  0.82548  0.31090  0.04455  1.0000
  C   C2809     1.0  0.63032  0.19579  0.19594  1.0000
  H   H3352     1.0  0.90834  0.27746  0.17244  1.0000
  C   C2810     1.0  0.60754  0.36280  0.20781  1.0000
  C   C2811     1.0  0.76614  0.36837  0.19376  1.0000
  H   H3353     1.0  0.70954  0.21522  0.33917  1.0000
  H   H3354     1.0  0.82107  0.33234  0.05965  1.0000
  H   H3355     1.0  0.65653  0.18512  0.32691  1.0000
  H   H3356     1.0  0.71995  0.22979  0.07688  1.0000
  H   H3357     1.0  0.81950  0.28070  0.02568  1.0000
  H   H3358     1.0  0.93264  0.29998  0.11976  1.0000
  H   H3359     1.0  0.91285  0.31388  0.12399  1.0000
  C   C2812     1.0  0.72201  0.32768  0.33737  1.0000
  C   C2813     1.0  0.77295  0.30715  0.47265  1.0000
  H   H3360     1.0  0.69839  0.21490  0.45231  1.0000
  C   C2814     1.0  0.58450  0.19850  0.34081  1.0000
  H   H3361     1.0  0.94661  0.28305  0.14255  1.0000
  C   C2815     1.0  0.93392  0.28405  0.15067  1.0000
  H   H3362     1.0  0.58063  0.23262  0.37666  1.0000
  H   H3363     1.0  0.92916  0.27358  0.14970  1.0000
  H   H3364     1.0  0.66574  0.31181  0.45082  1.0000
  H   H3365     1.0  0.61803  0.19711  0.28885  1.0000
  H   H3366     1.0  0.71019  0.22048  0.04370  1.0000
  C   C2816     1.0  0.92054  0.30165  0.12888  1.0000
  Fe  Fe377     1.0  0.66616  0.19934  0.37678  1.0000
  H   H3367     1.0  0.75407  0.23512  0.97804  1.0000
  N   N190      1.0  0.92286  0.30042  0.14568  1.0000
  H   H3368     1.0  0.71695  0.21742  0.43688  1.0000
  C   C2817     1.0  0.73602  0.31617  0.31306  1.0000
  C   C2818     1.0  0.72122  0.32512  0.46721  1.0000
  H   H3369     1.0  0.92374  0.21102  0.09717  1.0000
  H   H3370     1.0  0.56906  0.20689  0.43126  1.0000
  H   H3371     1.0  0.67256  0.32508  0.45914  1.0000
  H   H3372     1.0  0.79261  0.36211  0.18387  1.0000
  C   C2819     1.0  0.73783  0.37176  0.22062  1.0000
  C   C2820     1.0  0.56419  0.22069  0.37240  1.0000
  C   C2821     1.0  0.59834  0.19702  0.41126  1.0000
  C   C2822     1.0  0.64407  0.21451  0.47055  1.0000
  H   H3373     1.0  0.98317  0.20941  0.17175  1.0000
  H   H3374     1.0  0.73365  0.23879  0.08253  1.0000
  C   C2823     1.0  0.98001  0.25827  0.13314  1.0000
  H   H3375     1.0  0.72223  0.36932  0.32961  1.0000
  C   C2824     1.0  0.68725  0.29318  0.46989  1.0000
  H   H3376     1.0  0.74704  0.37359  0.26566  1.0000
  H   H3377     1.0  0.59054  0.20963  0.21526  1.0000
  H   H3378     1.0  0.63075  0.35328  0.15552  1.0000
  H   H3379     1.0  0.51392  0.29323  0.22413  1.0000
  C   C2825     1.0  0.55671  0.19702  0.39317  1.0000
  H   H3380     1.0  0.70227  0.19894  0.31824  1.0000
  H   H3381     1.0  0.71618  0.19315  0.29985  1.0000
  H   H3382     1.0  0.71533  0.24744  0.04375  1.0000
  C   C2826     1.0  0.76296  0.36990  0.16185  1.0000
  C   C2827     1.0  0.70619  0.37209  0.26572  1.0000
  H   H3383     1.0  0.70076  0.20616  0.35990  1.0000
  C   C2828     1.0  0.68594  0.35978  0.33072  1.0000
  H   H3384     1.0  0.74955  0.20754  0.05774  1.0000
  S   S754      1.0  0.67578  0.18383  0.08810  1.0000
  H   H3385     1.0  0.60399  0.22669  0.40782  1.0000
  H   H3386     1.0  0.94048  0.21240  0.20327  1.0000
  C   C2829     1.0  0.70947  0.37152  0.32751  1.0000
  H   H3387     1.0  0.67689  0.36973  0.33664  1.0000
  H   H3388     1.0  0.75141  0.18957  0.07393  1.0000
  C   C2830     1.0  0.76899  0.30824  0.45760  1.0000
  C   C2831     1.0  0.69203  0.37411  0.25965  1.0000
  C   C2832     1.0  0.89807  0.19876  0.10480  1.0000
  H   H3389     1.0  0.73805  0.20356  0.34263  1.0000
  C   C2833     1.0  0.76958  0.37507  0.24699  1.0000
  C   C2834     1.0  0.69645  0.24191  0.46669  1.0000
  C   C2835     1.0  0.75122  0.22258  0.98115  1.0000
  H   H3390     1.0  0.78055  0.20278  0.98890  1.0000
  H   H3391     1.0  0.65158  0.32237  0.46641  1.0000
  H   H3392     1.0  0.73042  0.19314  0.36324  1.0000
  H   H3393     1.0  0.75778  0.32406  0.43763  1.0000
  C   C2836     1.0  0.76124  0.32340  0.44906  1.0000
  H   H3394     1.0  0.71813  0.36847  0.19293  1.0000
  C   C2837     1.0  0.49452  0.23673  0.20299  1.0000
  H   H3395     1.0  0.62096  0.22238  0.46220  1.0000
  C   C2838     1.0  0.50861  0.25171  0.23963  1.0000
  C   C2839     1.0  0.55577  0.20776  0.37784  1.0000
  C   C2840     1.0  0.60547  0.19866  0.13889  1.0000
  H   H3396     1.0  0.76178  0.37054  0.14943  1.0000
  H   H3397     1.0  0.54878  0.20589  0.36998  1.0000
  C   C2841     1.0  0.62783  0.18851  0.11109  1.0000
  H   H3398     1.0  0.61075  0.19490  0.36598  1.0000
  C   C2842     1.0  0.59375  0.19149  0.35325  1.0000
  S   S755      1.0  0.70824  0.18512  0.01247  1.0000
  C   C2843     1.0  0.56630  0.19901  0.40300  1.0000
  H   H3399     1.0  0.73795  0.22436  0.98073  1.0000
  H   H3400     1.0  0.88644  0.19566  0.10434  1.0000
  H   H3401     1.0  0.98329  0.21115  0.21078  1.0000
  H   H3402     1.0  0.60810  0.19466  0.17170  1.0000
  N   N191      1.0  0.49787  0.27935  0.22116  1.0000
  H   H3403     1.0  0.78979  0.36307  0.15585  1.0000
  H   H3404     1.0  0.60858  0.37347  0.21154  1.0000
  H   H3405     1.0  0.64062  0.18512  0.19726  1.0000
  C   C2844     1.0  0.71590  0.25406  0.47270  1.0000
  S   S756      1.0  0.57054  0.18765  0.33865  1.0000
  C   C2845     1.0  0.68082  0.37483  0.16021  1.0000
  H   H3406     1.0  0.79176  0.37302  0.22759  1.0000
  C   C2846     1.0  0.74873  0.37328  0.17423  1.0000
  C   C2847     1.0  0.97794  0.19903  0.17957  1.0000
  H   H3407     1.0  0.68606  0.23585  0.47161  1.0000
  H   H3408     1.0  0.49794  0.27780  0.19645  1.0000
  H   H3409     1.0  0.49799  0.30559  0.21313  1.0000
  H   H3410     1.0  0.83083  0.19488  0.24835  1.0000
  H   H3411     1.0  0.95991  0.20414  0.16451  1.0000
  C   C2848     1.0  0.62543  0.18487  0.28620  1.0000
  H   H3412     1.0  0.69501  0.19943  0.28468  1.0000
  C   C2849     1.0  0.79851  0.19244  0.26009  1.0000
  H   H3413     1.0  0.95499  0.18560  0.29532  1.0000
  H   H3414     1.0  0.55018  0.18693  0.39730  1.0000
  H   H3415     1.0  0.61388  0.18519  0.21770  1.0000
  H   H3416     1.0  0.67099  0.37868  0.17024  1.0000
  C   C2850     1.0  0.69636  0.37872  0.15711  1.0000
  C   C2851     1.0  0.74215  0.38136  0.34639  1.0000
  H   H3417     1.0  0.59232  0.18682  0.41939  1.0000
  H   H3418     1.0  0.63860  0.18596  0.28069  1.0000
  C   C2852     1.0  0.95677  0.18325  0.18487  1.0000
  H   H3419     1.0  0.49172  0.20539  0.31747  1.0000
  H   H3420     1.0  0.76937  0.18699  0.31003  1.0000
  H   H3421     1.0  0.49087  0.19506  0.25635  1.0000
  H   H3422     1.0  0.71750  0.38112  0.27989  1.0000
  C   C2853     1.0  0.76484  0.18647  0.29976  1.0000
  C   C2854     1.0  0.49146  0.22413  0.21693  1.0000
  H   H3423     1.0  0.78725  0.18713  0.26420  1.0000
  C   C2855     1.0  0.75300  0.18464  0.27327  1.0000
  H   H3424     1.0  0.73134  0.18249  0.09639  1.0000
  H   H3425     1.0  0.74888  0.18399  0.26270  1.0000
  H   H3426     1.0  0.94601  0.18305  0.14772  1.0000
  H   H3427     1.0  0.49069  0.28297  0.24624  1.0000
  H   H3428     1.0  0.70170  0.38222  0.33309  1.0000
  Fe  Fe378     1.0  0.54030  0.23976  0.65564  1.0000
  S   S757      1.0  0.53858  0.21325  0.65952  1.0000
  S   S758      1.0  0.53259  0.25345  0.67661  1.0000
  Fe  Fe379     1.0  0.55214  0.24353  0.61836  1.0000
  S   S759      1.0  0.55149  0.21740  0.61885  1.0000
  S   S760      1.0  0.56292  0.26187  0.59650  1.0000
  Fe  Fe380     1.0  0.52711  0.22210  0.63713  1.0000
  C   C2856     1.0  0.76061  0.21572  0.54554  1.0000
  Fe  Fe381     1.0  0.56286  0.21054  0.64106  1.0000
  S   S761      1.0  0.52665  0.24900  0.63481  1.0000
  S   S762      1.0  0.56566  0.23621  0.63899  1.0000
  Fe  Fe382     1.0  0.63435  0.22524  0.53075  1.0000
  S   S763      1.0  0.64975  0.20001  0.52769  1.0000
  S   S764      1.0  0.60687  0.22596  0.53864  1.0000
  Fe  Fe383     1.0  0.66465  0.24017  0.52123  1.0000
  S   S765      1.0  0.68232  0.21628  0.51720  1.0000
  S   S766      1.0  0.67576  0.26237  0.51621  1.0000
  Fe  Fe384     1.0  0.66391  0.21371  0.50432  1.0000
  C   C2857     1.0  0.65187  0.34553  0.74124  1.0000
  Fe  Fe385     1.0  0.66653  0.20490  0.54086  1.0000
  S   S767      1.0  0.64742  0.23873  0.50633  1.0000
  S   S768      1.0  0.64999  0.22910  0.54582  1.0000
  Fe  Fe386     1.0  0.72445  0.32142  0.57212  1.0000
  S   S769      1.0  0.72025  0.33191  0.59491  1.0000
  Fe  Fe387     1.0  0.71669  0.29142  0.56503  1.0000
  S   S770      1.0  0.70323  0.27035  0.57429  1.0000
  Fe  Fe388     1.0  0.75174  0.29761  0.55383  1.0000
  S   S771      1.0  0.77800  0.28342  0.55274  1.0000
  S   S772      1.0  0.73437  0.29393  0.57854  1.0000
  Fe  Fe389     1.0  0.57392  0.30954  0.69965  1.0000
  S   S773      1.0  0.55855  0.30022  0.72441  1.0000
  S   S774      1.0  0.58282  0.29373  0.68055  1.0000
  Fe  Fe390     1.0  0.57635  0.34016  0.70989  1.0000
  S   S775      1.0  0.56114  0.33302  0.73555  1.0000
  C   C2858     1.0  0.51942  0.30297  0.62519  1.0000
  Fe  Fe391     1.0  0.57635  0.30726  0.73469  1.0000
  S   S776      1.0  0.58553  0.28900  0.75632  1.0000
  S   S777      1.0  0.59287  0.31474  0.70997  1.0000
  S   S778      1.0  0.55889  0.33576  0.69692  1.0000
  Fe  Fe392     1.0  0.94794  0.23432  0.78303  1.0000
  S   S779      1.0  0.94674  0.20743  0.78909  1.0000
  S   S780      1.0  0.97086  0.24449  0.77881  1.0000
  Fe  Fe393     1.0  0.91261  0.24591  0.77783  1.0000
  S   S781      1.0  0.90847  0.22014  0.78353  1.0000
  S   S782      1.0  0.89131  0.26689  0.77209  1.0000
  Fe  Fe394     1.0  0.92114  0.21574  0.80431  1.0000
  C   C2859     1.0  0.85424  0.19353  0.64607  1.0000
  Fe  Fe395     1.0  0.93391  0.21414  0.76784  1.0000
  H   H3429     1.0  0.64951  0.29388  0.50773  1.0000
  S   S783      1.0  0.92334  0.24219  0.79991  1.0000
  S   S784      1.0  0.93723  0.24040  0.76040  1.0000
  Fe  Fe396     1.0  0.79417  0.22392  0.90922  1.0000
  S   S785      1.0  0.81840  0.20793  0.89888  1.0000
  S   S786      1.0  0.78542  0.22819  0.93553  1.0000
  Fe  Fe397     1.0  0.78266  0.23379  0.87633  1.0000
  S   S787      1.0  0.80604  0.21887  0.86347  1.0000
  S   S788      1.0  0.76408  0.24576  0.86016  1.0000
  Fe  Fe398     1.0  0.80282  0.19938  0.88687  1.0000
  C   C2860     1.0  0.69805  0.23896  0.66457  1.0000
  Fe  Fe399     1.0  0.81913  0.22895  0.87635  1.0000
  S   S789      1.0  0.84022  0.24173  0.86231  1.0000
  S   S790      1.0  0.77854  0.21363  0.89902  1.0000
  S   S791      1.0  0.79589  0.24567  0.88742  1.0000
  Fe  Fe400     1.0  0.76502  0.34610  0.79223  1.0000
  S   S792      1.0  0.74982  0.35918  0.81262  1.0000
  S   S793      1.0  0.79203  0.34431  0.78004  1.0000
  Fe  Fe401     1.0  0.73634  0.33357  0.78979  1.0000
  S   S794      1.0  0.71846  0.34482  0.81032  1.0000
  S   S795      1.0  0.72834  0.32272  0.77313  1.0000
  Fe  Fe402     1.0  0.72984  0.36699  0.79796  1.0000
  H   H3430     1.0  0.71925  0.22380  0.56634  1.0000
  Fe  Fe403     1.0  0.73978  0.33591  0.82330  1.0000
  S   S796      1.0  0.73848  0.32358  0.85021  1.0000
  S   S797      1.0  0.74624  0.35632  0.77650  1.0000
  S   S798      1.0  0.75649  0.32222  0.80406  1.0000
  Fe  Fe404     1.0  0.81775  0.24544  0.72516  1.0000
  S   S799      1.0  0.82743  0.26181  0.70114  1.0000
  S   S800      1.0  0.81074  0.22178  0.72654  1.0000
  Fe  Fe405     1.0  0.81710  0.26899  0.74575  1.0000
  S   S801      1.0  0.82579  0.28824  0.72380  1.0000
  S   S802      1.0  0.81151  0.27081  0.77209  1.0000
  Fe  Fe406     1.0  0.80859  0.28243  0.71167  1.0000
  S   S803      1.0  0.78874  0.29943  0.69854  1.0000
  Fe  Fe407     1.0  0.84379  0.26595  0.71538  1.0000
  S   S804      1.0  0.87140  0.26292  0.70803  1.0000
  S   S805      1.0  0.79795  0.26564  0.73486  1.0000
  S   S806      1.0  0.83606  0.24721  0.73826  1.0000
  Fe  Fe408     1.0  0.66829  0.23063  0.80562  1.0000
  S   S807      1.0  0.69533  0.21876  0.79940  1.0000
  S   S808      1.0  0.65080  0.21967  0.82822  1.0000
  Fe  Fe409     1.0  0.67119  0.25886  0.77514  1.0000
  S   S809      1.0  0.69861  0.24923  0.76669  1.0000
  S   S810      1.0  0.66000  0.28261  0.75920  1.0000
  Fe  Fe410     1.0  0.69188  0.22444  0.77346  1.0000
  S   S811      1.0  0.70250  0.20490  0.75839  1.0000
  Fe  Fe411     1.0  0.69903  0.24471  0.79358  1.0000
  S   S812      1.0  0.71756  0.24994  0.80437  1.0000
  S   S813      1.0  0.66436  0.23427  0.77996  1.0000
  S   S814      1.0  0.67217  0.25641  0.80153  1.0000
  Fe  Fe412     1.0  0.78129  0.21387  0.62711  1.0000
  H   H3431     1.0  0.61959  0.21940  0.64162  1.0000
  S   S815      1.0  0.76619  0.21962  0.60798  1.0000
  Fe  Fe413     1.0  0.81366  0.21319  0.63546  1.0000
  H   H3432     1.0  0.70145  0.18586  0.73613  1.0000
  C   C2861     1.0  0.66672  0.31841  0.51961  1.0000
  C   C2862     1.0  0.88416  0.18725  0.64420  1.0000
  H   H3433     1.0  0.89862  0.22810  0.67378  1.0000
  Fe  Fe414     1.0  0.78072  0.22262  0.65876  1.0000
  S   S816      1.0  0.76622  0.24071  0.67464  1.0000
  C   C2863     1.0  0.79014  0.32853  0.72919  1.0000
  S   S817      1.0  0.79083  0.23324  0.63224  1.0000
  H   H3434     1.0  0.78838  0.22336  0.56213  1.0000
  H   H3435     1.0  0.53522  0.36140  0.71521  1.0000
  C   C2864     1.0  0.73935  0.36151  0.61096  1.0000
  C   C2865     1.0  0.71252  0.19928  0.86358  1.0000
  S   S818      1.0  0.76931  0.20465  0.65354  1.0000
  C   C2866     1.0  0.81645  0.21975  0.79995  1.0000
  C   C2867     1.0  0.76992  0.22434  0.54969  1.0000
  H   H3436     1.0  0.75195  0.21775  0.86019  1.0000
  C   C2868     1.0  0.88589  0.19906  0.62927  1.0000
  H   H3437     1.0  0.64828  0.18909  0.59651  1.0000
  H   H3438     1.0  0.96608  0.21599  0.74262  1.0000
  C   C2869     1.0  0.65895  0.20049  0.84027  1.0000
  H   H3439     1.0  0.69600  0.24470  0.49101  1.0000
  C   C2870     1.0  0.79624  0.22710  0.71409  1.0000
  C   C2871     1.0  0.79039  0.24379  0.70708  1.0000
  C   C2872     1.0  0.77993  0.24803  0.69596  1.0000
  C   C2873     1.0  0.77590  0.23554  0.69129  1.0000
  C   C2874     1.0  0.78126  0.21885  0.69870  1.0000
  C   C2875     1.0  0.79114  0.21466  0.71041  1.0000
  H   H3440     1.0  0.79421  0.25351  0.70978  1.0000
  H   H3441     1.0  0.77573  0.26093  0.69037  1.0000
  C   C2876     1.0  0.85605  0.20566  0.63130  1.0000
  H   H3442     1.0  0.79526  0.20184  0.71628  1.0000
  C   C2877     1.0  0.72504  0.30270  0.78223  1.0000
  C   C2878     1.0  0.73047  0.29374  0.79673  1.0000
  C   C2879     1.0  0.72803  0.27752  0.80363  1.0000
  C   C2880     1.0  0.71978  0.27049  0.79626  1.0000
  C   C2881     1.0  0.71399  0.27964  0.78201  1.0000
  C   C2882     1.0  0.71689  0.29562  0.77483  1.0000
  H   H3443     1.0  0.73679  0.29917  0.80246  1.0000
  H   H3444     1.0  0.73255  0.27047  0.81464  1.0000
  H   H3445     1.0  0.70761  0.27432  0.77627  1.0000
  H   H3446     1.0  0.71291  0.30244  0.76347  1.0000
  C   C2883     1.0  0.79851  0.32510  0.77430  1.0000
  C   C2884     1.0  0.81501  0.31634  0.77328  1.0000
  C   C2885     1.0  0.81926  0.29960  0.77217  1.0000
  C   C2886     1.0  0.80702  0.29196  0.77159  1.0000
  C   C2887     1.0  0.79092  0.30117  0.77105  1.0000
  C   C2888     1.0  0.78672  0.31778  0.77229  1.0000
  H   H3447     1.0  0.82427  0.32222  0.77420  1.0000
  H   H3448     1.0  0.83186  0.29252  0.77220  1.0000
  H   H3449     1.0  0.78155  0.29533  0.77025  1.0000
  H   H3450     1.0  0.77419  0.32480  0.77203  1.0000
  H   H3451     1.0  0.68526  0.33186  0.50428  1.0000
  H   H3452     1.0  0.87341  0.21753  0.61145  1.0000
  H   H3453     1.0  0.72016  0.25802  0.48146  1.0000
  C   C2889     1.0  0.79895  0.22604  0.94860  1.0000
  C   C2890     1.0  0.81421  0.21456  0.94773  1.0000
  H   H3454     1.0  0.51861  0.29521  0.74216  1.0000
  H   H3455     1.0  0.57996  0.26216  0.71281  1.0000
  C   C2891     1.0  0.52372  0.31616  0.64479  1.0000
  H   H3456     1.0  0.64579  0.29487  0.48208  1.0000
  H   H3457     1.0  0.81802  0.20677  0.93876  1.0000
  H   H3458     1.0  0.73469  0.35713  0.56871  1.0000
  C   C2892     1.0  0.64795  0.19150  0.85213  1.0000
  H   H3459     1.0  0.56848  0.19175  0.67639  1.0000
  C   C2893     1.0  0.75654  0.26728  0.85796  1.0000
  C   C2894     1.0  0.75720  0.27551  0.86966  1.0000
  C   C2895     1.0  0.75119  0.29280  0.86747  1.0000
  C   C2896     1.0  0.74492  0.30188  0.85340  1.0000
  C   C2897     1.0  0.74422  0.29358  0.84179  1.0000
  C   C2898     1.0  0.74995  0.27631  0.84410  1.0000
  H   H3460     1.0  0.76211  0.26856  0.88048  1.0000
  H   H3461     1.0  0.75163  0.29919  0.87653  1.0000
  H   H3462     1.0  0.73898  0.30046  0.83116  1.0000
  H   H3463     1.0  0.74945  0.27001  0.83501  1.0000
  H   H3464     1.0  0.78828  0.26873  0.60535  1.0000
  H   H3465     1.0  0.73362  0.18376  0.53508  1.0000
  H   H3466     1.0  0.88177  0.18503  0.91997  1.0000
  H   H3467     1.0  0.50498  0.21095  0.58424  1.0000
  C   C2899     1.0  0.76290  0.30494  0.61362  1.0000
  H   H3468     1.0  0.75393  0.31535  0.60838  1.0000
  H   H3469     1.0  0.50213  0.26436  0.69834  1.0000
  H   H3470     1.0  0.69558  0.32388  0.80531  1.0000
  H   H3471     1.0  0.97247  0.21999  0.81017  1.0000
  H   H3472     1.0  0.81941  0.23623  0.91775  1.0000
  C   C2900     1.0  0.73886  0.35328  0.73106  1.0000
  S   S819      1.0  0.64709  0.19682  0.68016  1.0000
  C   C2901     1.0  0.88644  0.26623  0.75378  1.0000
  C   C2902     1.0  0.89633  0.25471  0.74424  1.0000
  C   C2903     1.0  0.89201  0.25400  0.72988  1.0000
  C   C2904     1.0  0.87760  0.26457  0.72524  1.0000
  C   C2905     1.0  0.86768  0.27596  0.73488  1.0000
  C   C2906     1.0  0.87216  0.27689  0.74903  1.0000
  H   H3473     1.0  0.90729  0.24630  0.74791  1.0000
  H   H3474     1.0  0.89964  0.24505  0.72258  1.0000
  H   H3475     1.0  0.85671  0.28433  0.73126  1.0000
  H   H3476     1.0  0.86449  0.28584  0.75632  1.0000
  C   C2907     1.0  0.88978  0.21200  0.83789  1.0000
  H   H3477     1.0  0.73155  0.28523  0.48820  1.0000
  C   C2908     1.0  0.86190  0.21266  0.85547  1.0000
  C   C2909     1.0  0.85913  0.22993  0.85312  1.0000
  C   C2910     1.0  0.87170  0.23817  0.84328  1.0000
  C   C2911     1.0  0.88686  0.22928  0.83550  1.0000
  H   H3478     1.0  0.88321  0.19550  0.75239  1.0000
  H   H3479     1.0  0.74028  0.24295  0.84393  1.0000
  H   H3480     1.0  0.86973  0.25148  0.84166  1.0000
  H   H3481     1.0  0.89646  0.23579  0.82797  1.0000
  H   H3482     1.0  0.64482  0.37922  0.64340  1.0000
  C   C2912     1.0  0.62369  0.20744  0.57842  1.0000
  H   H3483     1.0  0.86502  0.22943  0.71280  1.0000
  C   C2913     1.0  0.60624  0.28735  0.75698  1.0000
  C   C2914     1.0  0.61327  0.27510  0.76922  1.0000
  C   C2915     1.0  0.62984  0.27345  0.76990  1.0000
  C   C2916     1.0  0.63943  0.28405  0.75831  1.0000
  C   C2917     1.0  0.63245  0.29625  0.74603  1.0000
  C   C2918     1.0  0.61585  0.29797  0.74541  1.0000
  H   H3484     1.0  0.60586  0.26690  0.77824  1.0000
  H   H3485     1.0  0.63511  0.26411  0.77952  1.0000
  H   H3486     1.0  0.63994  0.30428  0.73689  1.0000
  H   H3487     1.0  0.61050  0.30753  0.73603  1.0000
  C   C2919     1.0  0.81960  0.22305  0.97034  1.0000
  H   H3488     1.0  0.55734  0.23796  0.58188  1.0000
  H   H3489     1.0  0.76590  0.32879  0.68743  1.0000
  C   C2920     1.0  0.77593  0.26471  0.56702  1.0000
  C   C2921     1.0  0.76160  0.25869  0.56969  1.0000
  C   C2922     1.0  0.75889  0.24467  0.58212  1.0000
  C   C2923     1.0  0.77037  0.23670  0.59211  1.0000
  C   C2924     1.0  0.78493  0.24243  0.58929  1.0000
  C   C2925     1.0  0.78778  0.25638  0.57661  1.0000
  H   H3490     1.0  0.75251  0.26488  0.56218  1.0000
  H   H3491     1.0  0.74775  0.24017  0.58409  1.0000
  H   H3492     1.0  0.79404  0.23611  0.59677  1.0000
  H   H3493     1.0  0.79890  0.26101  0.57456  1.0000
  S   S820      1.0  0.73511  0.29252  0.54082  1.0000
  C   C2926     1.0  0.68342  0.26425  0.53247  1.0000
  C   C2927     1.0  0.68188  0.25291  0.54777  1.0000
  C   C2928     1.0  0.68775  0.25495  0.56067  1.0000
  C   C2929     1.0  0.69536  0.26820  0.55827  1.0000
  C   C2930     1.0  0.69686  0.27953  0.54297  1.0000
  C   C2931     1.0  0.69103  0.27748  0.53009  1.0000
  H   H3494     1.0  0.67605  0.24266  0.54971  1.0000
  H   H3495     1.0  0.68623  0.24637  0.57254  1.0000
  H   H3496     1.0  0.70234  0.29002  0.54106  1.0000
  H   H3497     1.0  0.69234  0.28626  0.51827  1.0000
  H   H3498     1.0  0.98343  0.22218  0.75718  1.0000
  H   H3499     1.0  0.60374  0.21824  0.62282  1.0000
  N   N192      1.0  0.79654  0.18886  0.57567  1.0000
  H   H3500     1.0  0.69982  0.32611  0.73507  1.0000
  H   H3501     1.0  0.84521  0.21947  0.70485  1.0000
  C   C2932     1.0  0.69264  0.21022  0.74171  1.0000
  H   H3502     1.0  0.63622  0.37262  0.72065  1.0000
  C   C2933     1.0  0.54680  0.26411  0.67823  1.0000
  C   C2934     1.0  0.54119  0.27653  0.68748  1.0000
  C   C2935     1.0  0.55222  0.28547  0.68855  1.0000
  C   C2936     1.0  0.56889  0.28220  0.68016  1.0000
  C   C2937     1.0  0.57452  0.26977  0.67095  1.0000
  C   C2938     1.0  0.56355  0.26066  0.67012  1.0000
  H   H3503     1.0  0.52825  0.27946  0.69365  1.0000
  H   H3504     1.0  0.54773  0.29511  0.69558  1.0000
  H   H3505     1.0  0.58744  0.26705  0.66459  1.0000
  H   H3506     1.0  0.56815  0.25086  0.66333  1.0000
  C   C2939     1.0  0.72786  0.23968  0.84804  1.0000
  H   H3507     1.0  0.84685  0.25494  0.93144  1.0000
  S   S821      1.0  0.74319  0.32530  0.54796  1.0000
  H   H3508     1.0  0.54268  0.27133  0.74059  1.0000
  C   C2940     1.0  0.65804  0.32824  0.74693  1.0000
  H   H3509     1.0  0.62542  0.33175  0.74301  1.0000
  C   C2941     1.0  0.51707  0.25823  0.72532  1.0000
  H   H3510     1.0  0.68526  0.23747  0.66881  1.0000
  C   C2942     1.0  0.50373  0.28476  0.73289  1.0000
  C   C2943     1.0  0.57497  0.25241  0.58002  1.0000
  C   C2944     1.0  0.59046  0.25620  0.57155  1.0000
  C   C2945     1.0  0.60046  0.24810  0.55884  1.0000
  C   C2946     1.0  0.59473  0.23659  0.55426  1.0000
  C   C2947     1.0  0.57908  0.23314  0.56248  1.0000
  C   C2948     1.0  0.56934  0.24082  0.57550  1.0000
  H   H3511     1.0  0.59485  0.26518  0.57499  1.0000
  H   H3512     1.0  0.61247  0.25092  0.55245  1.0000
  H   H3513     1.0  0.57458  0.22430  0.55891  1.0000
  H   H3514     1.0  0.57939  0.18495  0.70198  1.0000
  N   N193      1.0  0.75901  0.24438  0.76338  1.0000
  C   C2949     1.0  0.77278  0.23263  0.75496  1.0000
  C   C2950     1.0  0.76201  0.24250  0.78010  1.0000
  C   C2951     1.0  0.74315  0.23943  0.76555  1.0000
  C   C2952     1.0  0.75801  0.26156  0.75326  1.0000
  C   C2953     1.0  0.75650  0.26514  0.73652  1.0000
  C   C2954     1.0  0.75808  0.27520  0.75966  1.0000
  C   C2955     1.0  0.75577  0.28119  0.72665  1.0000
  C   C2956     1.0  0.75722  0.29122  0.74968  1.0000
  C   C2957     1.0  0.75617  0.29419  0.73321  1.0000
  H   H3515     1.0  0.78489  0.23624  0.75253  1.0000
  H   H3516     1.0  0.77414  0.21969  0.76251  1.0000
  H   H3517     1.0  0.77095  0.23197  0.74289  1.0000
  H   H3518     1.0  0.75158  0.25008  0.78768  1.0000
  H   H3519     1.0  0.77377  0.24621  0.77921  1.0000
  H   H3520     1.0  0.69186  0.28329  0.48010  1.0000
  H   H3521     1.0  0.74270  0.22710  0.77413  1.0000
  H   H3522     1.0  0.73243  0.24864  0.77077  1.0000
  H   H3523     1.0  0.74102  0.23865  0.75361  1.0000
  H   H3524     1.0  0.75606  0.25552  0.73085  1.0000
  H   H3525     1.0  0.75882  0.27389  0.77230  1.0000
  C   C2958     1.0  0.65665  0.30785  0.52030  1.0000
  H   H3526     1.0  0.75735  0.30141  0.75480  1.0000
  H   H3527     1.0  0.75586  0.30657  0.72544  1.0000
  H   H3528     1.0  0.54204  0.24808  0.72916  1.0000
  H   H3529     1.0  0.55814  0.31562  0.63579  1.0000
  C   C2959     1.0  0.87192  0.20820  0.62285  1.0000
  H   H3530     1.0  0.53760  0.36548  0.74740  1.0000
  H   H3531     1.0  0.71410  0.20636  0.65354  1.0000
  H   H3532     1.0  0.83610  0.20396  0.95808  1.0000
  H   H3533     1.0  0.53116  0.31907  0.65146  1.0000
  C   C2960     1.0  0.66820  0.30741  0.49081  1.0000
  H   H3534     1.0  0.59140  0.21087  0.58892  1.0000
  C   C2961     1.0  0.87729  0.20369  0.84799  1.0000
  C   C2962     1.0  0.78544  0.18429  0.86253  1.0000
  C   C2963     1.0  0.70783  0.18506  0.54733  1.0000
  H   H3535     1.0  0.77877  0.18851  0.94491  1.0000
  C   C2964     1.0  0.76896  0.32126  0.47978  1.0000
  C   C2965     1.0  0.68502  0.20190  0.72052  1.0000
  C   C2966     1.0  0.77451  0.18993  0.56095  1.0000
  H   H3536     1.0  0.71271  0.36658  0.77664  1.0000
  C   C2967     1.0  0.72518  0.30675  0.49885  1.0000
  H   H3537     1.0  0.62484  0.22058  0.57586  1.0000
  C   C2968     1.0  0.65051  0.19702  0.61696  1.0000
  H   H3538     1.0  0.75167  0.22235  0.53788  1.0000
  H   H3539     1.0  0.77050  0.33373  0.51421  1.0000
  C   C2969     1.0  0.76744  0.33540  0.50198  1.0000
  H   H3540     1.0  0.87249  0.19847  0.89361  1.0000
  N   N194      1.0  0.67384  0.33244  0.79458  1.0000
  C   C2970     1.0  0.68424  0.31981  0.80545  1.0000
  C   C2971     1.0  0.68360  0.33456  0.77728  1.0000
  C   C2972     1.0  0.67043  0.34852  0.79966  1.0000
  C   C2973     1.0  0.65866  0.32688  0.79547  1.0000
  C   C2974     1.0  0.64234  0.33677  0.79935  1.0000
  C   C2975     1.0  0.65995  0.31129  0.79188  1.0000
  C   C2976     1.0  0.62829  0.33112  0.79994  1.0000
  C   C2977     1.0  0.64582  0.30577  0.79257  1.0000
  C   C2978     1.0  0.63003  0.31563  0.79663  1.0000
  H   H3541     1.0  0.68893  0.30776  0.80150  1.0000
  S   S822      1.0  0.75616  0.37488  0.64342  1.0000
  H   H3542     1.0  0.67714  0.31736  0.81853  1.0000
  H   H3543     1.0  0.68770  0.32277  0.77287  1.0000
  H   H3544     1.0  0.69511  0.33877  0.77608  1.0000
  H   H3545     1.0  0.67623  0.34394  0.76868  1.0000
  H   H3546     1.0  0.66305  0.34787  0.81262  1.0000
  H   H3547     1.0  0.68215  0.35208  0.79920  1.0000
  H   H3548     1.0  0.66380  0.35897  0.79119  1.0000
  H   H3549     1.0  0.64010  0.34889  0.80203  1.0000
  H   H3550     1.0  0.67192  0.30321  0.78842  1.0000
  H   H3551     1.0  0.55415  0.29770  0.65206  1.0000
  C   C2979     1.0  0.78165  0.21585  0.55938  1.0000
  H   H3552     1.0  0.79929  0.34785  0.69955  1.0000
  N   N195      1.0  0.61355  0.25556  0.71522  1.0000
  C   C2980     1.0  0.62579  0.26153  0.70030  1.0000
  C   C2981     1.0  0.62250  0.24562  0.72853  1.0000
  H   H3553     1.0  0.61950  0.26892  0.68997  1.0000
  H   H3554     1.0  0.63261  0.26955  0.70287  1.0000
  H   H3555     1.0  0.63535  0.25108  0.69571  1.0000
  H   H3556     1.0  0.60920  0.27757  0.72483  1.0000
  H   H3557     1.0  0.63288  0.23551  0.72439  1.0000
  H   H3558     1.0  0.62830  0.25338  0.73280  1.0000
  N   N196      1.0  0.87984  0.21715  0.69307  1.0000
  C   C2982     1.0  0.89058  0.22950  0.68611  1.0000
  C   C2983     1.0  0.87330  0.21722  0.71099  1.0000
  C   C2984     1.0  0.89021  0.20041  0.69168  1.0000
  C   C2985     1.0  0.86660  0.22104  0.68370  1.0000
  C   C2986     1.0  0.87069  0.22393  0.66612  1.0000
  C   C2987     1.0  0.84955  0.22163  0.69155  1.0000
  C   C2988     1.0  0.85841  0.22800  0.65697  1.0000
  C   C2989     1.0  0.83742  0.22524  0.68224  1.0000
  C   C2990     1.0  0.84183  0.22849  0.66500  1.0000
  S   S823      1.0  0.83881  0.21887  0.62363  1.0000
  H   H3559     1.0  0.74698  0.37603  0.69179  1.0000
  H   H3560     1.0  0.71202  0.23360  0.58374  1.0000
  H   H3561     1.0  0.66664  0.19786  0.78461  1.0000
  C   C2991     1.0  0.72534  0.23395  0.67001  1.0000
  C   C2992     1.0  0.80438  0.23459  0.97110  1.0000
  H   H3562     1.0  0.75522  0.28353  0.71374  1.0000
  C   C2993     1.0  0.58075  0.37186  0.73040  1.0000
  H   H3563     1.0  0.77340  0.34544  0.49331  1.0000
  C   C2994     1.0  0.76540  0.36327  0.70633  1.0000
  H   H3564     1.0  0.58257  0.21791  0.69793  1.0000
  C   C2995     1.0  0.62582  0.21319  0.63142  1.0000
  H   H3565     1.0  0.72125  0.24502  0.85914  1.0000
  H   H3566     1.0  0.76985  0.29438  0.50601  1.0000
  C   C2996     1.0  0.76531  0.30700  0.50872  1.0000
  C   C2997     1.0  0.52602  0.37148  0.74266  1.0000
  H   H3567     1.0  0.76966  0.35629  0.67027  1.0000
  Fe  Fe415     1.0  0.79407  0.18725  0.65483  1.0000
  H   H3568     1.0  0.85226  0.20620  0.86309  1.0000
  H   H3569     1.0  0.68746  0.20785  0.61791  1.0000
  H   H3570     1.0  0.82256  0.34007  0.66535  1.0000
  H   H3571     1.0  0.61913  0.31121  0.79719  1.0000
  C   C2998     1.0  0.72675  0.19226  0.58504  1.0000
  N   N197      1.0  0.54862  0.29820  0.62891  1.0000
  C   C2999     1.0  0.73604  0.35824  0.58049  1.0000
  H   H3572     1.0  0.70673  0.37401  0.64130  1.0000
  H   H3573     1.0  0.88345  0.22292  0.65928  1.0000
  H   H3574     1.0  0.72710  0.19210  0.57205  1.0000
  C   C3000     1.0  0.70220  0.24670  0.47801  1.0000
  H   H3575     1.0  0.81875  0.31253  0.68336  1.0000
  C   C3001     1.0  0.70896  0.23195  0.67526  1.0000
  H   H3576     1.0  0.63186  0.35975  0.76606  1.0000
  H   H3577     1.0  0.76809  0.23774  0.54535  1.0000
  C   C3002     1.0  0.78043  0.34671  0.67265  1.0000
  H   H3578     1.0  0.73056  0.22054  0.82674  1.0000
  H   H3579     1.0  0.69435  0.36501  0.75985  1.0000
  H   H3580     1.0  0.79099  0.26507  0.65933  1.0000
  C   C3003     1.0  0.90832  0.19708  0.75089  1.0000
  C   C3004     1.0  0.67609  0.19378  0.83794  1.0000
  H   H3581     1.0  0.74293  0.20014  0.86695  1.0000
  N   N198      1.0  0.72936  0.22140  0.85180  1.0000
  C   C3005     1.0  0.73977  0.21393  0.86437  1.0000
  N   N199      1.0  0.61520  0.20206  0.59593  1.0000
  H   H3582     1.0  0.57196  0.29575  0.63551  1.0000
  C   C3006     1.0  0.71314  0.21637  0.85788  1.0000
  C   C3007     1.0  0.69766  0.22797  0.85747  1.0000
  C   C3008     1.0  0.68259  0.22271  0.86278  1.0000
  C   C3009     1.0  0.49592  0.31944  0.64099  1.0000
  H   H3583     1.0  0.61678  0.36672  0.72717  1.0000
  N   N200      1.0  0.77316  0.31971  0.49583  1.0000
  C   C3010     1.0  0.67807  0.31841  0.49051  1.0000
  H   H3584     1.0  0.88290  0.24242  0.68474  1.0000
  H   H3585     1.0  0.68575  0.19241  0.71416  1.0000
  H   H3586     1.0  0.64714  0.29373  0.78993  1.0000
  H   H3587     1.0  0.63603  0.37576  0.74816  1.0000
  C   C3011     1.0  0.50267  0.27127  0.72688  1.0000
  H   H3588     1.0  0.69684  0.24115  0.85280  1.0000
  H   H3589     1.0  0.67095  0.23171  0.86198  1.0000
  C   C3012     1.0  0.69933  0.20746  0.62024  1.0000
  C   C3013     1.0  0.63032  0.36176  0.72643  1.0000
  H   H3590     1.0  0.56675  0.24484  0.70493  1.0000
  H   H3591     1.0  0.64996  0.31965  0.75308  1.0000
  C   C3014     1.0  0.65725  0.30247  0.50614  1.0000
  H   H3592     1.0  0.79508  0.31350  0.50593  1.0000
  C   C3015     1.0  0.72116  0.32410  0.49595  1.0000
  H   H3593     1.0  0.74042  0.20513  0.63232  1.0000
  S   S824      1.0  0.58732  0.36312  0.70013  1.0000
  H   H3594     1.0  0.72797  0.34031  0.62155  1.0000
  H   H3595     1.0  0.76094  0.31523  0.63413  1.0000
  C   C3016     1.0  0.79146  0.31449  0.49413  1.0000
  H   H3596     1.0  0.73378  0.22869  0.67844  1.0000
  H   H3597     1.0  0.64872  0.30336  0.53201  1.0000
  H   H3598     1.0  0.79788  0.32354  0.48424  1.0000
  C   C3017     1.0  0.80607  0.19933  0.57885  1.0000
  C   C3018     1.0  0.49170  0.27410  0.70310  1.0000
  H   H3599     1.0  0.56922  0.29863  0.60769  1.0000
  H   H3600     1.0  0.74078  0.20563  0.60369  1.0000
  C   C3019     1.0  0.72001  0.22224  0.57944  1.0000
  C   C3020     1.0  0.62294  0.34111  0.75064  1.0000
  H   H3601     1.0  0.84006  0.19307  0.72746  1.0000
  H   H3602     1.0  0.63469  0.19664  0.85407  1.0000
  H   H3603     1.0  0.75587  0.19180  0.54767  1.0000
  S   S825      1.0  0.66387  0.22230  0.70095  1.0000
  H   H3604     1.0  0.72379  0.18966  0.86344  1.0000
  H   H3605     1.0  0.97837  0.19885  0.72163  1.0000
  H   H3606     1.0  0.87947  0.19032  0.84989  1.0000
  C   C3021     1.0  0.76698  0.30472  0.62839  1.0000
  C   C3022     1.0  0.54034  0.37229  0.71437  1.0000
  H   H3607     1.0  0.61229  0.20843  0.69875  1.0000
  H   H3608     1.0  0.80284  0.32372  0.73183  1.0000
  H   H3609     1.0  0.75161  0.31034  0.50992  1.0000
  C   C3023     1.0  0.69739  0.19420  0.86903  1.0000
  H   H3610     1.0  0.66275  0.27798  0.48764  1.0000
  H   H3611     1.0  0.66653  0.32222  0.53070  1.0000
  S   S826      1.0  0.90895  0.20075  0.82834  1.0000
  H   H3612     1.0  0.51740  0.19317  0.60765  1.0000
  H   H3613     1.0  0.73344  0.21783  0.87630  1.0000
  H   H3614     1.0  0.78234  0.24496  0.96107  1.0000
  N   N201      1.0  0.72518  0.26082  0.62624  1.0000
  C   C3024     1.0  0.74301  0.26171  0.62197  1.0000
  C   C3025     1.0  0.72242  0.25398  0.61335  1.0000
  C   C3026     1.0  0.71508  0.27804  0.62547  1.0000
  C   C3027     1.0  0.72002  0.25047  0.64291  1.0000
  C   C3028     1.0  0.73088  0.24303  0.65410  1.0000
  C   C3029     1.0  0.70344  0.24808  0.64864  1.0000
  H   H3615     1.0  0.57472  0.36149  0.73571  1.0000
  H   H3616     1.0  0.84200  0.19154  0.65257  1.0000
  H   H3617     1.0  0.61594  0.33877  0.80312  1.0000
  H   H3618     1.0  0.75131  0.24913  0.62238  1.0000
  H   H3619     1.0  0.74664  0.26905  0.60915  1.0000
  H   H3620     1.0  0.74583  0.26780  0.63045  1.0000
  H   H3621     1.0  0.72955  0.24092  0.61380  1.0000
  H   H3622     1.0  0.72645  0.26133  0.60063  1.0000
  H   H3623     1.0  0.70911  0.25419  0.61460  1.0000
  H   H3624     1.0  0.71609  0.28329  0.63556  1.0000
  H   H3625     1.0  0.71915  0.28654  0.61350  1.0000
  H   H3626     1.0  0.70167  0.27873  0.62660  1.0000
  H   H3627     1.0  0.74367  0.24422  0.65104  1.0000
  H   H3628     1.0  0.69442  0.25350  0.64092  1.0000
  C   C3030     1.0  0.61682  0.21243  0.62044  1.0000
  H   H3629     1.0  0.88257  0.19083  0.69692  1.0000
  C   C3031     1.0  0.71414  0.20650  0.64088  1.0000
  C   C3032     1.0  0.73816  0.21548  0.83636  1.0000
  H   H3630     1.0  0.74076  0.20174  0.83843  1.0000
  H   H3631     1.0  0.89610  0.19951  0.67858  1.0000
  C   C3033     1.0  0.53167  0.27136  0.73671  1.0000
  N   N202      1.0  0.63388  0.35321  0.74302  1.0000
  S   S827      1.0  0.50562  0.21039  0.63969  1.0000
  H   H3632     1.0  0.86647  0.20712  0.71754  1.0000
  H   H3633     1.0  0.60952  0.34733  0.75171  1.0000
  C   C3034     1.0  0.69390  0.19818  0.73300  1.0000
  C   C3035     1.0  0.58862  0.22544  0.70162  1.0000
  H   H3634     1.0  0.69911  0.20708  0.57419  1.0000
  C   C3036     1.0  0.60541  0.22013  0.70204  1.0000
  H   H3635     1.0  0.71554  0.34669  0.47780  1.0000
  C   C3037     1.0  0.51804  0.28471  0.73774  1.0000
  H   H3636     1.0  0.55359  0.31773  0.60751  1.0000
  H   H3637     1.0  0.61667  0.20671  0.56959  1.0000
  H   H3638     1.0  0.70341  0.19535  0.53797  1.0000
  H   H3639     1.0  0.54442  0.27521  0.64550  1.0000
  C   C3038     1.0  0.87355  0.19724  0.91867  1.0000
  H   H3640     1.0  0.66028  0.19736  0.80618  1.0000
  H   H3641     1.0  0.82820  0.18970  0.70623  1.0000
  H   H3642     1.0  0.49551  0.28621  0.69745  1.0000
  H   H3643     1.0  0.75033  0.21923  0.83112  1.0000
  C   C3039     1.0  0.53124  0.25821  0.73039  1.0000
  C   C3040     1.0  0.85003  0.25756  0.89904  1.0000
  C   C3041     1.0  0.86831  0.20478  0.90387  1.0000
  H   H3644     1.0  0.85292  0.25380  0.88695  1.0000
  H   H3645     1.0  0.84241  0.27048  0.89717  1.0000
  H   H3646     1.0  0.86202  0.25786  0.90150  1.0000
  H   H3647     1.0  0.85420  0.22589  0.89036  1.0000
  H   H3648     1.0  0.50170  0.23629  0.60960  1.0000
  H   H3649     1.0  0.78975  0.32317  0.71892  1.0000
  C   C3042     1.0  0.89624  0.19138  0.74702  1.0000
  H   H3650     1.0  0.87228  0.19955  0.94331  1.0000
  H   H3651     1.0  0.52380  0.29531  0.61607  1.0000
  C   C3043     1.0  0.62450  0.20386  0.60730  1.0000
  H   H3652     1.0  0.80577  0.20304  0.82151  1.0000
  H   H3653     1.0  0.79652  0.30209  0.49092  1.0000
  H   H3654     1.0  0.68472  0.20086  0.82950  1.0000
  C   C3044     1.0  0.78433  0.19831  0.56530  1.0000
  S   S828      1.0  0.79904  0.36958  0.65402  1.0000
  S   S829      1.0  0.80500  0.19477  0.62764  1.0000
  C   C3045     1.0  0.59271  0.18608  0.66054  1.0000
  H   H3655     1.0  0.68788  0.20778  0.64591  1.0000
  H   H3656     1.0  0.50152  0.33047  0.65779  1.0000
  H   H3657     1.0  0.49376  0.29563  0.73376  1.0000
  H   H3658     1.0  0.75910  0.21624  0.97100  1.0000
  S   S830      1.0  0.80453  0.20436  0.66271  1.0000
  C   C3046     1.0  0.73222  0.34884  0.61025  1.0000
  C   C3047     1.0  0.72797  0.29866  0.48589  1.0000
  C   C3048     1.0  0.69938  0.20744  0.63652  1.0000
  C   C3049     1.0  0.70186  0.37635  0.77518  1.0000
  H   H3659     1.0  0.79774  0.20868  0.58593  1.0000
  H   H3660     1.0  0.62450  0.33452  0.76340  1.0000
  C   C3050     1.0  0.64262  0.20548  0.62972  1.0000
  S   S831      1.0  0.70496  0.31867  0.56046  1.0000
  S   S832      1.0  0.67415  0.20423  0.48054  1.0000
  H   H3661     1.0  0.72137  0.24616  0.83770  1.0000
  H   H3662     1.0  0.86181  0.23051  0.64355  1.0000
  H   H3663     1.0  0.82450  0.22571  0.68845  1.0000
  N   N203      1.0  0.85582  0.23556  0.79256  1.0000
  C   C3051     1.0  0.86649  0.22835  0.77834  1.0000
  C   C3052     1.0  0.84878  0.25342  0.78625  1.0000
  C   C3053     1.0  0.86657  0.23470  0.80384  1.0000
  C   C3054     1.0  0.84226  0.22649  0.80072  1.0000
  C   C3055     1.0  0.84145  0.21571  0.81671  1.0000
  C   C3056     1.0  0.82949  0.22804  0.79248  1.0000
  H   H3664     1.0  0.88349  0.21501  0.71758  1.0000
  H   H3665     1.0  0.52063  0.36123  0.74218  1.0000
  C   C3057     1.0  0.72902  0.20593  0.61257  1.0000
  H   H3666     1.0  0.85939  0.22917  0.76898  1.0000
  H   H3667     1.0  0.87669  0.23506  0.77170  1.0000
  H   H3668     1.0  0.87228  0.21500  0.78246  1.0000
  H   H3669     1.0  0.83806  0.25857  0.79551  1.0000
  H   H3670     1.0  0.84446  0.25556  0.77463  1.0000
  H   H3671     1.0  0.85809  0.26126  0.78301  1.0000
  H   H3672     1.0  0.87371  0.22182  0.80771  1.0000
  H   H3673     1.0  0.87610  0.24235  0.79776  1.0000
  H   H3674     1.0  0.85910  0.23934  0.81511  1.0000
  H   H3675     1.0  0.85072  0.21347  0.82386  1.0000
  H   H3676     1.0  0.82950  0.23577  0.78017  1.0000
  H   H3677     1.0  0.63467  0.35312  0.71777  1.0000
  C   C3058     1.0  0.50662  0.32282  0.64861  1.0000
  H   H3678     1.0  0.66015  0.36871  0.72901  1.0000
  C   C3059     1.0  0.83568  0.27386  0.82208  1.0000
  C   C3060     1.0  0.83890  0.30533  0.80278  1.0000
  C   C3061     1.0  0.85143  0.27706  0.81391  1.0000
  C   C3062     1.0  0.85302  0.29269  0.80417  1.0000
  H   H3679     1.0  0.83540  0.26146  0.82943  1.0000
  H   H3680     1.0  0.84017  0.31754  0.79526  1.0000
  H   H3681     1.0  0.86255  0.26738  0.81502  1.0000
  H   H3682     1.0  0.86526  0.29498  0.79765  1.0000
  N   N204      1.0  0.78581  0.34699  0.72484  1.0000
  C   C3063     1.0  0.78641  0.35354  0.73888  1.0000
  C   C3064     1.0  0.79894  0.35247  0.71053  1.0000
  C   C3065     1.0  0.76883  0.35276  0.72153  1.0000
  C   C3066     1.0  0.75501  0.34804  0.73386  1.0000
  H   H3683     1.0  0.74069  0.36257  0.62273  1.0000
  H   H3684     1.0  0.77760  0.34926  0.75045  1.0000
  H   H3685     1.0  0.79897  0.34948  0.74186  1.0000
  H   H3686     1.0  0.78315  0.36737  0.73614  1.0000
  H   H3687     1.0  0.89808  0.20130  0.62272  1.0000
  H   H3688     1.0  0.81157  0.34760  0.71333  1.0000
  C   C3067     1.0  0.58792  0.18401  0.69018  1.0000
  H   H3689     1.0  0.75656  0.34023  0.74583  1.0000
  H   H3690     1.0  0.64755  0.19168  0.79613  1.0000
  C   C3068     1.0  0.55561  0.30393  0.61101  1.0000
  C   C3069     1.0  0.85779  0.22055  0.90212  1.0000
  C   C3070     1.0  0.77830  0.33116  0.68259  1.0000
  C   C3071     1.0  0.81587  0.20948  0.81571  1.0000
  C   C3072     1.0  0.82308  0.30226  0.81075  1.0000
  C   C3073     1.0  0.66388  0.35543  0.73344  1.0000
  C   C3074     1.0  0.86826  0.20545  0.93175  1.0000
  C   C3075     1.0  0.74426  0.37303  0.59650  1.0000
  H   H3691     1.0  0.76780  0.30581  0.52110  1.0000
  Fe  Fe416     1.0  0.54483  0.32675  0.72268  1.0000
  H   H3692     1.0  0.51118  0.31498  0.68435  1.0000
  C   C3076     1.0  0.98954  0.21486  0.74790  1.0000
  H   H3693     1.0  0.70462  0.22513  0.68771  1.0000
  C   C3077     1.0  0.50562  0.32985  0.71878  1.0000
  C   C3078     1.0  0.82095  0.28639  0.82056  1.0000
  H   H3694     1.0  0.80677  0.22131  0.79343  1.0000
  C   C3079     1.0  0.82840  0.20739  0.82401  1.0000
  H   H3695     1.0  0.74649  0.38006  0.57001  1.0000
  S   S833      1.0  0.94088  0.19810  0.74895  1.0000
  H   H3696     1.0  0.66690  0.24241  0.72145  1.0000
  H   H3697     1.0  0.81248  0.31238  0.80884  1.0000
  H   H3698     1.0  0.68209  0.23564  0.74400  1.0000
  H   H3699     1.0  0.76224  0.28185  0.66666  1.0000
  Fe  Fe417     1.0  0.72471  0.32000  0.53673  1.0000
  H   H3700     1.0  0.75860  0.30420  0.66181  1.0000
  C   C3080     1.0  0.57972  0.24055  0.70570  1.0000
  C   C3081     1.0  0.71424  0.20665  0.60772  1.0000
  H   H3701     1.0  0.90035  0.19688  0.69861  1.0000
  H   H3702     1.0  0.98192  0.21644  0.68702  1.0000
  H   H3703     1.0  0.79560  0.26770  0.63093  1.0000
  C   C3082     1.0  0.68296  0.22620  0.73747  1.0000
  H   H3704     1.0  0.89914  0.22842  0.69421  1.0000
  N   N205      1.0  0.84120  0.24614  0.91278  1.0000
  C   C3083     1.0  0.85214  0.22931  0.91516  1.0000
  H   H3705     1.0  0.82847  0.24210  0.89624  1.0000
  C   C3084     1.0  0.68658  0.33149  0.73680  1.0000
  H   H3706     1.0  0.52729  0.32067  0.70128  1.0000
  H   H3707     1.0  0.79707  0.36626  0.70700  1.0000
  H   H3708     1.0  0.80772  0.27554  0.64751  1.0000
  H   H3709     1.0  0.73308  0.22213  0.57918  1.0000
  H   H3710     1.0  0.77792  0.20919  0.69523  1.0000
  C   C3085     1.0  0.68245  0.20590  0.86866  1.0000
  H   H3711     1.0  0.81044  0.26417  0.84930  1.0000
  H   H3712     1.0  0.80988  0.25657  0.83179  1.0000
  H   H3713     1.0  0.59260  0.26677  0.73229  1.0000
  C   C3086     1.0  0.97944  0.21133  0.73964  1.0000
  C   C3087     1.0  0.58755  0.25041  0.71025  1.0000
  H   H3714     1.0  0.82760  0.26593  0.92564  1.0000
  C   C3088     1.0  0.74273  0.37121  0.58126  1.0000
  N   N206      1.0  0.71468  0.20702  0.59026  1.0000
  H   H3715     1.0  0.59616  0.27913  0.71132  1.0000
  C   C3089     1.0  0.98640  0.20180  0.72768  1.0000
  H   H3716     1.0  0.63864  0.21854  0.48214  1.0000
  N   N207      1.0  0.80401  0.28334  0.82836  1.0000
  C   C3090     1.0  0.80396  0.26644  0.83904  1.0000
  C   C3091     1.0  0.58788  0.37532  0.71342  1.0000
  H   H3717     1.0  0.80169  0.27655  0.80692  1.0000
  C   C3092     1.0  0.74921  0.36833  0.70362  1.0000
  H   H3718     1.0  0.79841  0.27717  0.66849  1.0000
  H   H3719     1.0  0.69373  0.19570  0.59495  1.0000
  C   C3093     1.0  0.55858  0.30206  0.63848  1.0000
  C   C3094     1.0  0.60468  0.24527  0.71093  1.0000
  H   H3720     1.0  0.49396  0.30704  0.62327  1.0000
  C   C3095     1.0  0.85777  0.22128  0.93008  1.0000
  H   H3721     1.0  0.79074  0.19513  0.85899  1.0000
  C   C3096     1.0  0.80805  0.32205  0.68041  1.0000
  H   H3722     1.0  0.56419  0.27344  0.63090  1.0000
  C   C3097     1.0  0.62915  0.36560  0.75355  1.0000
  C   C3098     1.0  0.78222  0.27871  0.61191  1.0000
  H   H3723     1.0  0.80110  0.30667  0.63734  1.0000
  H   H3724     1.0  0.81682  0.25772  0.90745  1.0000
  C   C3099     1.0  0.69834  0.20701  0.58738  1.0000
  H   H3725     1.0  0.61386  0.23989  0.73952  1.0000
  H   H3726     1.0  0.62655  0.22535  0.70628  1.0000
  C   C3100     1.0  0.82586  0.24552  0.90838  1.0000
  C   C3101     1.0  0.83599  0.25341  0.92774  1.0000
  C   C3102     1.0  0.67733  0.32376  0.50472  1.0000
  C   C3103     1.0  0.92522  0.19175  0.74407  1.0000
  H   H3727     1.0  0.75364  0.33977  0.50390  1.0000
  C   C3104     1.0  0.79461  0.29553  0.83886  1.0000
  C   C3105     1.0  0.79497  0.28532  0.81527  1.0000
  H   H3728     1.0  0.79109  0.26464  0.84496  1.0000
  H   H3729     1.0  0.80142  0.29517  0.84829  1.0000
  H   H3730     1.0  0.79346  0.29810  0.80735  1.0000
  C   C3106     1.0  0.78634  0.27831  0.62670  1.0000
  C   C3107     1.0  0.79406  0.23595  0.96039  1.0000
  H   H3731     1.0  0.67954  0.30813  0.74882  1.0000
  C   C3108     1.0  0.60232  0.27036  0.72116  1.0000
  H   H3732     1.0  0.73970  0.19187  0.58542  1.0000
  H   H3733     1.0  0.83245  0.23125  0.65778  1.0000
  C   C3109     1.0  0.58175  0.18788  0.67571  1.0000
  H   H3734     1.0  0.72626  0.29947  0.51102  1.0000
  H   H3735     1.0  0.79213  0.30851  0.83152  1.0000
  C   C3110     1.0  0.69127  0.37526  0.76594  1.0000
  H   H3736     1.0  0.61567  0.37177  0.75511  1.0000
  C   C3111     1.0  0.61340  0.22987  0.70653  1.0000
  C   C3112     1.0  0.68095  0.34850  0.73132  1.0000
  H   H3737     1.0  0.85412  0.22683  0.94078  1.0000
  H   H3738     1.0  0.78154  0.32324  0.74041  1.0000
  C   C3113     1.0  0.81019  0.33759  0.67018  1.0000
  C   C3114     1.0  0.55082  0.27990  0.63259  1.0000
  H   H3739     1.0  0.90453  0.20562  0.75908  1.0000
  H   H3740     1.0  0.78220  0.28297  0.82063  1.0000
  H   H3741     1.0  0.59017  0.20789  0.61039  1.0000
  Fe  Fe418     1.0  0.66252  0.19813  0.69673  1.0000
  H   H3742     1.0  0.54562  0.27577  0.62432  1.0000
  H   H3743     1.0  0.64945  0.20575  0.63850  1.0000
  H   H3744     1.0  0.54997  0.29992  0.60296  1.0000
  H   H3745     1.0  0.51769  0.24815  0.71975  1.0000
  H   H3746     1.0  0.77716  0.18957  0.59777  1.0000
  C   C3115     1.0  0.71885  0.33326  0.48014  1.0000
  H   H3747     1.0  0.78213  0.29302  0.84555  1.0000
  H   H3748     1.0  0.76765  0.29238  0.59372  1.0000
  C   C3116     1.0  0.79563  0.27667  0.65670  1.0000
  C   C3117     1.0  0.51385  0.32325  0.70478  1.0000
  H   H3749     1.0  0.77501  0.36758  0.69618  1.0000
  C   C3118     1.0  0.79207  0.31885  0.68651  1.0000
  S   S834      1.0  0.51692  0.33426  0.73073  1.0000
  C   C3119     1.0  0.79636  0.34996  0.66628  1.0000
  C   C3120     1.0  0.72894  0.20574  0.62893  1.0000
  C   C3121     1.0  0.73598  0.36332  0.71590  1.0000
  C   C3122     1.0  0.67439  0.23005  0.72467  1.0000
  H   H3750     1.0  0.82889  0.24557  0.93843  1.0000
  C   C3123     1.0  0.53065  0.30592  0.63296  1.0000
  H   H3751     1.0  0.79474  0.30644  0.65911  1.0000
  H   H3752     1.0  0.76302  0.22944  0.78731  1.0000
  C   C3124     1.0  0.76294  0.19855  0.55112  1.0000
  C   C3125     1.0  0.73047  0.34719  0.59503  1.0000
  C   C3126     1.0  0.79029  0.30638  0.64812  1.0000
  H   H3753     1.0  0.68876  0.21823  0.59021  1.0000
  N   N208      1.0  0.78322  0.29163  0.65087  1.0000
  H   H3754     1.0  0.78106  0.31829  0.64575  1.0000
  C   C3127     1.0  0.77885  0.29138  0.63541  1.0000
  H   H3755     1.0  0.72859  0.34939  0.74071  1.0000
  H   H3756     1.0  0.68980  0.35643  0.72541  1.0000
  C   C3128     1.0  0.67515  0.32140  0.74460  1.0000
  C   C3129     1.0  0.67523  0.21783  0.71635  1.0000
  C   C3130     1.0  0.50469  0.32012  0.69516  1.0000
  C   C3131     1.0  0.77058  0.29201  0.60535  1.0000
  H   H3757     1.0  0.77107  0.29251  0.67632  1.0000
  H   H3758     1.0  0.80881  0.18545  0.69646  1.0000
  H   H3759     1.0  0.72352  0.36718  0.71357  1.0000
  C   C3132     1.0  0.76810  0.29261  0.66444  1.0000
  H   H3760     1.0  0.77204  0.19268  0.84287  1.0000
  S   S835      1.0  0.71937  0.33467  0.51164  1.0000
  H   H3761     1.0  0.59753  0.22550  0.59613  1.0000
  C   C3133     1.0  0.82444  0.21301  0.95864  1.0000
  C   C3134     1.0  0.86832  0.18435  0.65257  1.0000
  C   C3135     1.0  0.50231  0.30961  0.62922  1.0000
  H   H3762     1.0  0.81321  0.20582  0.56712  1.0000
  C   C3136     1.0  0.59786  0.21206  0.59798  1.0000
  H   H3763     1.0  0.82799  0.19925  0.83623  1.0000
  C   C3137     1.0  0.98497  0.23806  0.79204  1.0000
  C   C3138     1.0  0.77481  0.18289  0.85338  1.0000
  H   H3764     1.0  0.81526  0.19179  0.58652  1.0000
  H   H3765     1.0  0.55304  0.36754  0.71692  1.0000
  C   C3139     1.0  0.49935  0.20090  0.59238  1.0000
  C   C3140     1.0  0.98316  0.22561  0.80649  1.0000
  H   H3766     1.0  0.51672  0.37810  0.75191  1.0000
  H   H3767     1.0  0.67076  0.20188  0.87240  1.0000
  S   S836      1.0  0.58527  0.18954  0.64256  1.0000
  C   C3141     1.0  0.98888  0.19023  0.68709  1.0000
  H   H3768     1.0  0.70922  0.18909  0.91367  1.0000
  C   C3142     1.0  0.61445  0.18438  0.59901  1.0000
  H   H3769     1.0  0.63633  0.19968  0.57508  1.0000
  H   H3770     1.0  0.97615  0.18908  0.69244  1.0000
  C   C3143     1.0  0.65925  0.28937  0.47819  1.0000
  C   C3144     1.0  0.64164  0.19616  0.60593  1.0000
  C   C3145     1.0  0.50639  0.19088  0.60555  1.0000
  C   C3146     1.0  0.66065  0.19069  0.79660  1.0000
  H   H3771     1.0  0.77892  0.29509  0.47879  1.0000
  S   S837      1.0  0.67497  0.18548  0.56247  1.0000
  H   H3772     1.0  0.66349  0.19073  0.61586  1.0000
  H   H3773     1.0  0.67245  0.37867  0.62582  1.0000
  H   H3774     1.0  0.50705  0.38092  0.72086  1.0000
  H   H3775     1.0  0.54175  0.37900  0.70120  1.0000
  H   H3776     1.0  0.57541  0.37952  0.75360  1.0000
  C   C3147     1.0  0.49071  0.23108  0.61423  1.0000
  H   H3777     1.0  0.70007  0.37487  0.61531  1.0000
  C   C3148     1.0  0.58125  0.38202  0.74055  1.0000
  H   H3778     1.0  0.68668  0.32273  0.47933  1.0000
  H   H3779     1.0  0.49243  0.24446  0.72299  1.0000
  H   H3780     1.0  0.60712  0.18253  0.59106  1.0000
  N   N209      1.0  0.66971  0.30147  0.47570  1.0000
  H   H3781     1.0  0.75707  0.34789  0.47529  1.0000
  Fe  Fe419     1.0  0.63930  0.53726  0.22719  1.0000
  S   S838      1.0  0.64748  0.53646  0.20019  1.0000
  Fe  Fe420     1.0  0.67449  0.52710  0.23242  1.0000
  S   S839      1.0  0.68571  0.52583  0.20586  1.0000
  S   S840      1.0  0.69020  0.51853  0.25149  1.0000
  Fe  Fe421     1.0  0.66689  0.54952  0.20018  1.0000
  H   H3782     1.0  0.67198  0.41488  0.15337  1.0000
  Fe  Fe422     1.0  0.66540  0.51284  0.20832  1.0000
  S   S841      1.0  0.67341  0.49015  0.19704  1.0000
  S   S842      1.0  0.65742  0.55201  0.22666  1.0000
  S   S843      1.0  0.65549  0.51239  0.23542  1.0000
  C   C3149     1.0  0.74458  0.57054  0.19437  1.0000
  S   S844      1.0  0.76058  0.54748  0.31587  1.0000
  H   H3783     1.0  0.78041  0.57738  0.35320  1.0000
  Fe  Fe423     1.0  0.73275  0.56434  0.28349  1.0000
  S   S845      1.0  0.75401  0.54236  0.28157  1.0000
  C   C3150     1.0  0.72077  0.43707  0.23029  1.0000
  Fe  Fe424     1.0  0.74467  0.53448  0.30898  1.0000
  S   S846      1.0  0.74418  0.50747  0.32069  1.0000
  Fe  Fe425     1.0  0.76786  0.55709  0.28846  1.0000
  S   S847      1.0  0.79407  0.55865  0.27533  1.0000
  S   S848      1.0  0.72224  0.55564  0.31056  1.0000
  H   H3784     1.0  0.65776  0.49634  0.30112  1.0000
  H   H3785     1.0  0.76459  0.49983  0.25135  1.0000
  H   H3786     1.0  0.71974  0.48062  0.24021  1.0000
  C   C3151     1.0  0.75931  0.56229  0.22162  1.0000
  H   H3787     1.0  0.76345  0.57177  0.33693  1.0000
  C   C3152     1.0  0.80695  0.57892  0.24659  1.0000
  H   H3788     1.0  0.71499  0.39640  0.20940  1.0000
  C   C3153     1.0  0.72591  0.39095  0.34905  1.0000
  H   H3789     1.0  0.77539  0.51547  0.30249  1.0000
  C   C3154     1.0  0.65503  0.45827  0.26610  1.0000
  H   H3790     1.0  0.70649  0.47419  0.20433  1.0000
  H   H3791     1.0  0.81896  0.50669  0.27932  1.0000
  C   C3155     1.0  0.71465  0.57918  0.39118  1.0000
  H   H3792     1.0  0.72261  0.40254  0.34049  1.0000
  Fe  Fe426     1.0  0.65137  0.40520  0.21746  1.0000
  C   C3156     1.0  0.62598  0.46709  0.15671  1.0000
  S   S849      1.0  0.63764  0.42939  0.22532  1.0000
  C   C3157     1.0  0.75975  0.57544  0.19223  1.0000
  S   S850      1.0  0.67176  0.57118  0.17899  1.0000
  H   H3793     1.0  0.73476  0.40147  0.19859  1.0000
  C   C3158     1.0  0.69688  0.56039  0.39422  1.0000
  H   H3794     1.0  0.72558  0.55812  0.21108  1.0000
  H   H3795     1.0  0.70113  0.57452  0.23875  1.0000
  N   N210      1.0  0.67882  0.47765  0.29274  1.0000
  S   S851      1.0  0.65170  0.39797  0.19395  1.0000
  S   S852      1.0  0.67907  0.39894  0.21427  1.0000
  H   H3796     1.0  0.73274  0.46189  0.23521  1.0000
  Fe  Fe427     1.0  0.73920  0.43655  0.28354  1.0000
  S   S853      1.0  0.72387  0.42406  0.30701  1.0000
  S   S854      1.0  0.73806  0.46413  0.27438  1.0000
  Fe  Fe428     1.0  0.71821  0.41089  0.29065  1.0000
  S   S855      1.0  0.69253  0.40788  0.29235  1.0000
  S   S856      1.0  0.76275  0.41705  0.28494  1.0000
  S   S857      1.0  0.73131  0.42520  0.26717  1.0000
  C   C3159     1.0  0.77281  0.50560  0.25443  1.0000
  H   H3797     1.0  0.63141  0.44345  0.19431  1.0000
  H   H3798     1.0  0.58001  0.56614  0.24703  1.0000
  C   C3160     1.0  0.72627  0.39329  0.19968  1.0000
  C   C3161     1.0  0.81373  0.49541  0.28532  1.0000
  C   C3162     1.0  0.67818  0.39686  0.27373  1.0000
  C   C3163     1.0  0.69245  0.39500  0.27960  1.0000
  H   H3799     1.0  0.69251  0.45319  0.15798  1.0000
  C   C3164     1.0  0.74459  0.55750  0.22323  1.0000
  C   C3165     1.0  0.77861  0.57661  0.25014  1.0000
  H   H3800     1.0  0.66723  0.40627  0.27698  1.0000
  C   C3166     1.0  0.62449  0.44995  0.18433  1.0000
  C   C3167     1.0  0.68394  0.43305  0.15514  1.0000
  C   C3168     1.0  0.71399  0.38573  0.36314  1.0000
  N   N211      1.0  0.63420  0.46096  0.17098  1.0000
  H   H3801     1.0  0.69239  0.55323  0.38796  1.0000
  Fe  Fe429     1.0  0.74690  0.40354  0.30717  1.0000
  H   H3802     1.0  0.77590  0.48628  0.30344  1.0000
  C   C3169     1.0  0.68584  0.58210  0.18013  1.0000
  H   H3803     1.0  0.67752  0.49939  0.30158  1.0000
  H   H3804     1.0  0.62055  0.48184  0.18235  1.0000
  C   C3170     1.0  0.63356  0.47552  0.17755  1.0000
  N   N212      1.0  0.70809  0.46743  0.22993  1.0000
  H   H3805     1.0  0.63299  0.47533  0.14637  1.0000
  C   C3171     1.0  0.68963  0.42957  0.23651  1.0000
  Fe  Fe430     1.0  0.75357  0.40464  0.27047  1.0000
  C   C3172     1.0  0.56322  0.57888  0.27865  1.0000
  C   C3173     1.0  0.76683  0.57111  0.20638  1.0000
  C   C3174     1.0  0.70650  0.38270  0.27541  1.0000
  C   C3175     1.0  0.66799  0.44809  0.27343  1.0000
  C   C3176     1.0  0.73185  0.57693  0.39074  1.0000
  H   H3806     1.0  0.78560  0.56311  0.17003  1.0000
  H   H3807     1.0  0.79454  0.47917  0.31093  1.0000
  H   H3808     1.0  0.79148  0.53851  0.23970  1.0000
  C   C3177     1.0  0.74147  0.49552  0.30822  1.0000
  C   C3178     1.0  0.73844  0.50289  0.29238  1.0000
  C   C3179     1.0  0.73722  0.49312  0.28225  1.0000
  C   C3180     1.0  0.73914  0.47587  0.28781  1.0000
  C   C3181     1.0  0.74193  0.46844  0.30376  1.0000
  C   C3182     1.0  0.74306  0.47827  0.31395  1.0000
  H   H3809     1.0  0.73710  0.51611  0.28785  1.0000
  H   H3810     1.0  0.73490  0.49897  0.26998  1.0000
  H   H3811     1.0  0.74336  0.45512  0.30820  1.0000
  H   H3812     1.0  0.74539  0.47245  0.32622  1.0000
  H   H3813     1.0  0.76475  0.55939  0.23234  1.0000
  H   H3814     1.0  0.68562  0.56815  0.40069  1.0000
  C   C3183     1.0  0.65738  0.48141  0.27572  1.0000
  H   H3815     1.0  0.70150  0.39327  0.36531  1.0000
  S   S858      1.0  0.73989  0.38938  0.29284  1.0000
  H   H3816     1.0  0.72886  0.54900  0.38145  1.0000
  H   H3817     1.0  0.67755  0.42662  0.23873  1.0000
  C   C3184     1.0  0.68174  0.44845  0.15883  1.0000
  S   S859      1.0  0.71820  0.57426  0.26339  1.0000
  H   H3818     1.0  0.72210  0.39663  0.18777  1.0000
  H   H3819     1.0  0.64910  0.45326  0.25950  1.0000
  H   H3820     1.0  0.73315  0.43930  0.22763  1.0000
  H   H3821     1.0  0.68601  0.47387  0.24833  1.0000
  C   C3185     1.0  0.60368  0.56480  0.22971  1.0000
  H   H3822     1.0  0.63982  0.48285  0.26128  1.0000
  C   C3186     1.0  0.67569  0.45444  0.28194  1.0000
  C   C3187     1.0  0.71481  0.47423  0.21225  1.0000
  H   H3823     1.0  0.62522  0.45672  0.15171  1.0000
  C   C3188     1.0  0.64981  0.47491  0.26716  1.0000
  H   H3824     1.0  0.71593  0.48733  0.21019  1.0000
  C   C3189     1.0  0.69763  0.53428  0.25476  1.0000
  C   C3190     1.0  0.69610  0.55004  0.24419  1.0000
  C   C3191     1.0  0.70223  0.56240  0.24700  1.0000
  C   C3192     1.0  0.70993  0.55899  0.26036  1.0000
  C   C3193     1.0  0.71138  0.54327  0.27094  1.0000
  C   C3194     1.0  0.70527  0.53093  0.26813  1.0000
  H   H3825     1.0  0.69030  0.55266  0.23380  1.0000
  H   H3826     1.0  0.68323  0.48081  0.22727  1.0000
  H   H3827     1.0  0.71708  0.54068  0.28138  1.0000
  H   H3828     1.0  0.70636  0.51881  0.27641  1.0000
  C   C3195     1.0  0.66392  0.47305  0.20619  1.0000
  C   C3196     1.0  0.64923  0.47403  0.21846  1.0000
  C   C3197     1.0  0.64141  0.46043  0.22454  1.0000
  C   C3198     1.0  0.64828  0.44580  0.21847  1.0000
  C   C3199     1.0  0.66315  0.44477  0.20647  1.0000
  C   C3200     1.0  0.67099  0.45829  0.20047  1.0000
  H   H3829     1.0  0.64365  0.48539  0.22291  1.0000
  H   H3830     1.0  0.62985  0.46134  0.23377  1.0000
  H   H3831     1.0  0.66840  0.43375  0.20143  1.0000
  H   H3832     1.0  0.68243  0.45742  0.19110  1.0000
  H   H3833     1.0  0.69637  0.42577  0.15149  1.0000
  C   C3201     1.0  0.71958  0.46771  0.23998  1.0000
  H   H3834     1.0  0.77812  0.57480  0.20583  1.0000
  C   C3202     1.0  0.77751  0.51984  0.24380  1.0000
  H   H3835     1.0  0.73874  0.55075  0.23510  1.0000
  H   H3836     1.0  0.71685  0.55284  0.36621  1.0000
  S   S860      1.0  0.61253  0.54491  0.23992  1.0000
  C   C3203     1.0  0.69082  0.44603  0.23435  1.0000
  H   H3837     1.0  0.80151  0.52702  0.26522  1.0000
  C   C3204     1.0  0.69204  0.47876  0.23535  1.0000
  H   H3838     1.0  0.77412  0.48785  0.27689  1.0000
  H   H3839     1.0  0.72733  0.46685  0.20761  1.0000
  C   C3205     1.0  0.67015  0.42693  0.15622  1.0000
  C   C3206     1.0  0.66572  0.45772  0.16384  1.0000
  H   H3840     1.0  0.63931  0.48516  0.16786  1.0000
  H   H3841     1.0  0.81881  0.48961  0.29670  1.0000
  H   H3842     1.0  0.71589  0.46110  0.25307  1.0000
  H   H3843     1.0  0.73076  0.56581  0.36343  1.0000
  C   C3207     1.0  0.78910  0.50611  0.27369  1.0000
  C   C3208     1.0  0.78922  0.51194  0.29966  1.0000
  H   H3844     1.0  0.79399  0.47380  0.29240  1.0000
  C   C3209     1.0  0.78970  0.48397  0.29935  1.0000
  C   C3210     1.0  0.78791  0.52733  0.24785  1.0000
  H   H3845     1.0  0.79321  0.57488  0.17962  1.0000
  Fe  Fe431     1.0  0.73907  0.56949  0.31483  1.0000
  N   N213      1.0  0.70843  0.57046  0.38225  1.0000
  S   S861      1.0  0.77048  0.39482  0.24849  1.0000
  H   H3846     1.0  0.74150  0.56891  0.38363  1.0000
  C   C3211     1.0  0.70644  0.45020  0.23175  1.0000
  H   H3847     1.0  0.69370  0.49138  0.23472  1.0000
  C   C3212     1.0  0.79328  0.57211  0.25596  1.0000
  H   H3848     1.0  0.70281  0.40412  0.23811  1.0000
  C   C3213     1.0  0.70387  0.41688  0.23598  1.0000
  C   C3214     1.0  0.77847  0.49877  0.26917  1.0000
  H   H3849     1.0  0.79385  0.52354  0.29355  1.0000
  H   H3850     1.0  0.66498  0.46948  0.16663  1.0000
  N   N214      1.0  0.79527  0.49936  0.28925  1.0000
  H   H3851     1.0  0.81874  0.48664  0.27677  1.0000
  C   C3215     1.0  0.58735  0.57263  0.23605  1.0000
  C   C3216     1.0  0.65409  0.43608  0.16118  1.0000
  S   S862      1.0  0.75733  0.38741  0.32889  1.0000
  C   C3217     1.0  0.65136  0.45161  0.16551  1.0000
  H   H3852     1.0  0.63996  0.47167  0.18808  1.0000
  H   H3853     1.0  0.67214  0.43515  0.27251  1.0000
  H   H3854     1.0  0.64384  0.43078  0.16171  1.0000
  H   H3855     1.0  0.67185  0.50389  0.28223  1.0000
  H   H3856     1.0  0.53779  0.57788  0.29063  1.0000
  H   H3857     1.0  0.62170  0.44023  0.17989  1.0000
  H   H3858     1.0  0.65279  0.49445  0.27588  1.0000
  H   H3859     1.0  0.68581  0.44599  0.28722  1.0000
  H   H3860     1.0  0.66555  0.46623  0.31645  1.0000
  C   C3218     1.0  0.67047  0.47126  0.28359  1.0000
  H   H3861     1.0  0.61303  0.47430  0.16023  1.0000
  H   H3862     1.0  0.79312  0.50722  0.31174  1.0000
  H   H3863     1.0  0.70345  0.46426  0.28317  1.0000
  C   C3219     1.0  0.69637  0.47713  0.28387  1.0000
  C   C3220     1.0  0.73721  0.56166  0.20967  1.0000
  H   H3864     1.0  0.67930  0.45523  0.23478  1.0000
  H   H3865     1.0  0.61224  0.45692  0.19023  1.0000
  H   H3866     1.0  0.70311  0.48215  0.29011  1.0000
  H   H3867     1.0  0.68394  0.47211  0.31718  1.0000
  H   H3868     1.0  0.77300  0.52508  0.23245  1.0000
  C   C3221     1.0  0.67851  0.46711  0.30970  1.0000
  H   H3869     1.0  0.68595  0.45423  0.30962  1.0000
  C   C3222     1.0  0.67105  0.49504  0.29450  1.0000
  H   H3870     1.0  0.73054  0.41071  0.23239  1.0000
  C   C3223     1.0  0.71944  0.42062  0.23271  1.0000
  H   H3871     1.0  0.69728  0.48469  0.27097  1.0000
  C   C3224     1.0  0.79365  0.52060  0.26254  1.0000
  H   H3872     1.0  0.69590  0.57695  0.36190  1.0000
  S   S863      1.0  0.69986  0.38995  0.16960  1.0000
  C   C3225     1.0  0.67809  0.38666  0.26348  1.0000
  C   C3226     1.0  0.69029  0.58043  0.19508  1.0000
  H   H3873     1.0  0.73800  0.57357  0.18449  1.0000
  C   C3227     1.0  0.72184  0.55902  0.37302  1.0000
  H   H3874     1.0  0.62555  0.56704  0.21022  1.0000
  H   H3875     1.0  0.70312  0.55133  0.40391  1.0000
  C   C3228     1.0  0.61301  0.57303  0.21530  1.0000
  H   H3876     1.0  0.56714  0.56558  0.27935  1.0000
  S   S864      1.0  0.74751  0.58004  0.28778  1.0000
  H   H3877     1.0  0.68561  0.57173  0.20601  1.0000
  C   C3229     1.0  0.78526  0.57590  0.17096  1.0000
  Fe  Fe432     1.0  0.67924  0.38951  0.19243  1.0000
  H   H3878     1.0  0.76812  0.57116  0.25711  1.0000
  H   H3879     1.0  0.81840  0.57532  0.25095  1.0000
  H   H3880     1.0  0.66710  0.38828  0.25882  1.0000
  H   H3881     1.0  0.75879  0.57604  0.16003  1.0000
  C   C3230     1.0  0.75873  0.58216  0.34301  1.0000
  Fe  Fe433     1.0  0.75632  0.42171  0.63762  1.0000
  S   S865      1.0  0.75830  0.40351  0.66179  1.0000
  S   S866      1.0  0.75189  0.44978  0.63392  1.0000
  Fe  Fe434     1.0  0.75437  0.39500  0.62067  1.0000
  C   C3231     1.0  0.58799  0.56843  0.74218  1.0000
  H   H3882     1.0  0.67937  0.52881  0.82904  1.0000
  Fe  Fe435     1.0  0.73870  0.39386  0.65709  1.0000
  H   H3883     1.0  0.54316  0.40477  0.69915  1.0000
  H   H3884     1.0  0.71200  0.56999  0.74427  1.0000
  H   H3885     1.0  0.72315  0.56785  0.75978  1.0000
  S   S867      1.0  0.73510  0.41325  0.63416  1.0000
  S   S868      1.0  0.77559  0.40507  0.62199  1.0000
  Fe  Fe436     1.0  0.63886  0.43395  0.71433  1.0000
  S   S869      1.0  0.61402  0.44696  0.72734  1.0000
  S   S870      1.0  0.65246  0.44100  0.68786  1.0000
  Fe  Fe437     1.0  0.64581  0.40899  0.74540  1.0000
  S   S871      1.0  0.62204  0.41972  0.76131  1.0000
  C   C3232     1.0  0.64636  0.39645  0.65664  1.0000
  Fe  Fe438     1.0  0.61042  0.42099  0.74041  1.0000
  S   S872      1.0  0.58856  0.40871  0.74664  1.0000
  Fe  Fe439     1.0  0.62775  0.44462  0.74708  1.0000
  S   S873      1.0  0.62516  0.46434  0.76120  1.0000
  S   S874      1.0  0.63386  0.40850  0.72561  1.0000
  S   S875      1.0  0.65276  0.43345  0.73307  1.0000
  C   C3233     1.0  0.70395  0.49168  0.68947  1.0000
  Fe  Fe440     1.0  0.74959  0.54865  0.65485  1.0000
  S   S876      1.0  0.75879  0.53296  0.67734  1.0000
  S   S877      1.0  0.72194  0.55555  0.65791  1.0000
  Fe  Fe441     1.0  0.78434  0.54888  0.63382  1.0000
  S   S878      1.0  0.79639  0.53325  0.65484  1.0000
  C   C3234     1.0  0.65963  0.57626  0.81611  1.0000
  Fe  Fe442     1.0  0.77704  0.51814  0.65957  1.0000
  S   S879      1.0  0.78304  0.48990  0.66550  1.0000
  Fe  Fe443     1.0  0.77687  0.54965  0.67041  1.0000
  S   S880      1.0  0.77709  0.56428  0.68860  1.0000
  S   S881      1.0  0.76641  0.53277  0.63746  1.0000
  C   C3235     1.0  0.69863  0.39022  0.78206  1.0000
  Fe  Fe444     1.0  0.66485  0.54123  0.74382  1.0000
  S   S882      1.0  0.65393  0.56861  0.73650  1.0000
  S   S883      1.0  0.66263  0.52397  0.72906  1.0000
  Fe  Fe445     1.0  0.68071  0.54646  0.76930  1.0000
  H   H3886     1.0  0.70625  0.39277  0.64695  1.0000
  S   S884      1.0  0.69807  0.53325  0.78655  1.0000
  Fe  Fe446     1.0  0.64716  0.56770  0.76390  1.0000
  S   S885      1.0  0.71813  0.38578  0.67767  1.0000
  H   H3887     1.0  0.56042  0.43035  0.72497  1.0000
  H   H3888     1.0  0.69384  0.41939  0.70828  1.0000
  S   S886      1.0  0.65640  0.54003  0.77124  1.0000
  S   S887      1.0  0.69005  0.54510  0.74256  1.0000
  H   H3889     1.0  0.71064  0.41397  0.61029  1.0000
  C   C3236     1.0  0.59142  0.55904  0.75776  1.0000
  C   C3237     1.0  0.58154  0.56508  0.77205  1.0000
  H   H3890     1.0  0.79645  0.53032  0.59842  1.0000
  H   H3891     1.0  0.60330  0.53679  0.73708  1.0000
  N   N215      1.0  0.71085  0.50598  0.68878  1.0000
  H   H3892     1.0  0.74964  0.45695  0.68186  1.0000
  C   C3238     1.0  0.82213  0.50443  0.59585  1.0000
  H   H3893     1.0  0.73595  0.49705  0.67592  1.0000
  N   N216      1.0  0.73822  0.55874  0.73814  1.0000
  C   C3239     1.0  0.76345  0.53041  0.76980  1.0000
  H   H3894     1.0  0.73899  0.43863  0.67151  1.0000
  H   H3895     1.0  0.60130  0.39155  0.69363  1.0000
  C   C3240     1.0  0.72699  0.43914  0.71833  1.0000
  C   C3241     1.0  0.79336  0.51826  0.59927  1.0000
  C   C3242     1.0  0.72498  0.42873  0.69561  1.0000
  C   C3243     1.0  0.78212  0.53614  0.74319  1.0000
  H   H3896     1.0  0.68570  0.38433  0.69707  1.0000
  H   H3897     1.0  0.70267  0.53254  0.68587  1.0000
  C   C3244     1.0  0.70681  0.54448  0.79503  1.0000
  C   C3245     1.0  0.70249  0.56187  0.79253  1.0000
  H   H3898     1.0  0.68336  0.45541  0.69121  1.0000
  C   C3246     1.0  0.67810  0.55353  0.83131  1.0000
  C   C3247     1.0  0.72554  0.50819  0.67495  1.0000
  C   C3248     1.0  0.59651  0.39879  0.71694  1.0000
  H   H3899     1.0  0.50511  0.39858  0.72932  1.0000
  C   C3249     1.0  0.60697  0.53547  0.77574  1.0000
  H   H3900     1.0  0.73045  0.51898  0.67487  1.0000
  C   C3250     1.0  0.68923  0.46527  0.69082  1.0000
  H   H3901     1.0  0.58347  0.55911  0.78439  1.0000
  H   H3902     1.0  0.74253  0.45695  0.71172  1.0000
  H   H3903     1.0  0.75206  0.57441  0.71775  1.0000
  H   H3904     1.0  0.78993  0.52058  0.76523  1.0000
  H   H3905     1.0  0.72511  0.55719  0.72069  1.0000
  C   C3251     1.0  0.77951  0.52836  0.75994  1.0000
  C   C3252     1.0  0.71366  0.56634  0.67404  1.0000
  C   C3253     1.0  0.55372  0.42119  0.72525  1.0000
  H   H3906     1.0  0.67950  0.41296  0.65107  1.0000
  H   H3907     1.0  0.61267  0.52033  0.75157  1.0000
  C   C3254     1.0  0.77184  0.56546  0.77948  1.0000
  C   C3255     1.0  0.69708  0.56711  0.68258  1.0000
  C   C3256     1.0  0.79023  0.57391  0.59554  1.0000
  C   C3257     1.0  0.70975  0.57018  0.79979  1.0000
  C   C3258     1.0  0.65530  0.56404  0.81073  1.0000
  H   H3908     1.0  0.68908  0.56180  0.67871  1.0000
  C   C3259     1.0  0.79445  0.56427  0.69582  1.0000
  C   C3260     1.0  0.74158  0.44911  0.69041  1.0000
  H   H3909     1.0  0.63197  0.53862  0.75049  1.0000
  H   H3910     1.0  0.77361  0.56096  0.76801  1.0000
  C   C3261     1.0  0.82254  0.55260  0.70026  1.0000
  C   C3262     1.0  0.80921  0.55216  0.69389  1.0000
  S   S888      1.0  0.80075  0.55814  0.60942  1.0000
  H   H3911     1.0  0.69338  0.56886  0.78528  1.0000
  H   H3912     1.0  0.83396  0.54322  0.69875  1.0000
  H   H3913     1.0  0.81031  0.54243  0.68762  1.0000
  H   H3914     1.0  0.68184  0.41354  0.78540  1.0000
  H   H3915     1.0  0.62291  0.55895  0.75497  1.0000
  H   H3916     1.0  0.79947  0.57566  0.77512  1.0000
  H   H3917     1.0  0.76136  0.52417  0.78280  1.0000
  H   H3918     1.0  0.73499  0.53668  0.81894  1.0000
  C   C3263     1.0  0.63583  0.48070  0.75214  1.0000
  C   C3264     1.0  0.64141  0.48525  0.73497  1.0000
  C   C3265     1.0  0.64938  0.49869  0.72808  1.0000
  C   C3266     1.0  0.65217  0.50745  0.73829  1.0000
  C   C3267     1.0  0.64665  0.50288  0.75548  1.0000
  C   C3268     1.0  0.63834  0.48967  0.76236  1.0000
  H   H3919     1.0  0.63930  0.47858  0.72698  1.0000
  H   H3920     1.0  0.65334  0.50234  0.71475  1.0000
  H   H3921     1.0  0.64890  0.50939  0.76350  1.0000
  H   H3922     1.0  0.63409  0.48616  0.77566  1.0000
  H   H3923     1.0  0.81705  0.57989  0.66800  1.0000
  C   C3269     1.0  0.80644  0.57721  0.71032  1.0000
  C   C3270     1.0  0.66226  0.54713  0.81557  1.0000
  C   C3271     1.0  0.73551  0.43879  0.68463  1.0000
  C   C3272     1.0  0.67343  0.40140  0.77127  1.0000
  H   H3924     1.0  0.79148  0.44402  0.61412  1.0000
  H   H3925     1.0  0.66230  0.41099  0.76996  1.0000
  S   S889      1.0  0.75076  0.39072  0.59710  1.0000
  H   H3926     1.0  0.80636  0.57121  0.64899  1.0000
  S   S890      1.0  0.67078  0.57391  0.76440  1.0000
  S   S891      1.0  0.83851  0.56601  0.71542  1.0000
  H   H3927     1.0  0.81559  0.44590  0.62348  1.0000
  H   H3928     1.0  0.72232  0.51094  0.66264  1.0000
  C   C3273     1.0  0.54410  0.40626  0.71091  1.0000
  H   H3929     1.0  0.60241  0.40928  0.71163  1.0000
  C   C3274     1.0  0.70982  0.48202  0.67709  1.0000
  C   C3275     1.0  0.70003  0.40131  0.67969  1.0000
  C   C3276     1.0  0.69981  0.41777  0.67099  1.0000
  C   C3277     1.0  0.68507  0.42999  0.67315  1.0000
  C   C3278     1.0  0.67070  0.42575  0.68422  1.0000
  C   C3279     1.0  0.67104  0.40926  0.69268  1.0000
  C   C3280     1.0  0.68562  0.39707  0.69045  1.0000
  H   H3930     1.0  0.71101  0.42118  0.66285  1.0000
  H   H3931     1.0  0.68486  0.44273  0.66649  1.0000
  H   H3932     1.0  0.65996  0.40571  0.70063  1.0000
  H   H3933     1.0  0.76591  0.56926  0.60811  1.0000
  C   C3281     1.0  0.76062  0.46047  0.64311  1.0000
  C   C3282     1.0  0.75527  0.47783  0.64082  1.0000
  C   C3283     1.0  0.76212  0.48695  0.64752  1.0000
  C   C3284     1.0  0.77439  0.47880  0.65664  1.0000
  C   C3285     1.0  0.77974  0.46143  0.65896  1.0000
  C   C3286     1.0  0.77288  0.45227  0.65224  1.0000
  H   H3934     1.0  0.74585  0.48425  0.63370  1.0000
  H   H3935     1.0  0.75782  0.50027  0.64568  1.0000
  H   H3936     1.0  0.78924  0.45502  0.66599  1.0000
  H   H3937     1.0  0.77717  0.43892  0.65401  1.0000
  C   C3287     1.0  0.81151  0.47262  0.61559  1.0000
  H   H3938     1.0  0.69004  0.39432  0.60357  1.0000
  H   H3939     1.0  0.77361  0.46938  0.60134  1.0000
  C   C3288     1.0  0.69787  0.52148  0.68663  1.0000
  H   H3940     1.0  0.68736  0.54945  0.83884  1.0000
  C   C3289     1.0  0.80801  0.45712  0.61752  1.0000
  C   C3290     1.0  0.69050  0.48739  0.70257  1.0000
  H   H3941     1.0  0.82524  0.51673  0.59397  1.0000
  H   H3942     1.0  0.51543  0.39839  0.70811  1.0000
  H   H3943     1.0  0.69992  0.43293  0.74393  1.0000
  C   C3291     1.0  0.69831  0.41366  0.61905  1.0000
  H   H3944     1.0  0.79334  0.51788  0.58643  1.0000
  H   H3945     1.0  0.72407  0.41037  0.74340  1.0000
  C   C3292     1.0  0.72218  0.56175  0.75032  1.0000
  H   H3946     1.0  0.79324  0.50446  0.63189  1.0000
  H   H3947     1.0  0.74525  0.58134  0.73694  1.0000
  H   H3948     1.0  0.82202  0.47283  0.62011  1.0000
  C   C3293     1.0  0.65248  0.38674  0.64475  1.0000
  C   C3294     1.0  0.74996  0.54030  0.76297  1.0000
  H   H3949     1.0  0.77124  0.55119  0.72313  1.0000
  C   C3295     1.0  0.54714  0.41169  0.74038  1.0000
  H   H3950     1.0  0.68849  0.42149  0.61228  1.0000
  H   H3951     1.0  0.67830  0.57437  0.70340  1.0000
  C   C3296     1.0  0.71894  0.40518  0.73583  1.0000
  C   C3297     1.0  0.58908  0.39554  0.73385  1.0000
  C   C3298     1.0  0.76868  0.54590  0.73626  1.0000
  C   C3299     1.0  0.81450  0.57997  0.64409  1.0000
  H   H3952     1.0  0.68517  0.49435  0.71227  1.0000
  H   H3953     1.0  0.79459  0.53445  0.73542  1.0000
  H   H3954     1.0  0.62162  0.55447  0.73621  1.0000
  C   C3300     1.0  0.67128  0.57047  0.82652  1.0000
  S   S892      1.0  0.71260  0.39188  0.79274  1.0000
  H   H3955     1.0  0.78136  0.55727  0.78647  1.0000
  Fe  Fe447     1.0  0.67840  0.57223  0.73775  1.0000
  N   N217      1.0  0.52957  0.38277  0.72613  1.0000
  C   C3301     1.0  0.73744  0.44920  0.70724  1.0000
  H   H3956     1.0  0.74702  0.54893  0.71584  1.0000
  H   H3957     1.0  0.75963  0.56344  0.78757  1.0000
  H   H3958     1.0  0.72001  0.48425  0.66665  1.0000
  C   C3302     1.0  0.70793  0.38716  0.63620  1.0000
  C   C3303     1.0  0.71856  0.53553  0.80455  1.0000
  C   C3304     1.0  0.53922  0.39924  0.74090  1.0000
  C   C3305     1.0  0.72594  0.54379  0.81156  1.0000
  H   H3959     1.0  0.72959  0.39748  0.72852  1.0000
  C   C3306     1.0  0.67361  0.54189  0.82583  1.0000
  C   C3307     1.0  0.62110  0.54927  0.74966  1.0000
  H   H3960     1.0  0.70699  0.46200  0.66813  1.0000
  H   H3961     1.0  0.84033  0.57663  0.67751  1.0000
  C   C3308     1.0  0.70245  0.46908  0.67780  1.0000
  H   H3962     1.0  0.54881  0.41359  0.75174  1.0000
  C   C3309     1.0  0.78442  0.47038  0.60494  1.0000
  H   H3963     1.0  0.59544  0.53122  0.78321  1.0000
  N   N218      1.0  0.69573  0.39640  0.62578  1.0000
  H   H3964     1.0  0.55747  0.42586  0.69879  1.0000
  C   C3310     1.0  0.71605  0.50389  0.70448  1.0000
  H   H3965     1.0  0.72086  0.42095  0.69030  1.0000
  C   C3311     1.0  0.65622  0.40593  0.65860  1.0000
  N   N219      1.0  0.80536  0.50384  0.60661  1.0000
  H   H3966     1.0  0.61728  0.52418  0.77588  1.0000
  H   H3967     1.0  0.68680  0.52139  0.69712  1.0000
  C   C3312     1.0  0.55215  0.41854  0.71054  1.0000
  H   H3968     1.0  0.70532  0.50444  0.71531  1.0000
  H   H3969     1.0  0.72220  0.51398  0.70390  1.0000
  H   H3970     1.0  0.72496  0.49180  0.70719  1.0000
  H   H3971     1.0  0.67292  0.47145  0.71323  1.0000
  H   H3972     1.0  0.72444  0.43935  0.73133  1.0000
  H   H3973     1.0  0.80703  0.51862  0.62259  1.0000
  H   H3974     1.0  0.81518  0.49690  0.62891  1.0000
  C   C3313     1.0  0.72017  0.42883  0.71283  1.0000
  C   C3314     1.0  0.79308  0.57667  0.70417  1.0000
  C   C3315     1.0  0.80525  0.50605  0.62316  1.0000
  H   H3975     1.0  0.73385  0.53753  0.73261  1.0000
  C   C3316     1.0  0.75221  0.54848  0.74593  1.0000
  Fe  Fe448     1.0  0.77579  0.38606  0.64611  1.0000
  C   C3317     1.0  0.79449  0.45601  0.61219  1.0000
  H   H3976     1.0  0.64678  0.56717  0.80258  1.0000
  C   C3318     1.0  0.68334  0.47433  0.70322  1.0000
  H   H3977     1.0  0.68604  0.42145  0.74319  1.0000
  H   H3978     1.0  0.78050  0.51878  0.60697  1.0000
  C   C3319     1.0  0.78776  0.48597  0.60299  1.0000
  C   C3320     1.0  0.74179  0.57523  0.72893  1.0000
  C   C3321     1.0  0.67871  0.39641  0.63611  1.0000
  N   N220      1.0  0.70910  0.41834  0.72488  1.0000
  C   C3322     1.0  0.73599  0.55021  0.72631  1.0000
  C   C3323     1.0  0.67221  0.40578  0.64866  1.0000
  H   H3979     1.0  0.65923  0.53802  0.81094  1.0000
  C   C3324     1.0  0.69549  0.42858  0.73520  1.0000
  H   H3980     1.0  0.71050  0.40100  0.71012  1.0000
  C   C3325     1.0  0.68444  0.40282  0.78002  1.0000
  S   S893      1.0  0.73123  0.57066  0.81861  1.0000
  N   N221      1.0  0.60524  0.54415  0.75856  1.0000
  H   H3981     1.0  0.82290  0.50228  0.58343  1.0000
  H   H3982     1.0  0.79455  0.57963  0.75523  1.0000
  H   H3983     1.0  0.69347  0.52357  0.67504  1.0000
  H   H3984     1.0  0.77922  0.49654  0.59756  1.0000
  C   C3326     1.0  0.80147  0.48756  0.60830  1.0000
  H   H3985     1.0  0.83209  0.49490  0.60125  1.0000
  S   S894      1.0  0.76636  0.56639  0.64886  1.0000
  H   H3986     1.0  0.72197  0.52211  0.80655  1.0000
  H   H3987     1.0  0.73787  0.54112  0.77127  1.0000
  H   H3988     1.0  0.69234  0.40289  0.72628  1.0000
  H   H3989     1.0  0.69835  0.41982  0.62884  1.0000
  C   C3327     1.0  0.72147  0.56109  0.80939  1.0000
  C   C3328     1.0  0.70117  0.41010  0.71696  1.0000
  C   C3329     1.0  0.69942  0.38851  0.61139  1.0000
  H   H3990     1.0  0.59523  0.56486  0.73075  1.0000
  H   H3991     1.0  0.61002  0.54359  0.78213  1.0000
  C   C3330     1.0  0.69095  0.57428  0.69651  1.0000
  H   H3992     1.0  0.68889  0.43965  0.72733  1.0000
  H   H3993     1.0  0.71787  0.55000  0.75669  1.0000
  C   C3331     1.0  0.60280  0.53197  0.75056  1.0000
  C   C3332     1.0  0.82126  0.56522  0.70837  1.0000
  H   H3994     1.0  0.59058  0.52842  0.75641  1.0000
  H   H3995     1.0  0.71120  0.39672  0.74476  1.0000
  C   C3333     1.0  0.59577  0.38880  0.70675  1.0000
  H   H3996     1.0  0.67556  0.57902  0.83072  1.0000
  C   C3334     1.0  0.53770  0.39596  0.72609  1.0000
  C   C3335     1.0  0.51359  0.39052  0.72087  1.0000
  C   C3336     1.0  0.67696  0.38761  0.76419  1.0000
  H   H3997     1.0  0.81258  0.58172  0.58045  1.0000
  C   C3337     1.0  0.71746  0.58141  0.69237  1.0000
  H   H3998     1.0  0.65148  0.41341  0.66795  1.0000
  H   H3999     1.0  0.72093  0.38707  0.62901  1.0000
  S   S895      1.0  0.66388  0.38540  0.75296  1.0000
  C   C3338     1.0  0.56898  0.57953  0.77071  1.0000
  H   H4000     1.0  0.53475  0.39217  0.75306  1.0000
  S   S896      1.0  0.62292  0.57971  0.77889  1.0000
  H   H4001     1.0  0.71176  0.38985  0.60313  1.0000
  H   H4002     1.0  0.63400  0.39653  0.66444  1.0000
  C   C3339     1.0  0.70115  0.58145  0.70139  1.0000
  C   C3340     1.0  0.66843  0.38662  0.63463  1.0000
  C   C3341     1.0  0.77294  0.57687  0.59786  1.0000
  C   C3342     1.0  0.72382  0.57352  0.67896  1.0000
  H   H4003     1.0  0.85846  0.57906  0.66141  1.0000
  H   H4004     1.0  0.73659  0.57301  0.67247  1.0000
  H   H4005     1.0  0.81434  0.58178  0.61866  1.0000
  H   H4006     1.0  0.81842  0.66783  0.10120  1.0000
  N   N222      1.0  0.52400  0.77920  0.28251  1.0000
  H   H4007     1.0  0.60010  0.60168  0.24667  1.0000
  Fe  Fe449     1.0  0.51877  0.63235  0.22349  1.0000
  S   S897      1.0  0.53881  0.62410  0.23824  1.0000
  H   H4008     1.0  0.97806  0.67628  0.11182  1.0000
  Fe  Fe450     1.0  0.53272  0.66199  0.20218  1.0000
  S   S898      1.0  0.55366  0.65660  0.21490  1.0000
  S   S899      1.0  0.52839  0.68378  0.18129  1.0000
  Fe  Fe451     1.0  0.55617  0.63023  0.21364  1.0000
  S   S900      1.0  0.58254  0.61767  0.20423  1.0000
  Fe  Fe452     1.0  0.53478  0.65112  0.23828  1.0000
  S   S901      1.0  0.53301  0.65946  0.26159  1.0000
  S   S902      1.0  0.53667  0.63609  0.19880  1.0000
  S   S903      1.0  0.51322  0.65887  0.22572  1.0000
  S   S904      1.0  0.75036  0.65438  0.41562  1.0000
  S   S905      1.0  0.74127  0.64096  0.38713  1.0000
  Fe  Fe453     1.0  0.75637  0.65828  0.38787  1.0000
  S   S906      1.0  0.75332  0.68436  0.37275  1.0000
  Fe  Fe454     1.0  0.73775  0.63512  0.41478  1.0000
  S   S907      1.0  0.71452  0.62975  0.43296  1.0000
  S   S908      1.0  0.56483  0.70110  0.31663  1.0000
  Fe  Fe455     1.0  0.57606  0.74354  0.29347  1.0000
  S   S909      1.0  0.59545  0.71994  0.29557  1.0000
  Fe  Fe456     1.0  0.57724  0.70896  0.28982  1.0000
  S   S910      1.0  0.58574  0.69471  0.26925  1.0000
  Fe  Fe457     1.0  0.58166  0.71431  0.32208  1.0000
  S   S911      1.0  0.59672  0.70390  0.34216  1.0000
  S   S912      1.0  0.55905  0.73326  0.28535  1.0000
  S   S913      1.0  0.56336  0.73876  0.32027  1.0000
  Fe  Fe458     1.0  0.63490  0.74218  0.39307  1.0000
  S   S914      1.0  0.65736  0.72168  0.38934  1.0000
  S   S915      1.0  0.61772  0.75123  0.37494  1.0000
  Fe  Fe459     1.0  0.64458  0.74856  0.42268  1.0000
  S   S916      1.0  0.66801  0.72871  0.42056  1.0000
  S   S917      1.0  0.63472  0.76032  0.44522  1.0000
  Fe  Fe460     1.0  0.67090  0.73885  0.39310  1.0000
  S   S918      1.0  0.69539  0.74005  0.37515  1.0000
  Fe  Fe461     1.0  0.65215  0.71372  0.41702  1.0000
  S   S919      1.0  0.65077  0.68815  0.43237  1.0000
  S   S920      1.0  0.64877  0.76010  0.39524  1.0000
  S   S921      1.0  0.62841  0.73286  0.42064  1.0000
  H   H4009     1.0  0.66215  0.66659  0.39799  1.0000
  C   C3343     1.0  0.92958  0.73237  0.21808  1.0000
  C   C3344     1.0  0.92535  0.67745  0.17287  1.0000
  H   H4010     1.0  0.92983  0.73561  0.17781  1.0000
  H   H4011     1.0  0.61005  0.74607  0.26442  1.0000
  C   C3345     1.0  0.58052  0.58884  0.22824  1.0000
  Fe  Fe462     1.0  0.83540  0.68731  0.03754  1.0000
  S   S922      1.0  0.81433  0.67807  0.05662  1.0000
  S   S923      1.0  0.85839  0.68518  0.04679  1.0000
  S   S924      1.0  0.79687  0.68120  0.02603  1.0000
  Fe  Fe463     1.0  0.79769  0.69773  0.04175  1.0000
  Fe  Fe464     1.0  0.81555  0.66247  0.03921  1.0000
  S   S925      1.0  0.81560  0.63538  0.04904  1.0000
  S   S926      1.0  0.83764  0.67036  0.02077  1.0000
  Fe  Fe465     1.0  0.91568  0.72025  0.11278  1.0000
  S   S927      1.0  0.89241  0.74041  0.11354  1.0000
  Fe  Fe466     1.0  0.89649  0.69334  0.13168  1.0000
  S   S928      1.0  0.87170  0.71105  0.13466  1.0000
  S   S929      1.0  0.90177  0.66571  0.14081  1.0000
  Fe  Fe467     1.0  0.88091  0.72251  0.10789  1.0000
  S   S930      1.0  0.86256  0.73154  0.09112  1.0000
  Fe  Fe468     1.0  0.88520  0.72731  0.14007  1.0000
  S   S931      1.0  0.87530  0.74087  0.16102  1.0000
  S   S932      1.0  0.90490  0.70355  0.10453  1.0000
  S   S933      1.0  0.90919  0.70835  0.13973  1.0000
  Fe  Fe469     1.0  0.72755  0.63158  0.15940  1.0000
  S   S934      1.0  0.71375  0.65710  0.14923  1.0000
  H   H4012     1.0  0.62191  0.77911  0.34718  1.0000
  Fe  Fe470     1.0  0.75892  0.63460  0.13285  1.0000
  S   S935      1.0  0.74796  0.66023  0.12004  1.0000
  S   S936      1.0  0.78493  0.61990  0.12597  1.0000
  Fe  Fe471     1.0  0.73756  0.66502  0.14557  1.0000
  S   S937      1.0  0.73734  0.69007  0.14905  1.0000
  Fe  Fe472     1.0  0.72529  0.65017  0.12456  1.0000
  S   S938      1.0  0.71118  0.65810  0.10437  1.0000
  S   S939      1.0  0.75031  0.64019  0.15815  1.0000
  S   S940      1.0  0.73713  0.62391  0.13497  1.0000
  Fe  Fe473     1.0  0.60452  0.71897  0.14252  1.0000
  S   S941      1.0  0.62047  0.69984  0.15846  1.0000
  S   S942      1.0  0.57873  0.73153  0.15337  1.0000
  Fe  Fe474     1.0  0.62993  0.68775  0.13667  1.0000
  S   S943      1.0  0.63656  0.66008  0.14011  1.0000
  S   S944      1.0  0.61206  0.70541  0.12172  1.0000
  S   S945      1.0  0.81672  0.66744  0.21363  1.0000
  H   H4013     1.0  0.63217  0.62147  0.13306  1.0000
  Fe  Fe475     1.0  0.79758  0.65419  0.23135  1.0000
  S   S946      1.0  0.78517  0.66145  0.25562  1.0000
  H   H4014     1.0  0.72157  0.77846  0.08242  1.0000
  H   H4015     1.0  0.50387  0.77582  0.30385  1.0000
  Fe  Fe476     1.0  0.82674  0.72197  0.28070  1.0000
  S   S947      1.0  0.83888  0.72937  0.29668  1.0000
  S   S948      1.0  0.81343  0.74159  0.26269  1.0000
  Fe  Fe477     1.0  0.84121  0.68539  0.29156  1.0000
  S   S949      1.0  0.85513  0.68951  0.30812  1.0000
  S   S950      1.0  0.84378  0.66024  0.28692  1.0000
  Fe  Fe478     1.0  0.83136  0.70747  0.31595  1.0000
  S   S951      1.0  0.82005  0.70986  0.34242  1.0000
  Fe  Fe479     1.0  0.86134  0.71089  0.28724  1.0000
  S   S952      1.0  0.88675  0.71664  0.27679  1.0000
  S   S953      1.0  0.81692  0.70187  0.30079  1.0000
  S   S954      1.0  0.84962  0.70501  0.26996  1.0000
  S   S955      1.0  0.73540  0.75392  0.28431  1.0000
  C   C3346     1.0  0.79180  0.74449  0.26844  1.0000
  C   C3347     1.0  0.78413  0.73137  0.27778  1.0000
  C   C3348     1.0  0.76670  0.73405  0.28210  1.0000
  C   C3349     1.0  0.75703  0.74991  0.27737  1.0000
  H   H4016     1.0  0.87435  0.66145  0.12102  1.0000
  C   C3350     1.0  0.81546  0.67006  0.97724  1.0000
  H   H4017     1.0  0.79158  0.71918  0.28160  1.0000
  H   H4018     1.0  0.76072  0.72398  0.28944  1.0000
  C   C3351     1.0  0.76830  0.60138  0.17845  1.0000
  H   H4019     1.0  0.68481  0.68844  0.46492  1.0000
  C   C3352     1.0  0.80103  0.66039  0.26520  1.0000
  C   C3353     1.0  0.81712  0.65168  0.25956  1.0000
  C   C3354     1.0  0.83002  0.65107  0.26684  1.0000
  C   C3355     1.0  0.82709  0.65995  0.27913  1.0000
  C   C3356     1.0  0.81097  0.66858  0.28489  1.0000
  C   C3357     1.0  0.79785  0.66858  0.27810  1.0000
  H   H4020     1.0  0.81966  0.64521  0.24972  1.0000
  H   H4021     1.0  0.84229  0.64382  0.26280  1.0000
  H   H4022     1.0  0.80850  0.67485  0.29489  1.0000
  H   H4023     1.0  0.78536  0.67516  0.28263  1.0000
  C   C3358     1.0  0.75420  0.69046  0.15667  1.0000
  C   C3359     1.0  0.76533  0.67575  0.16180  1.0000
  C   C3360     1.0  0.77840  0.67612  0.16840  1.0000
  C   C3361     1.0  0.78070  0.69131  0.16938  1.0000
  C   C3362     1.0  0.76976  0.70609  0.16402  1.0000
  C   C3363     1.0  0.75642  0.70564  0.15780  1.0000
  H   H4024     1.0  0.76388  0.66405  0.16082  1.0000
  H   H4025     1.0  0.77148  0.71786  0.16482  1.0000
  H   H4026     1.0  0.74784  0.71706  0.15385  1.0000
  C   C3364     1.0  0.69064  0.65609  0.11321  1.0000
  C   C3365     1.0  0.68660  0.64678  0.12933  1.0000
  C   C3366     1.0  0.66992  0.64689  0.13719  1.0000
  C   C3367     1.0  0.65726  0.65646  0.12903  1.0000
  C   C3368     1.0  0.66135  0.66516  0.11262  1.0000
  C   C3369     1.0  0.67806  0.66481  0.10463  1.0000
  H   H4027     1.0  0.69630  0.63979  0.13591  1.0000
  H   H4028     1.0  0.66694  0.64032  0.14987  1.0000
  H   H4029     1.0  0.65160  0.67272  0.10628  1.0000
  H   H4030     1.0  0.68116  0.67191  0.09211  1.0000
  C   C3370     1.0  0.88932  0.65804  0.15981  1.0000
  C   C3371     1.0  0.87290  0.66636  0.16513  1.0000
  C   C3372     1.0  0.86296  0.65919  0.17994  1.0000
  C   C3373     1.0  0.86967  0.64401  0.18959  1.0000
  C   C3374     1.0  0.88620  0.63607  0.18447  1.0000
  C   C3375     1.0  0.89591  0.64292  0.16949  1.0000
  H   H4031     1.0  0.86773  0.67799  0.15762  1.0000
  H   H4032     1.0  0.85017  0.66541  0.18391  1.0000
  H   H4033     1.0  0.89141  0.62437  0.19193  1.0000
  H   H4034     1.0  0.90856  0.63643  0.16537  1.0000
  C   C3376     1.0  0.80659  0.63116  0.07027  1.0000
  C   C3377     1.0  0.81157  0.61545  0.08002  1.0000
  C   C3378     1.0  0.80497  0.61211  0.09716  1.0000
  C   C3379     1.0  0.79298  0.62430  0.10449  1.0000
  C   C3380     1.0  0.78778  0.63993  0.09468  1.0000
  C   C3381     1.0  0.79465  0.64340  0.07759  1.0000
  H   H4035     1.0  0.82074  0.60595  0.07435  1.0000
  H   H4036     1.0  0.80900  0.59999  0.10467  1.0000
  H   H4037     1.0  0.77877  0.64949  0.10024  1.0000
  H   H4038     1.0  0.79053  0.65545  0.07003  1.0000
  C   C3382     1.0  0.85914  0.69820  0.05914  1.0000
  C   C3383     1.0  0.87157  0.69318  0.06836  1.0000
  C   C3384     1.0  0.87276  0.70329  0.07819  1.0000
  C   C3385     1.0  0.86172  0.71868  0.07859  1.0000
  C   C3386     1.0  0.84924  0.72369  0.06943  1.0000
  C   C3387     1.0  0.84783  0.71340  0.05986  1.0000
  H   H4039     1.0  0.88043  0.68148  0.06775  1.0000
  H   H4040     1.0  0.88238  0.69928  0.08522  1.0000
  H   H4041     1.0  0.84064  0.73558  0.06970  1.0000
  H   H4042     1.0  0.83828  0.71741  0.05271  1.0000
  C   C3388     1.0  0.91470  0.76735  0.16124  1.0000
  H   H4043     1.0  0.78206  0.61985  0.05554  1.0000
  C   C3389     1.0  0.88781  0.76001  0.17362  1.0000
  C   C3390     1.0  0.89033  0.75110  0.16134  1.0000
  C   C3391     1.0  0.90510  0.75014  0.14929  1.0000
  C   C3392     1.0  0.91724  0.75814  0.14934  1.0000
  H   H4044     1.0  0.59084  0.63619  0.26715  1.0000
  H   H4045     1.0  0.87641  0.76071  0.18305  1.0000
  H   H4046     1.0  0.90710  0.74344  0.13974  1.0000
  H   H4047     1.0  0.76061  0.62468  0.08081  1.0000
  C   C3393     1.0  0.88571  0.73660  0.26387  1.0000
  C   C3394     1.0  0.90006  0.74313  0.25739  1.0000
  C   C3395     1.0  0.89924  0.75920  0.24726  1.0000
  H   H4048     1.0  0.73425  0.59084  0.23151  1.0000
  H   H4049     1.0  0.77844  0.58926  0.28751  1.0000
  C   C3396     1.0  0.87058  0.74609  0.26004  1.0000
  H   H4050     1.0  0.91176  0.73585  0.26040  1.0000
  H   H4051     1.0  0.95819  0.73845  0.17428  1.0000
  H   H4052     1.0  0.54858  0.76835  0.28724  1.0000
  H   H4053     1.0  0.85951  0.74106  0.26471  1.0000
  C   C3397     1.0  0.69694  0.75962  0.36226  1.0000
  C   C3398     1.0  0.76426  0.66029  0.04162  1.0000
  H   H4054     1.0  0.92359  0.69289  0.18951  1.0000
  C   C3399     1.0  0.78647  0.62376  0.32766  1.0000
  H   H4055     1.0  0.71237  0.74931  0.34143  1.0000
  S   S956      1.0  0.98254  0.73952  0.14345  1.0000
  C   C3400     1.0  0.60282  0.71721  0.35088  1.0000
  C   C3401     1.0  0.61200  0.71026  0.36337  1.0000
  C   C3402     1.0  0.61681  0.72048  0.37075  1.0000
  C   C3403     1.0  0.61241  0.73779  0.36574  1.0000
  C   C3404     1.0  0.60343  0.74475  0.35312  1.0000
  C   C3405     1.0  0.59870  0.73453  0.34569  1.0000
  H   H4056     1.0  0.61516  0.69690  0.36751  1.0000
  H   H4057     1.0  0.62361  0.71499  0.38054  1.0000
  H   H4058     1.0  0.59989  0.75811  0.34920  1.0000
  H   H4059     1.0  0.59166  0.74005  0.33610  1.0000
  C   C3406     1.0  0.69725  0.64646  0.43244  1.0000
  C   C3407     1.0  0.69874  0.66244  0.42315  1.0000
  C   C3408     1.0  0.68452  0.67552  0.42301  1.0000
  C   C3409     1.0  0.66892  0.67246  0.43204  1.0000
  C   C3410     1.0  0.83880  0.63891  0.12738  1.0000
  C   C3411     1.0  0.68170  0.64360  0.44162  1.0000
  H   H4060     1.0  0.71080  0.66470  0.41617  1.0000
  H   H4061     1.0  0.68556  0.68789  0.41591  1.0000
  C   C3412     1.0  0.57618  0.62888  0.24649  1.0000
  H   H4062     1.0  0.83995  0.63225  0.15324  1.0000
  C   C3413     1.0  0.77240  0.69045  0.36491  1.0000
  C   C3414     1.0  0.78464  0.68316  0.35282  1.0000
  C   C3415     1.0  0.79947  0.68890  0.34594  1.0000
  C   C3416     1.0  0.80212  0.70176  0.35134  1.0000
  C   C3417     1.0  0.79010  0.70863  0.36381  1.0000
  C   C3418     1.0  0.77518  0.70315  0.37042  1.0000
  H   H4063     1.0  0.78252  0.67334  0.34852  1.0000
  H   H4064     1.0  0.80883  0.68341  0.33645  1.0000
  H   H4065     1.0  0.79210  0.71857  0.36802  1.0000
  H   H4066     1.0  0.76573  0.70882  0.37974  1.0000
  C   C3419     1.0  0.54772  0.66950  0.26321  1.0000
  C   C3420     1.0  0.56175  0.67179  0.25053  1.0000
  C   C3421     1.0  0.57347  0.67937  0.25256  1.0000
  C   C3422     1.0  0.57098  0.68509  0.26706  1.0000
  C   C3423     1.0  0.55683  0.68301  0.27960  1.0000
  C   C3424     1.0  0.54535  0.67506  0.27774  1.0000
  H   H4067     1.0  0.56365  0.66774  0.23920  1.0000
  H   H4068     1.0  0.58436  0.68103  0.24278  1.0000
  H   H4069     1.0  0.55484  0.68730  0.29086  1.0000
  H   H4070     1.0  0.53462  0.67320  0.28767  1.0000
  C   C3425     1.0  0.54243  0.69700  0.17475  1.0000
  C   C3426     1.0  0.53747  0.71312  0.16581  1.0000
  C   C3427     1.0  0.54859  0.72376  0.15964  1.0000
  C   C3428     1.0  0.56491  0.71816  0.16192  1.0000
  C   C3429     1.0  0.56994  0.70206  0.17097  1.0000
  C   C3430     1.0  0.55861  0.69152  0.17757  1.0000
  H   H4071     1.0  0.52500  0.71739  0.16355  1.0000
  H   H4072     1.0  0.54468  0.73623  0.15268  1.0000
  H   H4073     1.0  0.58251  0.69778  0.17291  1.0000
  H   H4074     1.0  0.56258  0.67907  0.18436  1.0000
  C   C3431     1.0  0.77482  0.64460  0.04150  1.0000
  H   H4075     1.0  0.98466  0.71281  0.20022  1.0000
  H   H4076     1.0  0.53544  0.76013  0.26852  1.0000
  C   C3432     1.0  0.54158  0.60287  0.28393  1.0000
  H   H4077     1.0  0.70643  0.61221  0.15599  1.0000
  H   H4078     1.0  0.68846  0.59477  0.15442  1.0000
  C   C3433     1.0  0.64912  0.71811  0.46422  1.0000
  H   H4079     1.0  0.58463  0.62022  0.28469  1.0000
  C   C3434     1.0  0.66376  0.76482  0.44984  1.0000
  C   C3435     1.0  0.58999  0.59707  0.21390  1.0000
  C   C3436     1.0  0.61966  0.62340  0.14071  1.0000
  C   C3437     1.0  0.94690  0.72808  0.12898  1.0000
  H   H4080     1.0  0.62950  0.76857  0.32354  1.0000
  H   H4081     1.0  0.91438  0.67275  0.18001  1.0000
  H   H4082     1.0  0.76971  0.63571  0.28163  1.0000
  H   H4083     1.0  0.78630  0.72678  0.02084  1.0000
  C   C3438     1.0  0.75420  0.76412  0.34464  1.0000
  H   H4084     1.0  0.52868  0.60825  0.28877  1.0000
  H   H4085     1.0  0.83665  0.62898  0.08461  1.0000
  C   C3439     1.0  0.93048  0.68880  0.17818  1.0000
  C   C3440     1.0  0.66593  0.67535  0.38662  1.0000
  H   H4086     1.0  0.86384  0.66228  0.09724  1.0000
  H   H4087     1.0  0.81307  0.64795  0.11079  1.0000
  H   H4088     1.0  0.71608  0.77655  0.32331  1.0000
  H   H4089     1.0  0.65556  0.65418  0.44843  1.0000
  H   H4090     1.0  0.98799  0.75776  0.18463  1.0000
  H   H4091     1.0  0.64196  0.68207  0.38033  1.0000
  H   H4092     1.0  0.97072  0.65040  0.14485  1.0000
  C   C3441     1.0  0.79076  0.59569  0.22622  1.0000
  H   H4093     1.0  0.73727  0.77819  0.36218  1.0000
  C   C3442     1.0  0.75198  0.73553  0.34952  1.0000
  H   H4094     1.0  0.51196  0.63647  0.26978  1.0000
  H   H4095     1.0  0.70058  0.64045  0.20993  1.0000
  H   H4096     1.0  0.88095  0.66702  0.24934  1.0000
  H   H4097     1.0  0.58367  0.76068  0.17308  1.0000
  C   C3443     1.0  0.78648  0.64031  0.44710  1.0000
  C   C3444     1.0  0.77710  0.65663  0.44505  1.0000
  H   H4098     1.0  0.80611  0.63217  0.33179  1.0000
  H   H4099     1.0  0.77225  0.66232  0.43397  1.0000
  H   H4100     1.0  0.49727  0.67628  0.25320  1.0000
  H   H4101     1.0  0.77565  0.60034  0.18763  1.0000
  N   N223      1.0  0.58161  0.61776  0.26148  1.0000
  C   C3445     1.0  0.97926  0.73306  0.11474  1.0000
  C   C3446     1.0  0.55299  0.61311  0.27647  1.0000
  H   H4102     1.0  0.54835  0.62630  0.27573  1.0000
  C   C3447     1.0  0.69190  0.59342  0.16601  1.0000
  H   H4103     1.0  0.95158  0.67522  0.10867  1.0000
  H   H4104     1.0  0.72161  0.62906  0.24748  1.0000
  H   H4105     1.0  0.70374  0.58916  0.20758  1.0000
  C   C3448     1.0  0.59492  0.73975  0.19981  1.0000
  C   C3449     1.0  0.97223  0.73409  0.13129  1.0000
  C   C3450     1.0  0.72565  0.63241  0.21518  1.0000
  C   C3451     1.0  0.94540  0.67833  0.12098  1.0000
  H   H4106     1.0  0.73788  0.70603  0.04346  1.0000
  H   H4107     1.0  0.79143  0.58242  0.15859  1.0000
  H   H4108     1.0  0.97000  0.65050  0.12407  1.0000
  N   N224      1.0  0.58147  0.65882  0.14494  1.0000
  C   C3452     1.0  0.56462  0.65991  0.15600  1.0000
  C   C3453     1.0  0.58906  0.67124  0.14751  1.0000
  C   C3454     1.0  0.57927  0.66350  0.12758  1.0000
  C   C3455     1.0  0.59253  0.64212  0.14795  1.0000
  C   C3456     1.0  0.60887  0.63897  0.13803  1.0000
  C   C3457     1.0  0.58767  0.62864  0.16070  1.0000
  H   H4109     1.0  0.51211  0.70292  0.21092  1.0000
  H   H4110     1.0  0.76404  0.59164  0.47311  1.0000
  C   C3458     1.0  0.73722  0.58547  0.39928  1.0000
  H   H4111     1.0  0.55797  0.65115  0.15446  1.0000
  H   H4112     1.0  0.56517  0.65733  0.16929  1.0000
  H   H4113     1.0  0.55655  0.67258  0.15336  1.0000
  H   H4114     1.0  0.59119  0.66809  0.16033  1.0000
  H   H4115     1.0  0.58103  0.68398  0.14546  1.0000
  H   H4116     1.0  0.60127  0.67207  0.13884  1.0000
  H   H4117     1.0  0.57442  0.65400  0.12484  1.0000
  H   H4118     1.0  0.57039  0.67569  0.12513  1.0000
  H   H4119     1.0  0.59110  0.66488  0.11838  1.0000
  H   H4120     1.0  0.61358  0.64864  0.12824  1.0000
  C   C3459     1.0  0.64778  0.76198  0.45717  1.0000
  H   H4121     1.0  0.76734  0.67856  0.45533  1.0000
  C   C3460     1.0  0.70647  0.76055  0.34604  1.0000
  N   N225      1.0  0.74129  0.68035  0.05694  1.0000
  H   H4122     1.0  0.73385  0.72745  0.37124  1.0000
  C   C3461     1.0  0.68962  0.77416  0.36826  1.0000
  H   H4123     1.0  0.75422  0.63665  0.45385  1.0000
  C   C3462     1.0  0.75227  0.66373  0.05613  1.0000
  C   C3463     1.0  0.76853  0.62249  0.28623  1.0000
  H   H4124     1.0  0.75550  0.60849  0.18278  1.0000
  H   H4125     1.0  0.57475  0.75663  0.25770  1.0000
  N   N226      1.0  0.87055  0.66957  0.22829  1.0000
  C   C3464     1.0  0.88249  0.65478  0.22297  1.0000
  C   C3465     1.0  0.86905  0.66712  0.24641  1.0000
  C   C3466     1.0  0.85401  0.67018  0.22559  1.0000
  C   C3467     1.0  0.87619  0.68493  0.21845  1.0000
  C   C3468     1.0  0.87832  0.69693  0.22586  1.0000
  C   C3469     1.0  0.87934  0.68846  0.20084  1.0000
  C   C3470     1.0  0.88356  0.71135  0.21617  1.0000
  C   C3471     1.0  0.88469  0.70287  0.19129  1.0000
  C   C3472     1.0  0.88682  0.71427  0.19893  1.0000
  H   H4126     1.0  0.89519  0.65404  0.22447  1.0000
  H   H4127     1.0  0.87860  0.64300  0.23027  1.0000
  H   H4128     1.0  0.88340  0.65476  0.20985  1.0000
  H   H4129     1.0  0.86576  0.65504  0.25341  1.0000
  H   H4130     1.0  0.85437  0.67087  0.21239  1.0000
  H   H4131     1.0  0.84931  0.65881  0.23277  1.0000
  H   H4132     1.0  0.84466  0.68115  0.22936  1.0000
  H   H4133     1.0  0.87594  0.69557  0.23914  1.0000
  H   H4134     1.0  0.87748  0.68021  0.19432  1.0000
  H   H4135     1.0  0.88491  0.72040  0.22214  1.0000
  H   H4136     1.0  0.88691  0.70540  0.17785  1.0000
  H   H4137     1.0  0.89071  0.72553  0.19145  1.0000
  H   H4138     1.0  0.81874  0.66445  0.98916  1.0000
  C   C3473     1.0  0.61447  0.61044  0.15323  1.0000
  C   C3474     1.0  0.78211  0.76013  0.26318  1.0000
  H   H4139     1.0  0.93457  0.67229  0.12591  1.0000
  C   C3475     1.0  0.95677  0.73652  0.20048  1.0000
  S   S957      1.0  0.49840  0.61794  0.23043  1.0000
  H   H4140     1.0  0.85003  0.72813  0.20584  1.0000
  H   H4141     1.0  0.49996  0.68539  0.26847  1.0000
  C   C3476     1.0  0.81202  0.62668  0.30760  1.0000
  C   C3477     1.0  0.74344  0.63057  0.45840  1.0000
  H   H4142     1.0  0.75856  0.62180  0.29772  1.0000
  H   H4143     1.0  0.61324  0.59503  0.19590  1.0000
  H   H4144     1.0  0.59453  0.60302  0.17308  1.0000
  H   H4145     1.0  0.61270  0.76357  0.19689  1.0000
  C   C3478     1.0  0.92382  0.73303  0.20422  1.0000
  C   C3479     1.0  0.49130  0.71738  0.25206  1.0000
  H   H4146     1.0  0.76596  0.66955  0.03026  1.0000
  H   H4147     1.0  0.95215  0.64839  0.14040  1.0000
  H   H4148     1.0  0.57821  0.76728  0.22724  1.0000
  C   C3480     1.0  0.70051  0.59032  0.19595  1.0000
  H   H4149     1.0  0.62493  0.76193  0.17676  1.0000
  H   H4150     1.0  0.75513  0.72341  0.34660  1.0000
  C   C3481     1.0  0.97783  0.74002  0.21339  1.0000
  H   H4151     1.0  0.92946  0.66371  0.15443  1.0000
  N   N227      1.0  0.81504  0.66611  0.39677  1.0000
  C   C3482     1.0  0.82389  0.67779  0.38332  1.0000
  C   C3483     1.0  0.82290  0.64905  0.39397  1.0000
  C   C3484     1.0  0.79751  0.66971  0.39531  1.0000
  C   C3485     1.0  0.81542  0.66825  0.41318  1.0000
  C   C3486     1.0  0.80907  0.68408  0.41737  1.0000
  C   C3487     1.0  0.82142  0.65485  0.42560  1.0000
  C   C3488     1.0  0.80870  0.68633  0.43299  1.0000
  C   C3489     1.0  0.82110  0.65728  0.44114  1.0000
  C   C3490     1.0  0.81467  0.67294  0.44487  1.0000
  H   H4152     1.0  0.83682  0.67626  0.38464  1.0000
  H   H4153     1.0  0.82468  0.67584  0.37079  1.0000
  H   H4154     1.0  0.81753  0.69103  0.38301  1.0000
  H   H4155     1.0  0.83618  0.64548  0.39492  1.0000
  H   H4156     1.0  0.82264  0.64796  0.38142  1.0000
  H   H4157     1.0  0.81618  0.63967  0.40297  1.0000
  H   H4158     1.0  0.79090  0.68263  0.39627  1.0000
  H   H4159     1.0  0.79664  0.66816  0.38316  1.0000
  H   H4160     1.0  0.79045  0.66122  0.40527  1.0000
  H   H4161     1.0  0.80407  0.69479  0.40866  1.0000
  H   H4162     1.0  0.82599  0.64225  0.42385  1.0000
  H   H4163     1.0  0.80354  0.69845  0.43603  1.0000
  H   H4164     1.0  0.82535  0.64683  0.45059  1.0000
  H   H4165     1.0  0.81396  0.67460  0.45714  1.0000
  C   C3491     1.0  0.71514  0.65801  0.19615  1.0000
  H   H4166     1.0  0.70515  0.66609  0.19039  1.0000
  H   H4167     1.0  0.65389  0.75676  0.35756  1.0000
  C   C3492     1.0  0.59852  0.61307  0.16319  1.0000
  C   C3493     1.0  0.94829  0.67849  0.14819  1.0000
  H   H4168     1.0  0.73546  0.69879  0.07173  1.0000
  C   C3494     1.0  0.77023  0.75089  0.01593  1.0000
  H   H4169     1.0  0.62716  0.74431  0.19351  1.0000
  N   N228      1.0  0.66053  0.70358  0.47216  1.0000
  H   H4170     1.0  0.83301  0.62241  0.10655  1.0000
  H   H4171     1.0  0.79830  0.62417  0.26620  1.0000
  C   C3495     1.0  0.75935  0.58791  0.16253  1.0000
  C   C3496     1.0  0.74221  0.68568  0.07166  1.0000
  H   H4172     1.0  0.58469  0.63745  0.23962  1.0000
  C   C3497     1.0  0.65506  0.74914  0.14083  1.0000
  H   H4173     1.0  0.62672  0.73294  0.27424  1.0000
  H   H4174     1.0  0.77745  0.75446  0.00354  1.0000
  H   H4175     1.0  0.60393  0.60014  0.26682  1.0000
  H   H4176     1.0  0.78123  0.72013  0.33068  1.0000
  H   H4177     1.0  0.52006  0.71051  0.23071  1.0000
  H   H4178     1.0  0.85389  0.62276  0.09465  1.0000
  C   C3498     1.0  0.70635  0.60180  0.18185  1.0000
  H   H4179     1.0  0.84496  0.66933  0.08031  1.0000
  H   H4180     1.0  0.75939  0.77477  0.33762  1.0000
  C   C3499     1.0  0.63742  0.77658  0.31503  1.0000
  H   H4181     1.0  0.72921  0.60005  0.21176  1.0000
  C   C3500     1.0  0.57474  0.58901  0.27118  1.0000
  H   H4182     1.0  0.62867  0.77545  0.29421  1.0000
  H   H4183     1.0  0.70450  0.60341  0.24265  1.0000
  H   H4184     1.0  0.79242  0.74027  0.33844  1.0000
  H   H4185     1.0  0.80834  0.60271  0.27336  1.0000
  C   C3501     1.0  0.86431  0.65525  0.12274  1.0000
  H   H4186     1.0  0.63993  0.60660  0.17324  1.0000
  C   C3502     1.0  0.86968  0.76223  0.25023  1.0000
  C   C3503     1.0  0.76152  0.63462  0.06982  1.0000
  C   C3504     1.0  0.74651  0.60869  0.35936  1.0000
  H   H4187     1.0  0.62284  0.59835  0.15527  1.0000
  H   H4188     1.0  0.79397  0.58564  0.29916  1.0000
  C   C3505     1.0  0.61790  0.75493  0.18828  1.0000
  H   H4189     1.0  0.97517  0.72956  0.09232  1.0000
  H   H4190     1.0  0.73216  0.67405  0.18352  1.0000
  C   C3506     1.0  0.65154  0.74394  0.25137  1.0000
  Fe  Fe480     1.0  0.81884  0.69068  0.00890  1.0000
  C   C3507     1.0  0.62521  0.72034  0.24763  1.0000
  C   C3508     1.0  0.62556  0.70846  0.23910  1.0000
  C   C3509     1.0  0.97179  0.68047  0.12364  1.0000
  C   C3510     1.0  0.74568  0.69350  0.04211  1.0000
  H   H4191     1.0  0.66089  0.74542  0.23946  1.0000
  C   C3511     1.0  0.80568  0.59072  0.23171  1.0000
  H   H4192     1.0  0.65592  0.73154  0.25908  1.0000
  H   H4193     1.0  0.61723  0.71953  0.25988  1.0000
  H   H4194     1.0  0.61797  0.69926  0.24487  1.0000
  H   H4195     1.0  0.71608  0.66770  0.36885  1.0000
  N   N229      1.0  0.72332  0.61708  0.22791  1.0000
  C   C3512     1.0  0.73698  0.60557  0.35006  1.0000
  C   C3513     1.0  0.65455  0.68408  0.37673  1.0000
  C   C3514     1.0  0.84499  0.63877  0.14089  1.0000
  N   N230      1.0  0.70397  0.69368  0.36409  1.0000
  C   C3515     1.0  0.68712  0.69025  0.36792  1.0000
  H   H4196     1.0  0.81628  0.59592  0.22445  1.0000
  H   H4197     1.0  0.69673  0.71979  0.35352  1.0000
  H   H4198     1.0  0.72937  0.68125  0.35596  1.0000
  H   H4199     1.0  0.69676  0.70536  0.38498  1.0000
  Fe  Fe481     1.0  0.76510  0.62173  0.38763  1.0000
  H   H4200     1.0  0.79103  0.60748  0.26394  1.0000
  H   H4201     1.0  0.70568  0.70678  0.33844  1.0000
  C   C3516     1.0  0.75977  0.74872  0.33955  1.0000
  C   C3517     1.0  0.74669  0.75730  0.03820  1.0000
  H   H4202     1.0  0.75554  0.65530  0.19555  1.0000
  H   H4203     1.0  0.84201  0.65509  0.07027  1.0000
  C   C3518     1.0  0.73392  0.60233  0.22153  1.0000
  C   C3519     1.0  0.66759  0.65654  0.44139  1.0000
  C   C3520     1.0  0.65930  0.69550  0.36225  1.0000
  C   C3521     1.0  0.76477  0.76288  0.26784  1.0000
  C   C3522     1.0  0.84529  0.64716  0.11105  1.0000
  S   S958      1.0  0.92994  0.77811  0.15975  1.0000
  C   C3523     1.0  0.70626  0.70858  0.35058  1.0000
  N   N231      1.0  0.81882  0.70157  0.12298  1.0000
  C   C3524     1.0  0.81014  0.71469  0.13250  1.0000
  C   C3525     1.0  0.82347  0.68565  0.13475  1.0000
  C   C3526     1.0  0.83450  0.70614  0.11241  1.0000
  C   C3527     1.0  0.80761  0.69996  0.11338  1.0000
  C   C3528     1.0  0.79308  0.69369  0.12167  1.0000
  C   C3529     1.0  0.81030  0.70509  0.09580  1.0000
  C   C3530     1.0  0.78218  0.69217  0.11297  1.0000
  C   C3531     1.0  0.79924  0.70367  0.08721  1.0000
  C   C3532     1.0  0.78529  0.69711  0.09575  1.0000
  H   H4204     1.0  0.79857  0.71178  0.14125  1.0000
  H   H4205     1.0  0.81805  0.71622  0.14007  1.0000
  H   H4206     1.0  0.80657  0.72691  0.12409  1.0000
  H   H4207     1.0  0.81274  0.68234  0.14472  1.0000
  H   H4208     1.0  0.83277  0.68618  0.14135  1.0000
  H   H4209     1.0  0.82886  0.67525  0.12819  1.0000
  H   H4210     1.0  0.84307  0.70662  0.11986  1.0000
  H   H4211     1.0  0.84146  0.69709  0.10443  1.0000
  H   H4212     1.0  0.83211  0.71881  0.10438  1.0000
  H   H4213     1.0  0.78985  0.69018  0.13499  1.0000
  H   H4214     1.0  0.82072  0.71042  0.08837  1.0000
  H   H4215     1.0  0.77110  0.68742  0.11968  1.0000
  H   H4216     1.0  0.80135  0.70790  0.07381  1.0000
  H   H4217     1.0  0.77677  0.69611  0.08899  1.0000
  H   H4218     1.0  0.64875  0.68667  0.46726  1.0000
  H   H4219     1.0  0.71519  0.69169  0.05913  1.0000
  C   C3533     1.0  0.59320  0.76404  0.17736  1.0000
  H   H4220     1.0  0.86275  0.64646  0.14901  1.0000
  N   N232      1.0  0.60459  0.74918  0.18488  1.0000
  H   H4221     1.0  0.52832  0.70807  0.30227  1.0000
  H   H4222     1.0  0.70970  0.68483  0.38855  1.0000
  C   C3534     1.0  0.79283  0.63320  0.46152  1.0000
  C   C3535     1.0  0.85817  0.65553  0.10913  1.0000
  H   H4223     1.0  0.70714  0.59168  0.36192  1.0000
  C   C3536     1.0  0.65297  0.76039  0.34430  1.0000
  H   H4224     1.0  0.91110  0.73228  0.20558  1.0000
  H   H4225     1.0  0.68769  0.77240  0.24721  1.0000
  H   H4226     1.0  0.73564  0.76581  0.04305  1.0000
  C   C3537     1.0  0.56994  0.60653  0.26982  1.0000
  H   H4227     1.0  0.60618  0.74290  0.21853  1.0000
  H   H4228     1.0  0.70006  0.60781  0.41605  1.0000
  S   S959      1.0  0.94160  0.72461  0.10012  1.0000
  H   H4229     1.0  0.86053  0.65049  0.07765  1.0000
  N   N233      1.0  0.78469  0.61143  0.28897  1.0000
  C   C3538     1.0  0.70863  0.77598  0.33578  1.0000
  H   H4230     1.0  0.70167  0.61348  0.22228  1.0000
  H   H4231     1.0  0.94845  0.70381  0.17296  1.0000
  C   C3539     1.0  0.79088  0.61706  0.30052  1.0000
  N   N234      1.0  0.49761  0.70230  0.24497  1.0000
  C   C3540     1.0  0.78102  0.61829  0.31660  1.0000
  H   H4232     1.0  0.96825  0.69427  0.12013  1.0000
  H   H4233     1.0  0.63872  0.76492  0.22681  1.0000
  H   H4234     1.0  0.96907  0.75056  0.21865  1.0000
  H   H4235     1.0  0.56798  0.59487  0.23328  1.0000
  C   C3541     1.0  0.97591  0.75464  0.18569  1.0000
  C   C3542     1.0  0.96270  0.65484  0.13560  1.0000
  N   N235      1.0  0.95700  0.67320  0.13239  1.0000
  H   H4236     1.0  0.74485  0.73817  0.06062  1.0000
  H   H4237     1.0  0.52164  0.68828  0.23491  1.0000
  C   C3543     1.0  0.75607  0.76204  0.02220  1.0000
  C   C3544     1.0  0.58163  0.62812  0.27278  1.0000
  H   H4238     1.0  0.76901  0.61495  0.32079  1.0000
  C   C3545     1.0  0.51604  0.69967  0.24003  1.0000
  H   H4239     1.0  0.76715  0.77233  0.31116  1.0000
  C   C3546     1.0  0.50765  0.72588  0.31257  1.0000
  N   N236      1.0  0.63968  0.62593  0.18501  1.0000
  C   C3547     1.0  0.62188  0.63352  0.18479  1.0000
  C   C3548     1.0  0.64647  0.61673  0.17144  1.0000
  C   C3549     1.0  0.64040  0.61383  0.20108  1.0000
  C   C3550     1.0  0.64975  0.63825  0.18280  1.0000
  C   C3551     1.0  0.64350  0.65574  0.17866  1.0000
  C   C3552     1.0  0.66661  0.63285  0.18426  1.0000
  C   C3553     1.0  0.65366  0.66694  0.17598  1.0000
  C   C3554     1.0  0.67661  0.64418  0.18156  1.0000
  C   C3555     1.0  0.67017  0.66118  0.17735  1.0000
  H   H4240     1.0  0.62037  0.64184  0.17256  1.0000
  C   C3556     1.0  0.78984  0.64233  0.47379  1.0000
  H   H4241     1.0  0.61586  0.64064  0.19472  1.0000
  H   H4242     1.0  0.64535  0.62515  0.15918  1.0000
  H   H4243     1.0  0.78743  0.76195  0.32897  1.0000
  H   H4244     1.0  0.65982  0.61071  0.17064  1.0000
  H   H4245     1.0  0.63714  0.62032  0.21148  1.0000
  H   H4246     1.0  0.63172  0.60540  0.20395  1.0000
  H   H4247     1.0  0.65290  0.60542  0.20109  1.0000
  H   H4248     1.0  0.63100  0.66109  0.17683  1.0000
  H   H4249     1.0  0.67234  0.61979  0.18700  1.0000
  H   H4250     1.0  0.64888  0.68020  0.17240  1.0000
  H   H4251     1.0  0.68954  0.63974  0.18233  1.0000
  H   H4252     1.0  0.67804  0.66994  0.17485  1.0000
  H   H4253     1.0  0.72268  0.67538  0.04766  1.0000
  C   C3557     1.0  0.59905  0.60884  0.25611  1.0000
  C   C3558     1.0  0.58760  0.72893  0.22992  1.0000
  C   C3559     1.0  0.57562  0.72191  0.22797  1.0000
  H   H4254     1.0  0.58940  0.72756  0.24228  1.0000
  H   H4255     1.0  0.56826  0.71513  0.23876  1.0000
  N   N237      1.0  0.70486  0.71372  0.11170  1.0000
  C   C3560     1.0  0.70103  0.69843  0.12387  1.0000
  C   C3561     1.0  0.72296  0.71271  0.10915  1.0000
  C   C3562     1.0  0.69544  0.72812  0.11924  1.0000
  C   C3563     1.0  0.70038  0.71598  0.09564  1.0000
  C   C3564     1.0  0.70483  0.72904  0.08212  1.0000
  C   C3565     1.0  0.69060  0.70622  0.09324  1.0000
  C   C3566     1.0  0.69997  0.73198  0.06714  1.0000
  C   C3567     1.0  0.68544  0.70957  0.07836  1.0000
  C   C3568     1.0  0.69014  0.72238  0.06533  1.0000
  H   H4256     1.0  0.70718  0.68713  0.11869  1.0000
  H   H4257     1.0  0.70537  0.69661  0.13546  1.0000
  H   H4258     1.0  0.68738  0.69900  0.12783  1.0000
  H   H4259     1.0  0.73046  0.70216  0.10327  1.0000
  H   H4260     1.0  0.72662  0.71081  0.12110  1.0000
  H   H4261     1.0  0.72686  0.72424  0.10138  1.0000
  H   H4262     1.0  0.69799  0.72678  0.13163  1.0000
  H   H4263     1.0  0.69848  0.74002  0.11135  1.0000
  H   H4264     1.0  0.68179  0.72937  0.12106  1.0000
  H   H4265     1.0  0.71140  0.73764  0.08322  1.0000
  H   H4266     1.0  0.68630  0.69625  0.10286  1.0000
  H   H4267     1.0  0.70298  0.74244  0.05726  1.0000
  H   H4268     1.0  0.67712  0.70264  0.07717  1.0000
  H   H4269     1.0  0.68550  0.72536  0.05410  1.0000
  C   C3569     1.0  0.71268  0.64321  0.20751  1.0000
  H   H4270     1.0  0.85905  0.67684  0.25177  1.0000
  H   H4271     1.0  0.82406  0.63000  0.30416  1.0000
  H   H4272     1.0  0.98046  0.77626  0.12460  1.0000
  H   H4273     1.0  0.85105  0.71850  0.18094  1.0000
  C   C3570     1.0  0.70587  0.61489  0.23289  1.0000
  C   C3571     1.0  0.74128  0.63707  0.21026  1.0000
  C   C3572     1.0  0.74169  0.76617  0.35882  1.0000
  C   C3573     1.0  0.63685  0.78044  0.29825  1.0000
  H   H4274     1.0  0.67126  0.77347  0.05142  1.0000
  H   H4275     1.0  0.57560  0.62978  0.16909  1.0000
  C   C3574     1.0  0.67312  0.76795  0.45934  1.0000
  H   H4276     1.0  0.68247  0.77348  0.38087  1.0000
  C   C3575     1.0  0.84692  0.65585  0.08072  1.0000
  C   C3576     1.0  0.96986  0.72998  0.10522  1.0000
  C   C3577     1.0  0.49874  0.70462  0.21443  1.0000
  H   H4277     1.0  0.94926  0.73381  0.22759  1.0000
  H   H4278     1.0  0.76086  0.60171  0.45269  1.0000
  C   C3578     1.0  0.75100  0.65028  0.07011  1.0000
  H   H4279     1.0  0.96393  0.69529  0.14743  1.0000
  H   H4280     1.0  0.61738  0.76370  0.23540  1.0000
  H   H4281     1.0  0.78728  0.72923  0.30938  1.0000
  H   H4282     1.0  0.49783  0.70706  0.18901  1.0000
  H   H4283     1.0  0.89807  0.77507  0.18299  1.0000
  H   H4284     1.0  0.62266  0.75503  0.27125  1.0000
  H   H4285     1.0  0.73654  0.67809  0.08353  1.0000
  C   C3579     1.0  0.62304  0.74479  0.26540  1.0000
  C   C3580     1.0  0.61275  0.73863  0.17256  1.0000
  H   H4286     1.0  0.77292  0.60922  0.46192  1.0000
  C   C3581     1.0  0.49351  0.68776  0.25815  1.0000
  C   C3582     1.0  0.92935  0.76665  0.10067  1.0000
  C   C3583     1.0  0.49892  0.64119  0.27469  1.0000
  N   N238      1.0  0.79900  0.71381  0.23345  1.0000
  C   C3584     1.0  0.78998  0.73096  0.23498  1.0000
  C   C3585     1.0  0.78685  0.70504  0.23210  1.0000
  C   C3586     1.0  0.80495  0.70497  0.24892  1.0000
  C   C3587     1.0  0.81332  0.71461  0.21909  1.0000
  C   C3588     1.0  0.81420  0.70945  0.20443  1.0000
  C   C3589     1.0  0.82667  0.72137  0.21920  1.0000
  C   C3590     1.0  0.82780  0.71061  0.19099  1.0000
  C   C3591     1.0  0.84013  0.72264  0.20561  1.0000
  C   C3592     1.0  0.84071  0.71724  0.19155  1.0000
  H   H4287     1.0  0.78535  0.73801  0.22358  1.0000
  H   H4288     1.0  0.77906  0.73104  0.24567  1.0000
  H   H4289     1.0  0.79804  0.73812  0.23691  1.0000
  H   H4290     1.0  0.78083  0.71158  0.22144  1.0000
  H   H4291     1.0  0.77657  0.70415  0.24337  1.0000
  H   H4292     1.0  0.79284  0.69204  0.23086  1.0000
  H   H4293     1.0  0.81275  0.69240  0.24780  1.0000
  H   H4294     1.0  0.81237  0.71184  0.25227  1.0000
  H   H4295     1.0  0.79442  0.70324  0.25979  1.0000
  H   H4296     1.0  0.80449  0.70455  0.20295  1.0000
  H   H4297     1.0  0.82662  0.72610  0.22968  1.0000
  H   H4298     1.0  0.82814  0.70658  0.17996  1.0000
  C   C3593     1.0  0.67575  0.69916  0.45946  1.0000
  N   N239      1.0  0.76790  0.58495  0.17628  1.0000
  H   H4299     1.0  0.67279  0.69570  0.44919  1.0000
  C   C3594     1.0  0.82061  0.65488  0.09970  1.0000
  H   H4300     1.0  0.94256  0.76330  0.09404  1.0000
  S   S960      1.0  0.81915  0.64347  0.18826  1.0000
  C   C3595     1.0  0.80667  0.62132  0.29638  1.0000
  N   N240      1.0  0.97383  0.73896  0.19800  1.0000
  H   H4301     1.0  0.71862  0.71152  0.34872  1.0000
  Fe  Fe482     1.0  0.54772  0.72639  0.31244  1.0000
  C   C3596     1.0  0.75187  0.74165  0.04813  1.0000
  H   H4302     1.0  0.69052  0.67088  0.39008  1.0000
  Fe  Fe483     1.0  0.77342  0.63422  0.41429  1.0000
  C   C3597     1.0  0.77531  0.73522  0.02578  1.0000
  H   H4303     1.0  0.93448  0.72619  0.13462  1.0000
  H   H4304     1.0  0.49343  0.72873  0.24241  1.0000
  S   S961      1.0  0.65077  0.70111  0.12507  1.0000
  C   C3598     1.0  0.57308  0.72367  0.21220  1.0000
  H   H4305     1.0  0.56372  0.71823  0.21067  1.0000
  H   H4306     1.0  0.72937  0.60580  0.46438  1.0000
  C   C3599     1.0  0.66602  0.76063  0.16245  1.0000
  Fe  Fe484     1.0  0.80360  0.66764  0.19444  1.0000
  H   H4307     1.0  0.77417  0.60901  0.16665  1.0000
  S   S962      1.0  0.79072  0.62856  0.43182  1.0000
  H   H4308     1.0  0.67474  0.77471  0.97709  1.0000
  S   S963      1.0  0.85792  0.63499  0.20841  1.0000
  C   C3600     1.0  0.95332  0.68988  0.15409  1.0000
  H   H4309     1.0  0.62048  0.72673  0.17811  1.0000
  H   H4310     1.0  0.51084  0.69580  0.29233  1.0000
  Fe  Fe485     1.0  0.83063  0.64241  0.20916  1.0000
  H   H4311     1.0  0.64439  0.71508  0.45478  1.0000
  H   H4312     1.0  0.81511  0.62074  0.28452  1.0000
  C   C3601     1.0  0.73044  0.66246  0.19211  1.0000
  C   C3602     1.0  0.95358  0.72764  0.11231  1.0000
  C   C3603     1.0  0.65635  0.76575  0.13720  1.0000
  S   S964      1.0  0.78313  0.65647  0.21259  1.0000
  S   S965      1.0  0.81282  0.62888  0.22894  1.0000
  C   C3604     1.0  0.78226  0.59423  0.29623  1.0000
  Fe  Fe486     1.0  0.63982  0.71486  0.14550  1.0000
  H   H4313     1.0  0.68052  0.63129  0.44884  1.0000
  S   S966      1.0  0.78065  0.63958  0.38637  1.0000
  H   H4314     1.0  0.78692  0.66467  0.17239  1.0000
  Fe  Fe487     1.0  0.63225  0.71990  0.11169  1.0000
  H   H4315     1.0  0.98487  0.72427  0.17927  1.0000
  S   S967      1.0  0.79773  0.69177  0.17654  1.0000
  H   H4316     1.0  0.71863  0.70170  0.37613  1.0000
  C   C3605     1.0  0.84065  0.62952  0.09571  1.0000
  H   H4317     1.0  0.73207  0.63970  0.46273  1.0000
  H   H4318     1.0  0.74383  0.69122  0.03068  1.0000
  H   H4319     1.0  0.94038  0.69199  0.11875  1.0000
  C   C3606     1.0  0.58248  0.73253  0.19832  1.0000
  C   C3607     1.0  0.59720  0.73770  0.21610  1.0000
  C   C3608     1.0  0.76637  0.73072  0.04200  1.0000
  C   C3609     1.0  0.74354  0.65193  0.19898  1.0000
  H   H4320     1.0  0.65473  0.73814  0.10693  1.0000
  C   C3610     1.0  0.53588  0.77374  0.29369  1.0000
  C   C3611     1.0  0.76970  0.69317  0.97721  1.0000
  H   H4321     1.0  0.89562  0.77680  0.10111  1.0000
  S   S968      1.0  0.76036  0.61445  0.41542  1.0000
  C   C3612     1.0  0.57983  0.76755  0.25179  1.0000
  H   H4322     1.0  0.78254  0.68562  0.99722  1.0000
  C   C3613     1.0  0.88397  0.76884  0.24390  1.0000
  C   C3614     1.0  0.54668  0.58578  0.28499  1.0000
  H   H4323     1.0  0.65035  0.70225  0.35461  1.0000
  H   H4324     1.0  0.75883  0.69444  0.04010  1.0000
  H   H4325     1.0  0.57983  0.73380  0.18638  1.0000
  S   S969      1.0  0.71835  0.61467  0.18339  1.0000
  C   C3615     1.0  0.77350  0.63183  0.05558  1.0000
  S   S970      1.0  0.81865  0.70863  0.02396  1.0000
  C   C3616     1.0  0.76854  0.75942  0.31001  1.0000
  H   H4326     1.0  0.92131  0.73084  0.23022  1.0000
  S   S971      1.0  0.63992  0.73086  0.08454  1.0000
  C   C3617     1.0  0.65804  0.74606  0.09495  1.0000
  C   C3618     1.0  0.95610  0.73150  0.13834  1.0000
  C   C3619     1.0  0.60608  0.58900  0.20730  1.0000
  S   S972      1.0  0.62303  0.73513  0.13112  1.0000
  C   C3620     1.0  0.65244  0.74497  0.08158  1.0000
  H   H4327     1.0  0.67039  0.76501  0.17078  1.0000
  H   H4328     1.0  0.74190  0.65177  0.08144  1.0000
  Fe  Fe488     1.0  0.79993  0.63204  0.20855  1.0000
  C   C3621     1.0  0.66752  0.76590  0.06357  1.0000
  S   S973      1.0  0.77338  0.71159  0.05476  1.0000
  C   C3622     1.0  0.71648  0.67918  0.35893  1.0000
  C   C3623     1.0  0.70735  0.69647  0.37907  1.0000
  H   H4329     1.0  0.65259  0.74122  0.21792  1.0000
  C   C3624     1.0  0.66490  0.74396  0.16595  1.0000
  C   C3625     1.0  0.65713  0.75494  0.06587  1.0000
  H   H4330     1.0  0.65279  0.75411  0.05550  1.0000
  H   H4331     1.0  0.76588  0.59497  0.15070  1.0000
  C   C3626     1.0  0.78071  0.65875  0.47156  1.0000
  H   H4332     1.0  0.52137  0.75380  0.28770  1.0000
  C   C3627     1.0  0.80192  0.62797  0.32316  1.0000
  H   H4333     1.0  0.69722  0.62548  0.23803  1.0000
  H   H4334     1.0  0.65531  0.72859  0.45753  1.0000
  H   H4335     1.0  0.63558  0.69931  0.21662  1.0000
  C   C3628     1.0  0.79616  0.61148  0.27244  1.0000
  S   S974      1.0  0.65590  0.71798  0.16066  1.0000
  C   C3629     1.0  0.63544  0.70848  0.22321  1.0000
  C   C3630     1.0  0.63484  0.73271  0.24037  1.0000
  H   H4336     1.0  0.77811  0.75789  0.29844  1.0000
  H   H4337     1.0  0.49105  0.63219  0.25815  1.0000
  H   H4338     1.0  0.67234  0.75804  0.10315  1.0000
  N   N241      1.0  0.63464  0.74564  0.24889  1.0000
  H   H4339     1.0  0.75190  0.62929  0.21515  1.0000
  H   H4340     1.0  0.71942  0.67044  0.06977  1.0000
  H   H4341     1.0  0.81536  0.65546  0.08904  1.0000
  H   H4342     1.0  0.71437  0.67662  0.34775  1.0000
  H   H4343     1.0  0.74166  0.61888  0.36567  1.0000
  H   H4344     1.0  0.65091  0.74479  0.13240  1.0000
  H   H4345     1.0  0.60756  0.61759  0.25021  1.0000
  H   H4346     1.0  0.79940  0.74727  0.31654  1.0000
  C   C3631     1.0  0.73460  0.75290  0.36850  1.0000
  C   C3632     1.0  0.77462  0.69573  0.99035  1.0000
  H   H4347     1.0  0.80014  0.62059  0.46320  1.0000
  C   C3633     1.0  0.52351  0.76440  0.27703  1.0000
  H   H4348     1.0  0.53221  0.76392  0.30467  1.0000
  H   H4349     1.0  0.78443  0.64239  0.03058  1.0000
  C   C3634     1.0  0.77024  0.71139  0.99408  1.0000
  H   H4350     1.0  0.67808  0.70781  0.34661  1.0000
  H   H4351     1.0  0.66830  0.73555  0.17702  1.0000
  S   S975      1.0  0.66737  0.77819  0.22353  1.0000
  N   N242      1.0  0.77325  0.74682  0.32463  1.0000
  H   H4352     1.0  0.97575  0.75394  0.17302  1.0000
  H   H4353     1.0  0.82890  0.63241  0.12981  1.0000
  H   H4354     1.0  0.66860  0.76537  0.43670  1.0000
  H   H4355     1.0  0.57570  0.62157  0.23783  1.0000
  H   H4356     1.0  0.77872  0.62464  0.33986  1.0000
  H   H4357     1.0  0.74184  0.61643  0.24106  1.0000
  C   C3635     1.0  0.62947  0.76235  0.23857  1.0000
  H   H4358     1.0  0.92858  0.75744  0.13997  1.0000
  H   H4359     1.0  0.72535  0.60678  0.25346  1.0000
  C   C3636     1.0  0.64486  0.73227  0.22419  1.0000
  C   C3637     1.0  0.64515  0.72030  0.21580  1.0000
  C   C3638     1.0  0.66816  0.75715  0.09273  1.0000
  C   C3639     1.0  0.72390  0.67946  0.05842  1.0000
  H   H4360     1.0  0.95055  0.73237  0.15107  1.0000
  H   H4361     1.0  0.66523  0.75518  0.33684  1.0000
  H   H4362     1.0  0.65290  0.72020  0.20345  1.0000
  C   C3640     1.0  0.73970  0.73763  0.36384  1.0000
  H   H4363     1.0  0.78800  0.77026  0.25581  1.0000
  H   H4364     1.0  0.50212  0.59391  0.20271  1.0000
  C   C3641     1.0  0.49434  0.65012  0.28715  1.0000
  H   H4365     1.0  0.75743  0.77513  0.26408  1.0000
  S   S976      1.0  0.51972  0.73421  0.32046  1.0000
  C   C3642     1.0  0.51503  0.71298  0.30412  1.0000
  C   C3643     1.0  0.85779  0.64683  0.13855  1.0000
  C   C3644     1.0  0.67307  0.76692  0.07704  1.0000
  H   H4366     1.0  0.72482  0.61346  0.34927  1.0000
  C   C3645     1.0  0.72825  0.61742  0.24308  1.0000
  C   C3646     1.0  0.76216  0.59849  0.36063  1.0000
  S   S977      1.0  0.92883  0.77772  0.20555  1.0000
  C   C3647     1.0  0.77701  0.73026  0.32052  1.0000
  C   C3648     1.0  0.68208  0.67812  0.38214  1.0000
  N   N243      1.0  0.83859  0.64693  0.09698  1.0000
  C   C3649     1.0  0.67534  0.69860  0.35782  1.0000
  H   H4367     1.0  0.77244  0.59339  0.30783  1.0000
  H   H4368     1.0  0.50382  0.65249  0.29180  1.0000
  H   H4369     1.0  0.62106  0.74495  0.16169  1.0000
  H   H4370     1.0  0.77464  0.71340  0.00391  1.0000
  H   H4371     1.0  0.61463  0.62396  0.18669  1.0000
  S   S978      1.0  0.78837  0.61149  0.20848  1.0000
  H   H4372     1.0  0.75653  0.75843  0.30810  1.0000
  C   C3650     1.0  0.90004  0.76813  0.17360  1.0000
  C   C3651     1.0  0.94580  0.73408  0.21634  1.0000
  H   H4373     1.0  0.68214  0.70967  0.45356  1.0000
  H   H4374     1.0  0.56357  0.63679  0.24958  1.0000
  S   S979      1.0  0.77441  0.60179  0.37248  1.0000
  C   C3652     1.0  0.93411  0.67232  0.15815  1.0000
  H   H4375     1.0  0.74689  0.60371  0.21590  1.0000
  C   C3653     1.0  0.65900  0.73832  0.15533  1.0000
  C   C3654     1.0  0.77432  0.66583  0.45718  1.0000
  H   H4376     1.0  0.92786  0.75780  0.11288  1.0000
  H   H4377     1.0  0.76600  0.72785  0.31784  1.0000
  H   H4378     1.0  0.91029  0.76428  0.24250  1.0000
  C   C3655     1.0  0.70213  0.60327  0.16686  1.0000
  H   H4379     1.0  0.65189  0.75366  0.25754  1.0000
  H   H4380     1.0  0.96581  0.76526  0.18920  1.0000
  H   H4381     1.0  0.56943  0.63679  0.27580  1.0000
  H   H4382     1.0  0.75539  0.68479  0.07185  1.0000
  C   C3656     1.0  0.93437  0.73496  0.18860  1.0000
  S   S980      1.0  0.72995  0.58800  0.33156  1.0000
  H   H4383     1.0  0.68521  0.77078  0.45342  1.0000
  H   H4384     1.0  0.52162  0.69790  0.25085  1.0000
  C   C3657     1.0  0.95060  0.73664  0.18671  1.0000
  C   C3658     1.0  0.94447  0.69494  0.16884  1.0000
  H   H4385     1.0  0.72472  0.75456  0.37935  1.0000
  C   C3659     1.0  0.74299  0.59225  0.34192  1.0000
  H   H4386     1.0  0.85788  0.76954  0.24752  1.0000
  H   H4387     1.0  0.60366  0.73556  0.16747  1.0000
  Fe  Fe489     1.0  0.72686  0.78150  0.28191  1.0000
  H   H4388     1.0  0.96521  0.77850  0.15300  1.0000
  C   C3660     1.0  0.50512  0.70605  0.29850  1.0000
  N   N244      1.0  0.64826  0.77871  0.33860  1.0000
  S   S981      1.0  0.58298  0.76831  0.28258  1.0000
  H   H4389     1.0  0.64362  0.75399  0.34356  1.0000
  C   C3661     1.0  0.78875  0.74923  0.32725  1.0000
  H   H4390     1.0  0.76588  0.59205  0.23122  1.0000
  H   H4391     1.0  0.67532  0.72904  0.46995  1.0000
  H   H4392     1.0  0.98126  0.67688  0.13135  1.0000
  H   H4393     1.0  0.93863  0.77950  0.12133  1.0000
  C   C3662     1.0  0.77738  0.58836  0.23532  1.0000
  C   C3663     1.0  0.70332  0.59055  0.40059  1.0000
  H   H4394     1.0  0.74156  0.62760  0.44734  1.0000
  H   H4395     1.0  0.76393  0.61917  0.27692  1.0000
  C   C3664     1.0  0.76169  0.60397  0.46457  1.0000
  S   S982      1.0  0.81854  0.69979  0.98153  1.0000
  C   C3665     1.0  0.49066  0.70696  0.20160  1.0000
  H   H4396     1.0  0.74649  0.59550  0.16521  1.0000
  H   H4397     1.0  0.97751  0.72827  0.22295  1.0000
  H   H4398     1.0  0.75042  0.58379  0.39854  1.0000
  H   H4399     1.0  0.73001  0.60319  0.41483  1.0000
  H   H4400     1.0  0.49740  0.71651  0.26226  1.0000
  H   H4401     1.0  0.62810  0.77249  0.24497  1.0000
  C   C3666     1.0  0.49130  0.59277  0.19924  1.0000
  H   H4402     1.0  0.92193  0.76393  0.09337  1.0000
  H   H4403     1.0  0.60005  0.77174  0.16630  1.0000
  H   H4404     1.0  0.58652  0.77214  0.18640  1.0000
  C   C3667     1.0  0.66138  0.77160  0.14826  1.0000
  N   N245      1.0  0.74652  0.61541  0.47158  1.0000
  S   S983      1.0  0.68671  0.77969  0.07474  1.0000
  C   C3668     1.0  0.98613  0.72492  0.19162  1.0000
  C   C3669     1.0  0.49039  0.73217  0.31489  1.0000
  H   H4405     1.0  0.69008  0.59306  0.40137  1.0000
  H   H4406     1.0  0.63813  0.72287  0.47350  1.0000
  S   S984      1.0  0.64117  0.78137  0.19207  1.0000
  H   H4407     1.0  0.69895  0.77298  0.10688  1.0000
  C   C3670     1.0  0.64161  0.76140  0.47423  1.0000
  C   C3671     1.0  0.58181  0.77356  0.23458  1.0000
  H   H4408     1.0  0.65284  0.77417  0.12616  1.0000
  H   H4409     1.0  0.73161  0.77713  0.98279  1.0000
  H   H4410     1.0  0.51334  0.76685  0.27042  1.0000
  C   C3672     1.0  0.58458  0.77568  0.26122  1.0000
  C   C3673     1.0  0.76828  0.58530  0.35231  1.0000
  H   H4411     1.0  0.49188  0.61411  0.17911  1.0000
  H   H4412     1.0  0.49259  0.64343  0.20081  1.0000
  C   C3674     1.0  0.70677  0.78113  0.10660  1.0000
  H   H4413     1.0  0.75742  0.73679  0.98769  1.0000
  C   C3675     1.0  0.76065  0.72458  0.98482  1.0000
  H   H4414     1.0  0.58726  0.58278  0.26634  1.0000
  H   H4415     1.0  0.86889  0.77930  0.12083  1.0000
  H   H4416     1.0  0.68765  0.59043  0.37620  1.0000
  C   C3676     1.0  0.70886  0.59906  0.40902  1.0000
  C   C3677     1.0  0.72577  0.59650  0.40837  1.0000
  S   S985      1.0  0.75044  0.78191  0.00996  1.0000
  C   C3678     1.0  0.89426  0.78220  0.11151  1.0000
  H   H4417     1.0  0.67323  0.78150  0.33578  1.0000
  C   C3679     1.0  0.69934  0.58287  0.37013  1.0000
  H   H4418     1.0  0.63130  0.78207  0.36186  1.0000
  H   H4419     1.0  0.87322  0.75569  0.56893  1.0000
  H   H4420     1.0  0.77764  0.69895  0.59991  1.0000
  C   C3680     1.0  0.79073  0.58377  0.76720  1.0000
  Fe  Fe490     1.0  0.78269  0.66074  0.51199  1.0000
  S   S986      1.0  0.75997  0.66006  0.53269  1.0000
  Fe  Fe491     1.0  0.80556  0.65205  0.53624  1.0000
  S   S987      1.0  0.78463  0.65055  0.55858  1.0000
  S   S988      1.0  0.83038  0.64712  0.54292  1.0000
  Fe  Fe492     1.0  0.77543  0.63690  0.54546  1.0000
  S   S989      1.0  0.76282  0.61584  0.56016  1.0000
  Fe  Fe493     1.0  0.77124  0.67360  0.54406  1.0000
  S   S990      1.0  0.75830  0.69546  0.55585  1.0000
  S   S991      1.0  0.79747  0.63635  0.52392  1.0000
  S   S992      1.0  0.79280  0.67630  0.52250  1.0000
  Fe  Fe494     1.0  0.51716  0.67180  0.76281  1.0000
  S   S993      1.0  0.53619  0.67325  0.73877  1.0000
  H   H4421     1.0  0.96128  0.75838  0.75769  1.0000
  Fe  Fe495     1.0  0.54348  0.66928  0.78229  1.0000
  S   S994      1.0  0.56393  0.67071  0.75950  1.0000
  S   S995      1.0  0.55189  0.66579  0.80607  1.0000
  Fe  Fe496     1.0  0.54517  0.69069  0.74766  1.0000
  S   S996      1.0  0.55079  0.71527  0.73270  1.0000
  Fe  Fe497     1.0  0.55314  0.65298  0.75303  1.0000
  S   S997      1.0  0.57044  0.63253  0.74080  1.0000
  S   S998      1.0  0.52528  0.69071  0.77090  1.0000
  S   S999      1.0  0.53358  0.65001  0.77663  1.0000
  Fe  Fe498     1.0  0.67658  0.74260  0.54696  1.0000
  S   S1000     1.0  0.68196  0.71490  0.55572  1.0000
  S   S1001     1.0  0.65508  0.75651  0.53493  1.0000
  Fe  Fe499     1.0  0.54320  0.74900  0.64640  1.0000
  S   S1002     1.0  0.55325  0.72242  0.65744  1.0000
  S   S1003     1.0  0.53196  0.75388  0.62452  1.0000
  C   C3681     1.0  0.95983  0.71314  0.76701  1.0000
  Fe  Fe500     1.0  0.93585  0.66749  0.78544  1.0000
  S   S1004     1.0  0.91848  0.68859  0.79635  1.0000
  S   S1005     1.0  0.96343  0.66713  0.77625  1.0000
  Fe  Fe501     1.0  0.90726  0.65185  0.78607  1.0000
  S   S1006     1.0  0.88796  0.67224  0.79634  1.0000
  S   S1007     1.0  0.89591  0.63092  0.78627  1.0000
  Fe  Fe502     1.0  0.90345  0.68931  0.77843  1.0000
  S   S1008     1.0  0.89168  0.71309  0.76321  1.0000
  Fe  Fe503     1.0  0.90478  0.66917  0.81325  1.0000
  S   S1009     1.0  0.89439  0.66487  0.84084  1.0000
  S   S1010     1.0  0.92139  0.66931  0.76639  1.0000
  S   S1011     1.0  0.92350  0.64784  0.80397  1.0000
  Fe  Fe504     1.0  0.80214  0.68409  0.88188  1.0000
  S   S1012     1.0  0.81074  0.65718  0.89292  1.0000
  S   S1013     1.0  0.81830  0.69869  0.86096  1.0000
  Fe  Fe505     1.0  0.76726  0.68524  0.90306  1.0000
  S   S1014     1.0  0.77307  0.65832  0.91547  1.0000
  S   S1015     1.0  0.74159  0.69965  0.91170  1.0000
  Fe  Fe506     1.0  0.79653  0.66402  0.91726  1.0000
  S   S1016     1.0  0.80566  0.65422  0.94126  1.0000
  Fe  Fe507     1.0  0.78641  0.65452  0.88987  1.0000
  S   S1017     1.0  0.78662  0.63511  0.87655  1.0000
  S   S1018     1.0  0.78983  0.69126  0.90638  1.0000
  S   S1019     1.0  0.77867  0.68112  0.87735  1.0000
  S   S1020     1.0  0.81519  0.60758  0.72977  1.0000
  S   S1021     1.0  0.83813  0.63215  0.73108  1.0000
  H   H4422     1.0  0.89106  0.68885  0.73439  1.0000
  Fe  Fe508     1.0  0.82740  0.61102  0.74820  1.0000
  Fe  Fe509     1.0  0.82851  0.62664  0.71198  1.0000
  S   S1022     1.0  0.81660  0.64568  0.69259  1.0000
  Fe  Fe510     1.0  0.85190  0.70437  0.58251  1.0000
  S   S1023     1.0  0.83987  0.68599  0.60292  1.0000
  S   S1024     1.0  0.85032  0.70754  0.55612  1.0000
  Fe  Fe511     1.0  0.85996  0.72051  0.60618  1.0000
  S   S1025     1.0  0.84863  0.70342  0.62865  1.0000
  S   S1026     1.0  0.86814  0.74312  0.60721  1.0000
  Fe  Fe512     1.0  0.86132  0.68356  0.61421  1.0000
  S   S1027     1.0  0.87279  0.65926  0.62870  1.0000
  Fe  Fe513     1.0  0.82824  0.70730  0.61547  1.0000
  S   S1028     1.0  0.80106  0.71295  0.62684  1.0000
  S   S1029     1.0  0.87467  0.70017  0.59263  1.0000
  S   S1030     1.0  0.83830  0.72607  0.59411  1.0000
  Fe  Fe514     1.0  0.61189  0.75642  0.81314  1.0000
  S   S1031     1.0  0.59635  0.74641  0.83749  1.0000
  H   H4423     1.0  0.72540  0.58693  0.69608  1.0000
  Fe  Fe515     1.0  0.63000  0.72204  0.80737  1.0000
  S   S1032     1.0  0.61605  0.70907  0.83150  1.0000
  S   S1033     1.0  0.65020  0.70983  0.78891  1.0000
  Fe  Fe516     1.0  0.59374  0.72813  0.82436  1.0000
  S   S1034     1.0  0.56822  0.72564  0.82411  1.0000
  Fe  Fe517     1.0  0.62018  0.72865  0.84197  1.0000
  S   S1035     1.0  0.62965  0.72404  0.86524  1.0000
  S   S1036     1.0  0.60760  0.73967  0.79956  1.0000
  S   S1037     1.0  0.63593  0.73992  0.81832  1.0000
  S   S1038     1.0  0.71038  0.61584  0.79961  1.0000
  S   S1039     1.0  0.70659  0.64445  0.82001  1.0000
  H   H4424     1.0  0.58014  0.76717  0.69687  1.0000
  Fe  Fe518     1.0  0.69202  0.62634  0.82028  1.0000
  S   S1040     1.0  0.66468  0.63356  0.82091  1.0000
  Fe  Fe519     1.0  0.72611  0.63200  0.80135  1.0000
  S   S1041     1.0  0.94694  0.74560  0.70974  1.0000
  Fe  Fe520     1.0  0.51270  0.77358  0.63592  1.0000
  C   C3682     1.0  0.90425  0.74059  0.57566  1.0000
  H   H4425     1.0  0.70320  0.67259  0.88586  1.0000
  H   H4426     1.0  0.66118  0.75082  0.74378  1.0000
  H   H4427     1.0  0.58876  0.77157  0.79210  1.0000
  C   C3683     1.0  0.65364  0.68825  0.79598  1.0000
  C   C3684     1.0  0.66966  0.67853  0.79216  1.0000
  C   C3685     1.0  0.67293  0.66152  0.79935  1.0000
  C   C3686     1.0  0.66017  0.65423  0.81029  1.0000
  C   C3687     1.0  0.64395  0.66372  0.81337  1.0000
  C   C3688     1.0  0.64068  0.68075  0.80619  1.0000
  H   H4428     1.0  0.67966  0.68426  0.78408  1.0000
  H   H4429     1.0  0.68539  0.65412  0.79651  1.0000
  H   H4430     1.0  0.63402  0.65805  0.82169  1.0000
  H   H4431     1.0  0.62817  0.68811  0.80861  1.0000
  C   C3689     1.0  0.88242  0.74109  0.61939  1.0000
  N   N246      1.0  0.49899  0.70967  0.71139  1.0000
  C   C3690     1.0  0.81891  0.58597  0.62703  1.0000
  C   C3691     1.0  0.90600  0.73876  0.63774  1.0000
  C   C3692     1.0  0.90321  0.72438  0.63510  1.0000
  C   C3693     1.0  0.89139  0.72552  0.62604  1.0000
  C   C3694     1.0  0.49857  0.72868  0.68273  1.0000
  C   C3695     1.0  0.76113  0.59343  0.76498  1.0000
  H   H4432     1.0  0.91033  0.71231  0.63995  1.0000
  H   H4433     1.0  0.88943  0.71438  0.62395  1.0000
  C   C3696     1.0  0.78077  0.74210  0.63410  1.0000
  H   H4434     1.0  0.77048  0.73709  0.63411  1.0000
  C   C3697     1.0  0.78395  0.62688  0.79038  1.0000
  C   C3698     1.0  0.76711  0.63453  0.79119  1.0000
  H   H4435     1.0  0.86376  0.74912  0.55645  1.0000
  H   H4436     1.0  0.75889  0.63585  0.80303  1.0000
  C   C3699     1.0  0.83231  0.64891  0.67484  1.0000
  C   C3700     1.0  0.84877  0.64630  0.67624  1.0000
  C   C3701     1.0  0.86136  0.64889  0.66199  1.0000
  C   C3702     1.0  0.85740  0.65456  0.64637  1.0000
  C   C3703     1.0  0.84091  0.65730  0.64500  1.0000
  C   C3704     1.0  0.82840  0.65421  0.65920  1.0000
  H   H4437     1.0  0.85181  0.64259  0.68832  1.0000
  H   H4438     1.0  0.87408  0.64696  0.66310  1.0000
  H   H4439     1.0  0.83781  0.66156  0.63297  1.0000
  H   H4440     1.0  0.81568  0.65624  0.65809  1.0000
  C   C3705     1.0  0.80853  0.66723  0.95255  1.0000
  H   H4441     1.0  0.62282  0.59179  0.74375  1.0000
  N   N247      1.0  0.95357  0.72738  0.77531  1.0000
  S   S1042     1.0  0.68345  0.77424  0.90049  1.0000
  C   C3706     1.0  0.81015  0.69419  0.95531  1.0000
  C   C3707     1.0  0.80719  0.68432  0.94623  1.0000
  C   C3708     1.0  0.73907  0.73497  0.50323  1.0000
  H   H4442     1.0  0.71923  0.60296  0.76598  1.0000
  C   C3709     1.0  0.68025  0.68039  0.83623  1.0000
  H   H4443     1.0  0.80415  0.68990  0.93425  1.0000
  C   C3710     1.0  0.76782  0.63549  0.87163  1.0000
  C   C3711     1.0  0.75252  0.64341  0.88004  1.0000
  C   C3712     1.0  0.73764  0.64269  0.87661  1.0000
  C   C3713     1.0  0.73794  0.63447  0.86445  1.0000
  C   C3714     1.0  0.75327  0.62694  0.85570  1.0000
  C   C3715     1.0  0.76816  0.62730  0.85942  1.0000
  H   H4444     1.0  0.75214  0.64960  0.88958  1.0000
  H   H4445     1.0  0.72585  0.64834  0.88357  1.0000
  H   H4446     1.0  0.90164  0.61330  0.82379  1.0000
  H   H4447     1.0  0.77995  0.62111  0.85290  1.0000
  C   C3716     1.0  0.90713  0.72285  0.74943  1.0000
  C   C3717     1.0  0.92390  0.71485  0.74813  1.0000
  C   C3718     1.0  0.93616  0.72209  0.73611  1.0000
  C   C3719     1.0  0.93165  0.73734  0.72544  1.0000
  C   C3720     1.0  0.91494  0.74557  0.72704  1.0000
  C   C3721     1.0  0.90267  0.73834  0.73910  1.0000
  H   H4448     1.0  0.92742  0.70289  0.75608  1.0000
  H   H4449     1.0  0.94907  0.71558  0.73466  1.0000
  H   H4450     1.0  0.91145  0.75749  0.71896  1.0000
  H   H4451     1.0  0.88970  0.74461  0.74019  1.0000
  C   C3722     1.0  0.89329  0.62777  0.76785  1.0000
  C   C3723     1.0  0.90195  0.63471  0.75225  1.0000
  C   C3724     1.0  0.89963  0.63162  0.73788  1.0000
  C   C3725     1.0  0.88812  0.62224  0.73903  1.0000
  C   C3726     1.0  0.87927  0.61557  0.75463  1.0000
  C   C3727     1.0  0.88215  0.61800  0.76900  1.0000
  H   H4452     1.0  0.91072  0.64209  0.75128  1.0000
  H   H4453     1.0  0.90665  0.63664  0.72583  1.0000
  H   H4454     1.0  0.87569  0.61233  0.78104  1.0000
  C   C3728     1.0  0.87318  0.67408  0.84618  1.0000
  C   C3729     1.0  0.86363  0.66787  0.86161  1.0000
  C   C3730     1.0  0.84666  0.67506  0.86605  1.0000
  C   C3731     1.0  0.83927  0.68877  0.85526  1.0000
  C   C3732     1.0  0.84888  0.69509  0.83990  1.0000
  C   C3733     1.0  0.86575  0.68760  0.83525  1.0000
  H   H4455     1.0  0.86941  0.65765  0.87025  1.0000
  H   H4456     1.0  0.83947  0.67047  0.87808  1.0000
  H   H4457     1.0  0.84325  0.70581  0.83158  1.0000
  H   H4458     1.0  0.87310  0.69260  0.82340  1.0000
  C   C3734     1.0  0.73469  0.75501  0.88921  1.0000
  C   C3735     1.0  0.72348  0.74904  0.90342  1.0000
  C   C3736     1.0  0.72580  0.73201  0.91043  1.0000
  C   C3737     1.0  0.73963  0.72096  0.90353  1.0000
  C   C3738     1.0  0.75150  0.72698  0.89001  1.0000
  C   C3739     1.0  0.74899  0.74405  0.88280  1.0000
  H   H4459     1.0  0.71298  0.75753  0.90900  1.0000
  H   H4460     1.0  0.71676  0.72741  0.92109  1.0000
  H   H4461     1.0  0.76229  0.71847  0.88471  1.0000
  H   H4462     1.0  0.75778  0.74866  0.87188  1.0000
  H   H4463     1.0  0.76056  0.71330  0.92628  1.0000
  C   C3740     1.0  0.63320  0.75630  0.85451  1.0000
  C   C3741     1.0  0.63581  0.74161  0.86645  1.0000
  C   C3742     1.0  0.64355  0.74100  0.87912  1.0000
  C   C3743     1.0  0.64878  0.75505  0.87968  1.0000
  H   H4464     1.0  0.62690  0.75711  0.84495  1.0000
  H   H4465     1.0  0.64538  0.72975  0.88855  1.0000
  H   H4466     1.0  0.65455  0.75464  0.88954  1.0000
  H   H4467     1.0  0.98223  0.77471  0.72395  1.0000
  H   H4468     1.0  0.61946  0.62790  0.76507  1.0000
  H   H4469     1.0  0.75133  0.59172  0.58848  1.0000
  H   H4470     1.0  0.88548  0.67575  0.89157  1.0000
  C   C3744     1.0  0.55406  0.71697  0.71132  1.0000
  C   C3745     1.0  0.55774  0.70281  0.70477  1.0000
  C   C3746     1.0  0.55830  0.70450  0.68793  1.0000
  C   C3747     1.0  0.55495  0.72033  0.67775  1.0000
  C   C3748     1.0  0.55213  0.73446  0.68411  1.0000
  C   C3749     1.0  0.55186  0.73275  0.70085  1.0000
  H   H4471     1.0  0.55989  0.69058  0.71272  1.0000
  H   H4472     1.0  0.56068  0.69354  0.68297  1.0000
  H   H4473     1.0  0.54992  0.74671  0.67622  1.0000
  H   H4474     1.0  0.54945  0.74369  0.70576  1.0000
  C   C3750     1.0  0.55773  0.68244  0.80982  1.0000
  C   C3751     1.0  0.56574  0.67944  0.82291  1.0000
  C   C3752     1.0  0.57016  0.69247  0.82654  1.0000
  C   C3753     1.0  0.56615  0.70872  0.81741  1.0000
  C   C3754     1.0  0.55827  0.71172  0.80422  1.0000
  C   C3755     1.0  0.55435  0.69858  0.80023  1.0000
  H   H4475     1.0  0.56815  0.66707  0.83057  1.0000
  H   H4476     1.0  0.57581  0.69010  0.83701  1.0000
  H   H4477     1.0  0.55486  0.72429  0.79729  1.0000
  H   H4478     1.0  0.54813  0.70104  0.79016  1.0000
  C   C3756     1.0  0.58519  0.61839  0.75152  1.0000
  C   C3757     1.0  0.59982  0.60988  0.74256  1.0000
  C   C3758     1.0  0.58224  0.61495  0.76883  1.0000
  H   H4479     1.0  0.60209  0.61242  0.72917  1.0000
  H   H4480     1.0  0.57084  0.62128  0.77583  1.0000
  C   C3759     1.0  0.73665  0.69997  0.55816  1.0000
  C   C3760     1.0  0.72851  0.68804  0.55779  1.0000
  C   C3761     1.0  0.71143  0.69240  0.55790  1.0000
  C   C3762     1.0  0.70257  0.70874  0.55819  1.0000
  C   C3763     1.0  0.71061  0.72048  0.55918  1.0000
  C   C3764     1.0  0.72759  0.71606  0.55932  1.0000
  H   H4481     1.0  0.73534  0.67548  0.55737  1.0000
  H   H4482     1.0  0.70523  0.68326  0.55725  1.0000
  H   H4483     1.0  0.70383  0.73307  0.55962  1.0000
  H   H4484     1.0  0.73378  0.72532  0.55974  1.0000
  C   C3765     1.0  0.81262  0.66017  0.96810  1.0000
  C   C3766     1.0  0.59384  0.60292  0.77712  1.0000
  H   H4485     1.0  0.84025  0.65700  0.92821  1.0000
  C   C3767     1.0  0.83514  0.66413  0.54702  1.0000
  C   C3768     1.0  0.84478  0.66130  0.55873  1.0000
  C   C3769     1.0  0.84910  0.67463  0.56188  1.0000
  C   C3770     1.0  0.84434  0.69079  0.55288  1.0000
  C   C3771     1.0  0.83478  0.69364  0.54111  1.0000
  C   C3772     1.0  0.82994  0.68039  0.53839  1.0000
  H   H4486     1.0  0.84903  0.64875  0.56528  1.0000
  H   H4487     1.0  0.85665  0.67228  0.57084  1.0000
  H   H4488     1.0  0.83114  0.70611  0.53405  1.0000
  H   H4489     1.0  0.95337  0.71037  0.79930  1.0000
  H   H4490     1.0  0.55876  0.75674  0.83675  1.0000
  C   C3773     1.0  0.79090  0.59694  0.57139  1.0000
  C   C3774     1.0  0.77364  0.59967  0.57351  1.0000
  H   H4491     1.0  0.86683  0.73469  0.65471  1.0000
  H   H4492     1.0  0.79787  0.60469  0.56123  1.0000
  S   S1043     1.0  0.49014  0.67841  0.76000  1.0000
  C   C3775     1.0  0.60856  0.59454  0.76813  1.0000
  C   C3776     1.0  0.75195  0.63750  0.50226  1.0000
  H   H4493     1.0  0.63507  0.59502  0.83415  1.0000
  C   C3777     1.0  0.96796  0.67508  0.80363  1.0000
  H   H4494     1.0  0.58343  0.70835  0.63638  1.0000
  C   C3778     1.0  0.91014  0.71350  0.56918  1.0000
  C   C3779     1.0  0.61156  0.59812  0.75083  1.0000
  H   H4495     1.0  0.95515  0.67434  0.80926  1.0000
  H   H4496     1.0  0.92932  0.68901  0.71061  1.0000
  H   H4497     1.0  0.58488  0.73124  0.60116  1.0000
  H   H4498     1.0  0.66208  0.61616  0.79657  1.0000
  C   C3780     1.0  0.75562  0.72218  0.97163  1.0000
  C   C3781     1.0  0.84849  0.70960  0.87771  1.0000
  C   C3782     1.0  0.64132  0.71571  0.59367  1.0000
  H   H4499     1.0  0.64080  0.74686  0.76914  1.0000
  H   H4500     1.0  0.67058  0.77589  0.64759  1.0000
  C   C3783     1.0  0.57667  0.77562  0.72594  1.0000
  C   C3784     1.0  0.68907  0.74333  0.85813  1.0000
  S   S1044     1.0  0.71890  0.63363  0.86085  1.0000
  C   C3785     1.0  0.65891  0.68708  0.87696  1.0000
  S   S1045     1.0  0.91137  0.76143  0.68298  1.0000
  C   C3786     1.0  0.76377  0.62942  0.59908  1.0000
  H   H4501     1.0  0.77228  0.62481  0.58820  1.0000
  N   N248      1.0  0.85532  0.67519  0.91570  1.0000
  C   C3787     1.0  0.87020  0.66256  0.91996  1.0000
  C   C3788     1.0  0.84885  0.68509  0.92874  1.0000
  C   C3789     1.0  0.84266  0.66612  0.91622  1.0000
  C   C3790     1.0  0.85875  0.68642  0.89920  1.0000
  H   H4502     1.0  0.74066  0.75977  0.52790  1.0000
  H   H4503     1.0  0.89949  0.71961  0.53940  1.0000
  H   H4504     1.0  0.83748  0.67596  0.82625  1.0000
  H   H4505     1.0  0.88012  0.66850  0.92026  1.0000
  H   H4506     1.0  0.86714  0.65444  0.93248  1.0000
  H   H4507     1.0  0.87536  0.65420  0.91101  1.0000
  H   H4508     1.0  0.85801  0.69208  0.92879  1.0000
  H   H4509     1.0  0.51098  0.73054  0.68095  1.0000
  H   H4510     1.0  0.83717  0.69435  0.92700  1.0000
  H   H4511     1.0  0.84671  0.65915  0.90610  1.0000
  H   H4512     1.0  0.75664  0.58744  0.79857  1.0000
  H   H4513     1.0  0.83041  0.67452  0.91494  1.0000
  C   C3791     1.0  0.84569  0.69904  0.89334  1.0000
  C   C3792     1.0  0.97742  0.67953  0.81212  1.0000
  C   C3793     1.0  0.66220  0.69095  0.89035  1.0000
  C   C3794     1.0  0.67815  0.68584  0.89348  1.0000
  H   H4514     1.0  0.67890  0.69405  0.83432  1.0000
  H   H4515     1.0  0.64848  0.69507  0.84699  1.0000
  H   H4516     1.0  0.64621  0.69119  0.87548  1.0000
  H   H4517     1.0  0.65222  0.69787  0.89837  1.0000
  H   H4518     1.0  0.68062  0.68869  0.90398  1.0000
  C   C3795     1.0  0.74941  0.63486  0.48788  1.0000
  H   H4519     1.0  0.83308  0.70061  0.90063  1.0000
  H   H4520     1.0  0.64621  0.76371  0.49690  1.0000
  H   H4521     1.0  0.87736  0.66613  0.73832  1.0000
  H   H4522     1.0  0.72913  0.69711  0.51531  1.0000
  C   C3796     1.0  0.57547  0.58291  0.74100  1.0000
  C   C3797     1.0  0.49083  0.71847  0.69730  1.0000
  C   C3798     1.0  0.98814  0.76048  0.69768  1.0000
  H   H4523     1.0  0.84591  0.67709  0.94137  1.0000
  H   H4524     1.0  0.86418  0.59753  0.83346  1.0000
  C   C3799     1.0  0.87743  0.69569  0.87277  1.0000
  H   H4525     1.0  0.82247  0.63565  0.57934  1.0000
  C   C3800     1.0  0.72752  0.71064  0.51443  1.0000
  N   N249      1.0  0.88988  0.73750  0.55512  1.0000
  H   H4526     1.0  0.53010  0.74785  0.74425  1.0000
  C   C3801     1.0  0.98333  0.75672  0.76522  1.0000
  H   H4527     1.0  0.76373  0.62710  0.63909  1.0000
  H   H4528     1.0  0.74825  0.62401  0.63069  1.0000
  H   H4529     1.0  0.75633  0.68581  0.93964  1.0000
  C   C3802     1.0  0.71022  0.71718  0.86390  1.0000
  H   H4530     1.0  0.65629  0.68821  0.50626  1.0000
  H   H4531     1.0  0.58472  0.73219  0.64466  1.0000
  H   H4532     1.0  0.90063  0.73114  0.70956  1.0000
  C   C3803     1.0  0.73866  0.75642  0.51742  1.0000
  H   H4533     1.0  0.75364  0.62051  0.84636  1.0000
  H   H4534     1.0  0.92409  0.70319  0.68194  1.0000
  C   C3804     1.0  0.64641  0.76962  0.86743  1.0000
  H   H4535     1.0  0.60878  0.75499  0.60405  1.0000
  C   C3805     1.0  0.82930  0.59726  0.62077  1.0000
  C   C3806     1.0  0.74396  0.59315  0.77053  1.0000
  H   H4536     1.0  0.80142  0.66165  0.61896  1.0000
  S   S1046     1.0  0.67860  0.77301  0.48731  1.0000
  C   C3807     1.0  0.70741  0.71181  0.85082  1.0000
  H   H4537     1.0  0.51738  0.78201  0.70034  1.0000
  H   H4538     1.0  0.63915  0.61501  0.82244  1.0000
  H   H4539     1.0  0.59628  0.74706  0.63145  1.0000
  C   C3808     1.0  0.63279  0.74545  0.59060  1.0000
  C   C3809     1.0  0.73735  0.61389  0.74637  1.0000
  N   N250      1.0  0.75528  0.70438  0.95284  1.0000
  C   C3810     1.0  0.76470  0.58959  0.58674  1.0000
  H   H4540     1.0  0.72599  0.71236  0.52714  1.0000
  H   H4541     1.0  0.79482  0.63676  0.48482  1.0000
  H   H4542     1.0  0.62925  0.75920  0.47998  1.0000
  C   C3811     1.0  0.59642  0.73354  0.63516  1.0000
  C   C3812     1.0  0.84974  0.61252  0.65261  1.0000
  H   H4543     1.0  0.59600  0.70290  0.61750  1.0000
  S   S1047     1.0  0.56010  0.76684  0.63483  1.0000
  H   H4544     1.0  0.60701  0.72729  0.64138  1.0000
  C   C3813     1.0  0.65115  0.76409  0.48382  1.0000
  H   H4545     1.0  0.72267  0.77431  0.48314  1.0000
  H   H4546     1.0  0.75260  0.64979  0.50281  1.0000
  C   C3814     1.0  0.67743  0.72555  0.49482  1.0000
  C   C3815     1.0  0.50054  0.69149  0.71409  1.0000
  H   H4547     1.0  0.70183  0.76991  0.60350  1.0000
  C   C3816     1.0  0.64462  0.73148  0.58670  1.0000
  C   C3817     1.0  0.82072  0.58500  0.65490  1.0000
  H   H4548     1.0  0.82219  0.63479  0.86726  1.0000
  C   C3818     1.0  0.76086  0.64012  0.77674  1.0000
  H   H4549     1.0  0.77409  0.68082  0.97473  1.0000
  H   H4550     1.0  0.96995  0.70377  0.77222  1.0000
  N   N251      1.0  0.59776  0.72636  0.62085  1.0000
  C   C3819     1.0  0.83563  0.60235  0.63149  1.0000
  C   C3820     1.0  0.91478  0.73416  0.58685  1.0000
  H   H4551     1.0  0.73122  0.71907  0.48219  1.0000
  H   H4552     1.0  0.64981  0.67835  0.83769  1.0000
  C   C3821     1.0  0.65150  0.68125  0.84890  1.0000
  H   H4553     1.0  0.64205  0.67621  0.85949  1.0000
  H   H4554     1.0  0.75950  0.64310  0.59492  1.0000
  H   H4555     1.0  0.68467  0.64943  0.85499  1.0000
  H   H4556     1.0  0.52441  0.70796  0.69782  1.0000
  H   H4557     1.0  0.56182  0.58417  0.78169  1.0000
  H   H4558     1.0  0.58887  0.76343  0.56149  1.0000
  C   C3822     1.0  0.84038  0.73686  0.66004  1.0000
  Fe  Fe521     1.0  0.93610  0.76052  0.68769  1.0000
  H   H4559     1.0  0.88901  0.66930  0.68593  1.0000
  C   C3823     1.0  0.69086  0.67680  0.88325  1.0000
  H   H4560     1.0  0.49359  0.64223  0.77033  1.0000
  H   H4561     1.0  0.50675  0.77468  0.60572  1.0000
  H   H4562     1.0  0.87054  0.60815  0.75563  1.0000
  S   S1048     1.0  0.52257  0.76689  0.65907  1.0000
  H   H4563     1.0  0.74638  0.73066  0.52684  1.0000
  S   S1049     1.0  0.69584  0.75325  0.52647  1.0000
  H   H4564     1.0  0.74695  0.70096  0.48597  1.0000
  C   C3824     1.0  0.71382  0.74360  0.86573  1.0000
  C   C3825     1.0  0.88934  0.67393  0.69637  1.0000
  H   H4565     1.0  0.72512  0.70942  0.88277  1.0000
  H   H4566     1.0  0.98628  0.77189  0.68771  1.0000
  H   H4567     1.0  0.90282  0.69194  0.68109  1.0000
  C   C3826     1.0  0.88208  0.66656  0.71235  1.0000
  C   C3827     1.0  0.89485  0.72036  0.71178  1.0000
  S   S1050     1.0  0.81487  0.61331  0.77432  1.0000
  H   H4568     1.0  0.87853  0.73064  0.53906  1.0000
  H   H4569     1.0  0.69498  0.74638  0.84472  1.0000
  Fe  Fe522     1.0  0.71821  0.62426  0.83892  1.0000
  H   H4570     1.0  0.88254  0.71486  0.55668  1.0000
  C   C3828     1.0  0.64473  0.62886  0.76059  1.0000
  H   H4571     1.0  0.60532  0.70138  0.63462  1.0000
  C   C3829     1.0  0.54702  0.76403  0.73098  1.0000
  H   H4572     1.0  0.64560  0.59428  0.78883  1.0000
  C   C3830     1.0  0.87479  0.68508  0.88842  1.0000
  H   H4573     1.0  0.96490  0.71726  0.75356  1.0000
  C   C3831     1.0  0.51592  0.71256  0.70877  1.0000
  H   H4574     1.0  0.50702  0.68445  0.72433  1.0000
  H   H4575     1.0  0.68283  0.75549  0.86173  1.0000
  H   H4576     1.0  0.67330  0.59713  0.78992  1.0000
  H   H4577     1.0  0.58337  0.74917  0.60869  1.0000
  H   H4578     1.0  0.86630  0.71570  0.85507  1.0000
  C   C3832     1.0  0.92281  0.71746  0.58936  1.0000
  C   C3833     1.0  0.76588  0.60446  0.74965  1.0000
  H   H4579     1.0  0.67602  0.60140  0.80820  1.0000
  H   H4580     1.0  0.74825  0.64558  0.47778  1.0000
  C   C3834     1.0  0.81342  0.64945  0.59867  1.0000
  N   N252      1.0  0.87716  0.62265  0.83773  1.0000
  C   C3835     1.0  0.88420  0.62286  0.85161  1.0000
  C   C3836     1.0  0.88910  0.61023  0.82859  1.0000
  C   C3837     1.0  0.87621  0.63912  0.82623  1.0000
  C   C3838     1.0  0.86023  0.61926  0.84412  1.0000
  C   C3839     1.0  0.85556  0.60603  0.84074  1.0000
  C   C3840     1.0  0.84768  0.62964  0.85375  1.0000
  H   H4581     1.0  0.49639  0.74469  0.65879  1.0000
  C   C3841     1.0  0.83159  0.62675  0.85988  1.0000
  C   C3842     1.0  0.82742  0.61369  0.85640  1.0000
  H   H4582     1.0  0.88441  0.61096  0.86102  1.0000
  H   H4583     1.0  0.89716  0.62492  0.84715  1.0000
  H   H4584     1.0  0.87710  0.63313  0.85798  1.0000
  C   C3843     1.0  0.66260  0.76248  0.74606  1.0000
  H   H4585     1.0  0.88508  0.60995  0.81743  1.0000
  H   H4586     1.0  0.89078  0.59753  0.83664  1.0000
  H   H4587     1.0  0.86844  0.64940  0.83236  1.0000
  H   H4588     1.0  0.88876  0.64202  0.82110  1.0000
  H   H4589     1.0  0.87097  0.63958  0.81559  1.0000
  H   H4590     1.0  0.85014  0.64018  0.85652  1.0000
  H   H4591     1.0  0.97181  0.68220  0.82430  1.0000
  H   H4592     1.0  0.88961  0.69406  0.86447  1.0000
  N   N253      1.0  0.83846  0.60080  0.66073  1.0000
  H   H4593     1.0  0.90902  0.74584  0.53485  1.0000
  C   C3844     1.0  0.66510  0.70780  0.48569  1.0000
  H   H4594     1.0  0.91626  0.74204  0.59406  1.0000
  C   C3845     1.0  0.83164  0.59618  0.64896  1.0000
  C   C3846     1.0  0.58382  0.73561  0.61254  1.0000
  H   H4595     1.0  0.65067  0.70494  0.59045  1.0000
  Fe  Fe523     1.0  0.67422  0.76866  0.51534  1.0000
  Fe  Fe524     1.0  0.65367  0.77592  0.54869  1.0000
  H   H4596     1.0  0.79291  0.59649  0.76492  1.0000
  H   H4597     1.0  0.93547  0.75060  0.77256  1.0000
  H   H4598     1.0  0.84169  0.77446  0.66485  1.0000
  H   H4599     1.0  0.68320  0.73609  0.49197  1.0000
  H   H4600     1.0  0.97562  0.75989  0.70587  1.0000
  H   H4601     1.0  0.84325  0.62437  0.64567  1.0000
  H   H4602     1.0  0.57336  0.59019  0.72897  1.0000
  H   H4603     1.0  0.58782  0.78106  0.72298  1.0000
  H   H4604     1.0  0.63545  0.75771  0.58513  1.0000
  H   H4605     1.0  0.74020  0.68295  0.87549  1.0000
  H   H4606     1.0  0.73504  0.67444  0.85242  1.0000
  S   S1051     1.0  0.69405  0.58910  0.71959  1.0000
  H   H4607     1.0  0.77693  0.71213  0.93613  1.0000
  H   H4608     1.0  0.98469  0.76901  0.75804  1.0000
  C   C3847     1.0  0.89629  0.75076  0.54168  1.0000
  H   H4609     1.0  0.73935  0.58555  0.78235  1.0000
  N   N254      1.0  0.65288  0.59431  0.81096  1.0000
  Fe  Fe525     1.0  0.83887  0.58938  0.72277  1.0000
  H   H4610     1.0  0.56972  0.77773  0.73849  1.0000
  H   H4611     1.0  0.89891  0.76545  0.63327  1.0000
  C   C3848     1.0  0.81439  0.68708  0.97079  1.0000
  Fe  Fe526     1.0  0.92526  0.75780  0.65751  1.0000
  C   C3849     1.0  0.94059  0.73944  0.76701  1.0000
  H   H4612     1.0  0.80518  0.58689  0.71659  1.0000
  C   C3850     1.0  0.88763  0.72508  0.54724  1.0000
  H   H4613     1.0  0.77853  0.60591  0.74460  1.0000
  H   H4614     1.0  0.88999  0.71699  0.72541  1.0000
  C   C3851     1.0  0.98018  0.72502  0.78372  1.0000
  H   H4615     1.0  0.87624  0.65623  0.71430  1.0000
  C   C3852     1.0  0.60805  0.77492  0.56222  1.0000
  H   H4616     1.0  0.73288  0.70729  0.94446  1.0000
  H   H4617     1.0  0.75289  0.77116  0.59338  1.0000
  C   C3853     1.0  0.75112  0.60566  0.50073  1.0000
  C   C3854     1.0  0.76041  0.68701  0.95040  1.0000
  H   H4618     1.0  0.75618  0.62644  0.52687  1.0000
  H   H4619     1.0  0.78083  0.75976  0.59958  1.0000
  H   H4620     1.0  0.52172  0.70592  0.71957  1.0000
  H   H4621     1.0  0.67760  0.71988  0.52080  1.0000
  H   H4622     1.0  0.69841  0.76792  0.57648  1.0000
  H   H4623     1.0  0.72823  0.62198  0.73945  1.0000
  H   H4624     1.0  0.75794  0.62313  0.72911  1.0000
  C   C3855     1.0  0.72814  0.68624  0.85560  1.0000
  C   C3856     1.0  0.73693  0.70949  0.95479  1.0000
  C   C3857     1.0  0.65207  0.68938  0.47778  1.0000
  S   S1052     1.0  0.85020  0.59109  0.74293  1.0000
  H   H4625     1.0  0.90879  0.70475  0.56296  1.0000
  C   C3858     1.0  0.73193  0.74796  0.49117  1.0000
  C   C3859     1.0  0.97513  0.67158  0.78790  1.0000
  H   H4626     1.0  0.71561  0.71732  0.51056  1.0000
  C   C3860     1.0  0.70803  0.77703  0.59215  1.0000
  H   H4627     1.0  0.66951  0.63223  0.75730  1.0000
  C   C3861     1.0  0.75731  0.70736  0.50852  1.0000
  C   C3862     1.0  0.66216  0.69869  0.50241  1.0000
  H   H4628     1.0  0.75287  0.72053  0.47686  1.0000
  H   H4629     1.0  0.55491  0.75813  0.73976  1.0000
  H   H4630     1.0  0.68538  0.74283  0.88940  1.0000
  H   H4631     1.0  0.66425  0.69609  0.52757  1.0000
  C   C3863     1.0  0.76317  0.71505  0.93760  1.0000
  H   H4632     1.0  0.63506  0.61192  0.79761  1.0000
  H   H4633     1.0  0.74850  0.73286  0.96458  1.0000
  H   H4634     1.0  0.73050  0.70238  0.96659  1.0000
  H   H4635     1.0  0.73405  0.59504  0.48404  1.0000
  S   S1053     1.0  0.73014  0.77573  0.87852  1.0000
  H   H4636     1.0  0.88404  0.72477  0.70572  1.0000
  C   C3864     1.0  0.75366  0.60847  0.51505  1.0000
  C   C3865     1.0  0.74324  0.71445  0.48624  1.0000
  H   H4637     1.0  0.79691  0.63142  0.74858  1.0000
  H   H4638     1.0  0.92988  0.73388  0.76817  1.0000
  N   N255      1.0  0.74180  0.71720  0.50298  1.0000
  H   H4639     1.0  0.57151  0.73418  0.62085  1.0000
  H   H4640     1.0  0.73608  0.77430  0.91268  1.0000
  C   C3866     1.0  0.75029  0.78066  0.92626  1.0000
  H   H4641     1.0  0.70120  0.72514  0.89451  1.0000
  H   H4642     1.0  0.67332  0.75926  0.75213  1.0000
  H   H4643     1.0  0.60780  0.66000  0.80489  1.0000
  S   S1054     1.0  0.70188  0.60695  0.84074  1.0000
  H   H4644     1.0  0.54772  0.76304  0.82067  1.0000
  H   H4645     1.0  0.60750  0.63835  0.80838  1.0000
  C   C3867     1.0  0.70602  0.77591  0.57683  1.0000
  C   C3868     1.0  0.80739  0.75527  0.63369  1.0000
  C   C3869     1.0  0.71637  0.69660  0.84674  1.0000
  N   N256      1.0  0.83439  0.64439  0.79066  1.0000
  C   C3870     1.0  0.82086  0.65001  0.78137  1.0000
  C   C3871     1.0  0.84935  0.64991  0.77927  1.0000
  C   C3872     1.0  0.83847  0.62595  0.79497  1.0000
  C   C3873     1.0  0.82881  0.65093  0.80602  1.0000
  C   C3874     1.0  0.81453  0.64692  0.81804  1.0000
  C   C3875     1.0  0.83709  0.66147  0.80948  1.0000
  C   C3876     1.0  0.81272  0.63813  0.59010  1.0000
  H   H4646     1.0  0.89700  0.76126  0.54652  1.0000
  H   H4647     1.0  0.81693  0.66381  0.77844  1.0000
  H   H4648     1.0  0.82476  0.64567  0.76949  1.0000
  H   H4649     1.0  0.80964  0.64501  0.78838  1.0000
  H   H4650     1.0  0.84703  0.66368  0.77507  1.0000
  H   H4651     1.0  0.85317  0.64478  0.76785  1.0000
  H   H4652     1.0  0.86026  0.64556  0.78520  1.0000
  H   H4653     1.0  0.82739  0.62068  0.80198  1.0000
  H   H4654     1.0  0.84327  0.62060  0.78366  1.0000
  H   H4655     1.0  0.84809  0.62121  0.80257  1.0000
  H   H4656     1.0  0.80763  0.63890  0.81636  1.0000
  H   H4657     1.0  0.84808  0.66522  0.80119  1.0000
  H   H4658     1.0  0.90493  0.71851  0.68002  1.0000
  C   C3877     1.0  0.59856  0.67021  0.77626  1.0000
  C   C3878     1.0  0.59333  0.64288  0.78210  1.0000
  C   C3879     1.0  0.62211  0.64674  0.77666  1.0000
  C   C3880     1.0  0.63437  0.65396  0.77849  1.0000
  C   C3881     1.0  0.65126  0.64866  0.77169  1.0000
  H   H4659     1.0  0.60014  0.67186  0.76263  1.0000
  H   H4660     1.0  0.58511  0.67491  0.78144  1.0000
  H   H4661     1.0  0.60540  0.67854  0.77824  1.0000
  H   H4662     1.0  0.59680  0.62952  0.78805  1.0000
  H   H4663     1.0  0.59358  0.64408  0.76880  1.0000
  H   H4664     1.0  0.58007  0.64730  0.78799  1.0000
  H   H4665     1.0  0.63096  0.66391  0.78506  1.0000
  H   H4666     1.0  0.66035  0.65445  0.77325  1.0000
  N   N257      1.0  0.81689  0.70158  0.67771  1.0000
  C   C3882     1.0  0.79988  0.71234  0.68014  1.0000
  C   C3883     1.0  0.81835  0.69234  0.66500  1.0000
  C   C3884     1.0  0.81842  0.68944  0.69363  1.0000
  C   C3885     1.0  0.83033  0.71095  0.67214  1.0000
  C   C3886     1.0  0.82730  0.72850  0.66622  1.0000
  C   C3887     1.0  0.84723  0.70241  0.67128  1.0000
  C   C3888     1.0  0.86019  0.71094  0.66524  1.0000
  H   H4667     1.0  0.79820  0.72024  0.68906  1.0000
  H   H4668     1.0  0.79709  0.72049  0.66820  1.0000
  H   H4669     1.0  0.79010  0.70488  0.68503  1.0000
  H   H4670     1.0  0.81679  0.70097  0.65299  1.0000
  H   H4671     1.0  0.80879  0.68468  0.66870  1.0000
  H   H4672     1.0  0.83077  0.68392  0.66259  1.0000
  H   H4673     1.0  0.82961  0.67915  0.69229  1.0000
  H   H4674     1.0  0.81893  0.69564  0.70321  1.0000
  H   H4675     1.0  0.80779  0.68304  0.69858  1.0000
  H   H4676     1.0  0.81496  0.73604  0.66580  1.0000
  H   H4677     1.0  0.85062  0.68899  0.67468  1.0000
  H   H4678     1.0  0.87301  0.70414  0.66435  1.0000
  N   N258      1.0  0.78920  0.71317  0.57697  1.0000
  C   C3889     1.0  0.79157  0.71435  0.55894  1.0000
  C   C3890     1.0  0.80598  0.70781  0.58089  1.0000
  C   C3891     1.0  0.77992  0.69997  0.58630  1.0000
  H   H4679     1.0  0.79833  0.72430  0.55150  1.0000
  H   H4680     1.0  0.79882  0.70246  0.55529  1.0000
  H   H4681     1.0  0.77960  0.71707  0.55504  1.0000
  H   H4682     1.0  0.81380  0.71706  0.57405  1.0000
  H   H4683     1.0  0.81294  0.69583  0.57730  1.0000
  H   H4684     1.0  0.80518  0.70586  0.59442  1.0000
  H   H4685     1.0  0.76762  0.70241  0.58310  1.0000
  H   H4686     1.0  0.78681  0.68762  0.58352  1.0000
  H   H4687     1.0  0.93381  0.71733  0.79374  1.0000
  C   C3892     1.0  0.73196  0.76885  0.50525  1.0000
  Fe  Fe527     1.0  0.54740  0.77318  0.61360  1.0000
  S   S1055     1.0  0.95016  0.75462  0.66322  1.0000
  S   S1056     1.0  0.92134  0.73667  0.64876  1.0000
  C   C3893     1.0  0.79704  0.73269  0.63107  1.0000
  C   C3894     1.0  0.81697  0.66378  0.83533  1.0000
  C   C3895     1.0  0.65643  0.63615  0.76274  1.0000
  Fe  Fe528     1.0  0.86033  0.61216  0.72450  1.0000
  C   C3896     1.0  0.86431  0.70790  0.86743  1.0000
  H   H4688     1.0  0.72843  0.74557  0.48107  1.0000
  C   C3897     1.0  0.76008  0.70640  0.96735  1.0000
  H   H4689     1.0  0.75796  0.73005  0.57207  1.0000
  H   H4690     1.0  0.92672  0.69413  0.58263  1.0000
  C   C3898     1.0  0.76910  0.58904  0.79093  1.0000
  S   S1057     1.0  0.85161  0.60833  0.70376  1.0000
  C   C3899     1.0  0.79457  0.62516  0.77506  1.0000
  S   S1058     1.0  0.88483  0.61903  0.72092  1.0000
  N   N259      1.0  0.60433  0.65254  0.78412  1.0000
  Fe  Fe529     1.0  0.69115  0.77279  0.54107  1.0000
  H   H4691     1.0  0.69844  0.71917  0.84351  1.0000
  C   C3900     1.0  0.76032  0.75965  0.58990  1.0000
  S   S1059     1.0  0.77726  0.67106  0.48616  1.0000
  S   S1060     1.0  0.73942  0.64642  0.77794  1.0000
  H   H4692     1.0  0.81371  0.64695  0.97308  1.0000
  H   H4693     1.0  0.82290  0.73218  0.62861  1.0000
  C   C3901     1.0  0.77173  0.63944  0.76133  1.0000
  C   C3902     1.0  0.78863  0.63207  0.76049  1.0000
  C   C3903     1.0  0.87322  0.74484  0.56424  1.0000
  C   C3904     1.0  0.90143  0.73042  0.56660  1.0000
  H   H4694     1.0  0.81635  0.60030  0.68051  1.0000
  H   H4695     1.0  0.79761  0.73388  0.59256  1.0000
  C   C3905     1.0  0.83936  0.60338  0.84681  1.0000
  H   H4696     1.0  0.73083  0.58373  0.72422  1.0000
  H   H4697     1.0  0.65284  0.75353  0.77891  1.0000
  H   H4698     1.0  0.76697  0.64405  0.75011  1.0000
  H   H4699     1.0  0.92774  0.70981  0.71244  1.0000
  C   C3906     1.0  0.82460  0.60879  0.67273  1.0000
  H   H4700     1.0  0.70625  0.58354  0.79802  1.0000
  C   C3907     1.0  0.62780  0.63403  0.76738  1.0000
  H   H4701     1.0  0.58865  0.65404  0.80833  1.0000
  C   C3908     1.0  0.49037  0.73686  0.66975  1.0000
  H   H4702     1.0  0.79939  0.62162  0.58789  1.0000
  C   C3909     1.0  0.78565  0.73823  0.58920  1.0000
  H   H4703     1.0  0.51639  0.76874  0.58627  1.0000
  N   N260      1.0  0.77311  0.58312  0.77534  1.0000
  H   H4704     1.0  0.75282  0.62366  0.60206  1.0000
  H   H4705     1.0  0.49522  0.70969  0.73730  1.0000
  C   C3910     1.0  0.60208  0.65115  0.80218  1.0000
  C   C3911     1.0  0.69258  0.73086  0.88590  1.0000
  C   C3912     1.0  0.81031  0.73928  0.63094  1.0000
  H   H4706     1.0  0.86092  0.60705  0.64397  1.0000
  C   C3913     1.0  0.84811  0.58565  0.66998  1.0000
  H   H4707     1.0  0.69796  0.66576  0.86232  1.0000
  C   C3914     1.0  0.55732  0.76612  0.82504  1.0000
  C   C3915     1.0  0.77608  0.75320  0.59338  1.0000
  C   C3916     1.0  0.77962  0.72925  0.58128  1.0000
  S   S1061     1.0  0.73899  0.61291  0.82014  1.0000
  C   C3917     1.0  0.83116  0.66776  0.82393  1.0000
  H   H4708     1.0  0.83817  0.71871  0.87324  1.0000
  H   H4709     1.0  0.78705  0.60208  0.60760  1.0000
  C   C3918     1.0  0.92057  0.70718  0.58050  1.0000
  H   H4710     1.0  0.64877  0.61924  0.75344  1.0000
  H   H4711     1.0  0.68364  0.72273  0.88845  1.0000
  H   H4712     1.0  0.94197  0.73129  0.80000  1.0000
  C   C3919     1.0  0.67428  0.71646  0.51106  1.0000
  H   H4713     1.0  0.82924  0.61284  0.68153  1.0000
  H   H4714     1.0  0.97970  0.71259  0.79090  1.0000
  C   C3920     1.0  0.75409  0.61450  0.74055  1.0000
  C   C3921     1.0  0.76349  0.73623  0.57788  1.0000
  H   H4715     1.0  0.94988  0.70648  0.76839  1.0000
  C   C3922     1.0  0.57670  0.78064  0.69709  1.0000
  H   H4716     1.0  0.66918  0.65207  0.84365  1.0000
  C   C3923     1.0  0.67167  0.67818  0.86605  1.0000
  C   C3924     1.0  0.74885  0.61880  0.48670  1.0000
  N   N261      1.0  0.77181  0.62534  0.61337  1.0000
  H   H4717     1.0  0.76743  0.60041  0.62113  1.0000
  H   H4718     1.0  0.62452  0.70121  0.60971  1.0000
  H   H4719     1.0  0.81237  0.66882  0.84645  1.0000
  H   H4720     1.0  0.84375  0.61097  0.62577  1.0000
  C   C3925     1.0  0.77777  0.60706  0.61791  1.0000
  H   H4721     1.0  0.77787  0.64835  0.62792  1.0000
  H   H4722     1.0  0.92093  0.72302  0.68645  1.0000
  C   C3926     1.0  0.96776  0.73442  0.77473  1.0000
  H   H4723     1.0  0.81775  0.76036  0.63332  1.0000
  H   H4724     1.0  0.64020  0.69208  0.48698  1.0000
  C   C3927     1.0  0.68772  0.67299  0.86975  1.0000
  H   H4725     1.0  0.69348  0.67429  0.83640  1.0000
  H   H4726     1.0  0.67786  0.67806  0.82505  1.0000
  C   C3928     1.0  0.73103  0.69103  0.86859  1.0000
  C   C3929     1.0  0.52190  0.76456  0.72290  1.0000
  C   C3930     1.0  0.85675  0.72814  0.65968  1.0000
  C   C3931     1.0  0.89838  0.69279  0.70736  1.0000
  C   C3932     1.0  0.78609  0.63354  0.60874  1.0000
  C   C3933     1.0  0.91449  0.71294  0.68767  1.0000
  C   C3934     1.0  0.92048  0.70019  0.71450  1.0000
  H   H4727     1.0  0.91571  0.69677  0.72814  1.0000
  C   C3935     1.0  0.67288  0.72138  0.48230  1.0000
  N   N262      1.0  0.64721  0.77060  0.75642  1.0000
  C   C3936     1.0  0.62619  0.71380  0.60471  1.0000
  H   H4728     1.0  0.65640  0.73282  0.57826  1.0000
  H   H4729     1.0  0.76533  0.76565  0.63849  1.0000
  H   H4730     1.0  0.50771  0.68682  0.70272  1.0000
  C   C3937     1.0  0.79936  0.63019  0.59509  1.0000
  C   C3938     1.0  0.78726  0.64506  0.61734  1.0000
  C   C3939     1.0  0.72225  0.70624  0.87270  1.0000
  C   C3940     1.0  0.63347  0.77516  0.74753  1.0000
  H   H4731     1.0  0.78370  0.60341  0.62876  1.0000
  H   H4732     1.0  0.82276  0.68265  0.52914  1.0000
  C   C3941     1.0  0.75876  0.63042  0.62764  1.0000
  C   C3942     1.0  0.61758  0.74372  0.60152  1.0000
  H   H4733     1.0  0.75329  0.64401  0.62490  1.0000
  H   H4734     1.0  0.80921  0.70738  0.95032  1.0000
  H   H4735     1.0  0.85359  0.58857  0.67889  1.0000
  C   C3943     1.0  0.75407  0.62436  0.51580  1.0000
  C   C3944     1.0  0.73230  0.60317  0.76129  1.0000
  N   N263      1.0  0.90694  0.70632  0.70522  1.0000
  C   C3945     1.0  0.89074  0.68506  0.72348  1.0000
  H   H4736     1.0  0.51577  0.72595  0.70708  1.0000
  H   H4737     1.0  0.63061  0.76402  0.74560  1.0000
  H   H4738     1.0  0.62951  0.59233  0.80751  1.0000
  H   H4739     1.0  0.76205  0.77708  0.91789  1.0000
  Fe  Fe530     1.0  0.72154  0.59763  0.81990  1.0000
  H   H4740     1.0  0.83265  0.60194  0.60747  1.0000
  N   N264      1.0  0.66868  0.67403  0.85162  1.0000
  H   H4741     1.0  0.52477  0.78206  0.59276  1.0000
  C   C3946     1.0  0.64491  0.60154  0.82584  1.0000
  H   H4742     1.0  0.59135  0.60006  0.79053  1.0000
  H   H4743     1.0  0.63102  0.76327  0.77999  1.0000
  S   S1062     1.0  0.56074  0.77271  0.58708  1.0000
  H   H4744     1.0  0.72888  0.78172  0.50633  1.0000
  C   C3947     1.0  0.80078  0.65284  0.61231  1.0000
  H   H4745     1.0  0.83783  0.75015  0.65504  1.0000
  C   C3948     1.0  0.63856  0.77015  0.85495  1.0000
  H   H4746     1.0  0.76040  0.69436  0.50687  1.0000
  H   H4747     1.0  0.75117  0.59307  0.50067  1.0000
  H   H4748     1.0  0.81680  0.62004  0.66627  1.0000
  C   C3949     1.0  0.74200  0.73973  0.51659  1.0000
  H   H4749     1.0  0.94541  0.74345  0.75342  1.0000
  C   C3950     1.0  0.61383  0.72783  0.60901  1.0000
  H   H4750     1.0  0.49747  0.76995  0.57171  1.0000
  C   C3951     1.0  0.64279  0.75809  0.77182  1.0000
  H   H4751     1.0  0.82378  0.65565  0.59465  1.0000
  H   H4752     1.0  0.88813  0.75613  0.53256  1.0000
  C   C3952     1.0  0.79920  0.58392  0.58226  1.0000
  H   H4753     1.0  0.75857  0.72851  0.93762  1.0000
  C   C3953     1.0  0.77787  0.75829  0.63650  1.0000
  H   H4754     1.0  0.77824  0.58229  0.79886  1.0000
  H   H4755     1.0  0.93061  0.71247  0.59839  1.0000
  H   H4756     1.0  0.79770  0.65017  0.84139  1.0000
  C   C3954     1.0  0.67161  0.65572  0.85410  1.0000
  H   H4757     1.0  0.87826  0.76755  0.61695  1.0000
  H   H4758     1.0  0.66341  0.65039  0.86574  1.0000
  H   H4759     1.0  0.78856  0.62182  0.80167  1.0000
  C   C3955     1.0  0.66667  0.60257  0.80096  1.0000
  C   C3956     1.0  0.75406  0.75122  0.58210  1.0000
  H   H4760     1.0  0.53675  0.77746  0.85141  1.0000
  H   H4761     1.0  0.56923  0.76374  0.81583  1.0000
  H   H4762     1.0  0.71422  0.69278  0.83663  1.0000
  C   C3957     1.0  0.64022  0.59832  0.80082  1.0000
  C   C3958     1.0  0.66670  0.70305  0.51485  1.0000
  C   C3959     1.0  0.80871  0.65332  0.83242  1.0000
  C   C3960     1.0  0.53263  0.75804  0.73381  1.0000
  C   C3961     1.0  0.79121  0.76485  0.63630  1.0000
  C   C3962     1.0  0.88273  0.67214  0.72587  1.0000
  C   C3963     1.0  0.89681  0.75431  0.63135  1.0000
  H   H4763     1.0  0.72088  0.74585  0.85262  1.0000
  S   S1063     1.0  0.67350  0.76083  0.56256  1.0000
  C   C3964     1.0  0.59222  0.77107  0.56765  1.0000
  C   C3965     1.0  0.55104  0.77689  0.71702  1.0000
  H   H4764     1.0  0.67901  0.73671  0.85981  1.0000
  C   C3966     1.0  0.89736  0.68690  0.69380  1.0000
  C   C3967     1.0  0.59566  0.70894  0.62755  1.0000
  H   H4765     1.0  0.66022  0.67773  0.48316  1.0000
  C   C3968     1.0  0.88515  0.75546  0.62210  1.0000
  H   H4766     1.0  0.73213  0.72295  0.95468  1.0000
  C   C3969     1.0  0.94537  0.72139  0.79282  1.0000
  N   N265      1.0  0.70149  0.73345  0.86823  1.0000
  H   H4767     1.0  0.74175  0.75632  0.57944  1.0000
  H   H4768     1.0  0.86867  0.73558  0.57525  1.0000
  H   H4769     1.0  0.72309  0.73746  0.87353  1.0000
  C   C3970     1.0  0.56597  0.58842  0.75524  1.0000
  H   H4770     1.0  0.85444  0.61590  0.66185  1.0000
  H   H4771     1.0  0.75547  0.59829  0.52563  1.0000
  H   H4772     1.0  0.78166  0.58601  0.70581  1.0000
  H   H4773     1.0  0.49597  0.75045  0.62283  1.0000
  C   C3971     1.0  0.73568  0.77902  0.92331  1.0000
  H   H4774     1.0  0.75486  0.67827  0.96139  1.0000
  H   H4775     1.0  0.51097  0.75962  0.72498  1.0000
  C   C3972     1.0  0.96988  0.75044  0.76519  1.0000
  H   H4776     1.0  0.89791  0.75350  0.57460  1.0000
  H   H4777     1.0  0.65397  0.60085  0.83323  1.0000
  H   H4778     1.0  0.72061  0.61539  0.48189  1.0000
  C   C3973     1.0  0.72852  0.76463  0.49221  1.0000
  C   C3974     1.0  0.58071  0.77712  0.58096  1.0000
  H   H4779     1.0  0.64546  0.77870  0.78671  1.0000
  H   H4780     1.0  0.61684  0.77027  0.55191  1.0000
  H   H4781     1.0  0.81486  0.61160  0.86116  1.0000
  H   H4782     1.0  0.76900  0.60251  0.78827  1.0000
  H   H4783     1.0  0.77417  0.68259  0.94773  1.0000
  H   H4784     1.0  0.66606  0.77053  0.73364  1.0000
  H   H4785     1.0  0.76815  0.71301  0.50148  1.0000
  C   C3975     1.0  0.51288  0.77923  0.59265  1.0000
  H   H4786     1.0  0.70785  0.75593  0.86901  1.0000
  H   H4787     1.0  0.69250  0.77864  0.68633  1.0000
  H   H4788     1.0  0.58129  0.76203  0.72657  1.0000
  H   H4789     1.0  0.56639  0.77531  0.84733  1.0000
  H   H4790     1.0  0.98647  0.73221  0.71681  1.0000
  C   C3976     1.0  0.52551  0.77710  0.70907  1.0000
  H   H4791     1.0  0.75630  0.70602  0.52195  1.0000
  H   H4792     1.0  0.55660  0.59993  0.75421  1.0000
  H   H4793     1.0  0.81601  0.78110  0.65418  1.0000
  C   C3977     1.0  0.66678  0.76781  0.47630  1.0000
  H   H4794     1.0  0.83601  0.59322  0.84417  1.0000
  C   C3978     1.0  0.73206  0.60754  0.47571  1.0000
  H   H4795     1.0  0.57667  0.78207  0.76725  1.0000
  H   H4796     1.0  0.63652  0.78133  0.84552  1.0000
  Fe  Fe531     1.0  0.94706  0.78219  0.65428  1.0000
  H   H4797     1.0  0.62189  0.78202  0.75457  1.0000
  H   H4798     1.0  0.73195  0.89118  0.24590  1.0000
  H   H4799     1.0  0.75077  0.90008  0.19339  1.0000
  H   H4800     1.0  0.71706  0.95719  0.13532  1.0000
  H   H4801     1.0  0.98220  0.82750  0.15917  1.0000
  H   H4802     1.0  0.72228  0.82886  0.12113  1.0000
  C   C3979     1.0  0.73025  0.87288  0.23384  1.0000
  H   H4803     1.0  0.83181  0.85791  0.24238  1.0000
  Fe  Fe532     1.0  0.91562  0.82518  0.18922  1.0000
  S   S1064     1.0  0.90482  0.85156  0.17763  1.0000
  H   H4804     1.0  0.55164  0.79441  0.27271  1.0000
  Fe  Fe533     1.0  0.80751  0.90609  0.19305  1.0000
  S   S1065     1.0  0.78452  0.92186  0.20547  1.0000
  S   S1066     1.0  0.80995  0.90094  0.16816  1.0000
  Fe  Fe534     1.0  0.82633  0.90283  0.21914  1.0000
  S   S1067     1.0  0.80498  0.91833  0.23400  1.0000
  S   S1068     1.0  0.85013  0.89067  0.22779  1.0000
  Fe  Fe535     1.0  0.78949  0.90375  0.22888  1.0000
  S   S1069     1.0  0.76867  0.89468  0.24882  1.0000
  Fe  Fe536     1.0  0.80200  0.93507  0.20936  1.0000
  S   S1070     1.0  0.79587  0.96316  0.20304  1.0000
  S   S1071     1.0  0.81124  0.88680  0.21612  1.0000
  S   S1072     1.0  0.82466  0.92072  0.19484  1.0000
  Fe  Fe537     1.0  0.70687  0.82681  0.03645  1.0000
  S   S1073     1.0  0.71920  0.80115  0.04772  1.0000
  S   S1074     1.0  0.70521  0.84976  0.04576  1.0000
  C   C3980     1.0  0.65822  0.83697  0.07717  1.0000
  H   H4805     1.0  0.73422  0.81023  0.13195  1.0000
  Fe  Fe538     1.0  0.69532  0.79435  0.04916  1.0000
  Fe  Fe539     1.0  0.72615  0.79616  0.02217  1.0000
  S   S1075     1.0  0.68247  0.82034  0.03905  1.0000
  Fe  Fe540     1.0  0.74588  0.89875  0.11561  1.0000
  S   S1076     1.0  0.76194  0.87293  0.11828  1.0000
  Fe  Fe541     1.0  0.71516  0.88637  0.13639  1.0000
  S   S1077     1.0  0.72846  0.85963  0.14118  1.0000
  S   S1078     1.0  0.68830  0.89709  0.14580  1.0000
  Fe  Fe542     1.0  0.74859  0.86951  0.14494  1.0000
  S   S1079     1.0  0.76114  0.85819  0.16652  1.0000
  Fe  Fe543     1.0  0.74055  0.86538  0.11404  1.0000
  S   S1080     1.0  0.74637  0.84626  0.09834  1.0000
  S   S1081     1.0  0.73411  0.89580  0.14266  1.0000
  S   S1082     1.0  0.72562  0.89156  0.10897  1.0000
  Fe  Fe544     1.0  0.61833  0.80132  0.19670  1.0000
  H   H4806     1.0  0.65717  0.79975  0.33933  1.0000
  C   C3981     1.0  0.80269  0.82266  0.26338  1.0000
  Fe  Fe545     1.0  0.63840  0.82798  0.18715  1.0000
  S   S1083     1.0  0.66302  0.81046  0.18165  1.0000
  S   S1084     1.0  0.63478  0.85520  0.18541  1.0000
  H   H4807     1.0  0.69618  0.79173  0.15255  1.0000
  H   H4808     1.0  0.49733  0.78836  0.28551  1.0000
  C   C3982     1.0  0.82853  0.97633  0.22110  1.0000
  H   H4809     1.0  0.80800  0.82170  0.21888  1.0000
  S   S1085     1.0  0.62575  0.81899  0.17276  1.0000
  S   S1086     1.0  0.62882  0.81201  0.21154  1.0000
  H   H4810     1.0  0.86551  0.81156  0.25531  1.0000
  C   C3983     1.0  0.73907  0.93095  0.16374  1.0000
  C   C3984     1.0  0.83228  0.82365  0.25366  1.0000
  Fe  Fe546     1.0  0.69296  0.81380  0.01392  1.0000
  C   C3985     1.0  0.76017  0.88671  0.07473  1.0000
  H   H4811     1.0  0.69049  0.83123  0.07661  1.0000
  Fe  Fe547     1.0  0.71407  0.80755  0.30242  1.0000
  H   H4812     1.0  0.68270  0.81503  0.13385  1.0000
  S   S1087     1.0  0.70392  0.80992  0.32889  1.0000
  Fe  Fe548     1.0  0.73965  0.81331  0.27001  1.0000
  S   S1088     1.0  0.72868  0.80020  0.25784  1.0000
  S   S1089     1.0  0.76248  0.82174  0.25336  1.0000
  Fe  Fe549     1.0  0.70424  0.81427  0.26981  1.0000
  S   S1090     1.0  0.68479  0.82777  0.25506  1.0000
  C   C3986     1.0  0.65354  0.84663  0.12946  1.0000
  S   S1091     1.0  0.71519  0.82894  0.28027  1.0000
  H   H4813     1.0  0.72397  0.79554  0.99101  1.0000
  H   H4814     1.0  0.73408  0.81142  0.10386  1.0000
  Fe  Fe550     1.0  0.64958  0.79997  0.16943  1.0000
  H   H4815     1.0  0.97887  0.81164  0.17761  1.0000
  N   N266      1.0  0.66624  0.82745  0.09121  1.0000
  H   H4816     1.0  0.66573  0.79940  0.31183  1.0000
  H   H4817     1.0  0.77661  0.96735  0.13340  1.0000
  H   H4818     1.0  0.51522  0.81481  0.23219  1.0000
  H   H4819     1.0  0.78048  0.92607  0.15861  1.0000
  H   H4820     1.0  0.86919  0.83107  0.25467  1.0000
  H   H4821     1.0  0.66468  0.84693  0.06906  1.0000
  C   C3987     1.0  0.75629  0.86584  0.03662  1.0000
  H   H4822     1.0  0.64637  0.84446  0.14215  1.0000
  H   H4823     1.0  0.98153  0.83926  0.21049  1.0000
  H   H4824     1.0  0.83042  0.79674  0.22365  1.0000
  H   H4825     1.0  0.66064  0.80454  0.09052  1.0000
  C   C3988     1.0  0.68657  0.79664  0.25090  1.0000
  C   C3989     1.0  0.67995  0.81372  0.24667  1.0000
  C   C3990     1.0  0.66943  0.81973  0.23552  1.0000
  C   C3991     1.0  0.66583  0.80882  0.22823  1.0000
  H   H4826     1.0  0.74510  0.90834  0.22019  1.0000
  C   C3992     1.0  0.67164  0.85258  0.09677  1.0000
  H   H4827     1.0  0.66406  0.83282  0.23247  1.0000
  H   H4828     1.0  0.65804  0.81370  0.21930  1.0000
  C   C3993     1.0  0.67367  0.88453  0.15402  1.0000
  C   C3994     1.0  0.65706  0.89244  0.15877  1.0000
  C   C3995     1.0  0.64509  0.88313  0.16749  1.0000
  C   C3996     1.0  0.64962  0.86582  0.17155  1.0000
  C   C3997     1.0  0.66608  0.85770  0.16595  1.0000
  C   C3998     1.0  0.67819  0.86712  0.15719  1.0000
  H   H4829     1.0  0.65351  0.90589  0.15622  1.0000
  H   H4830     1.0  0.63237  0.88943  0.17167  1.0000
  H   H4831     1.0  0.66964  0.84431  0.16913  1.0000
  H   H4832     1.0  0.69104  0.86097  0.15352  1.0000
  C   C3999     1.0  0.67835  0.81296  0.97830  1.0000
  C   C4000     1.0  0.76258  0.94952  0.16189  1.0000
  C   C4001     1.0  0.75016  0.93862  0.10910  1.0000
  C   C4002     1.0  0.69297  0.82123  0.13242  1.0000
  S   S1092     1.0  0.91884  0.81437  0.21545  1.0000
  H   H4833     1.0  0.72570  0.90570  0.04807  1.0000
  C   C4003     1.0  0.73817  0.96791  0.12170  1.0000
  C   C4004     1.0  0.74053  0.87819  0.20409  1.0000
  S   S1093     1.0  0.66063  0.79281  0.14500  1.0000
  H   H4834     1.0  0.72768  0.85853  0.19234  1.0000
  C   C4005     1.0  0.71657  0.84857  0.06053  1.0000
  C   C4006     1.0  0.71195  0.86107  0.06966  1.0000
  C   C4007     1.0  0.72092  0.86056  0.08133  1.0000
  C   C4008     1.0  0.73479  0.84769  0.08369  1.0000
  C   C4009     1.0  0.73955  0.83537  0.07437  1.0000
  C   C4010     1.0  0.73036  0.83566  0.06300  1.0000
  H   H4835     1.0  0.70144  0.87124  0.06762  1.0000
  H   H4836     1.0  0.71718  0.87017  0.08837  1.0000
  H   H4837     1.0  0.75041  0.82551  0.07595  1.0000
  H   H4838     1.0  0.73420  0.82614  0.05584  1.0000
  Fe  Fe551     1.0  0.94209  0.79768  0.20386  1.0000
  C   C4011     1.0  0.77385  0.97292  0.14441  1.0000
  C   C4012     1.0  0.90779  0.78702  0.11404  1.0000
  C   C4013     1.0  0.64172  0.80781  0.47163  1.0000
  C   C4014     1.0  0.79642  0.88898  0.16791  1.0000
  C   C4015     1.0  0.79253  0.88970  0.15291  1.0000
  C   C4016     1.0  0.78162  0.88034  0.15247  1.0000
  C   C4017     1.0  0.77514  0.86968  0.16689  1.0000
  C   C4018     1.0  0.77959  0.86848  0.18178  1.0000
  C   C4019     1.0  0.78983  0.87846  0.18239  1.0000
  H   H4839     1.0  0.79760  0.89783  0.14166  1.0000
  H   H4840     1.0  0.77831  0.88135  0.14091  1.0000
  H   H4841     1.0  0.77480  0.86018  0.19299  1.0000
  H   H4842     1.0  0.79274  0.87787  0.19403  1.0000
  H   H4843     1.0  0.91390  0.79887  0.13063  1.0000
  Fe  Fe552     1.0  0.65239  0.79356  0.20482  1.0000
  C   C4020     1.0  0.58894  0.78738  0.22680  1.0000
  H   H4844     1.0  0.73717  0.86422  0.02568  1.0000
  C   C4021     1.0  0.92351  0.79535  0.08630  1.0000
  H   H4845     1.0  0.76999  0.95879  0.18599  1.0000
  H   H4846     1.0  0.55896  0.81435  0.24738  1.0000
  H   H4847     1.0  0.71830  0.83174  0.23278  1.0000
  H   H4848     1.0  0.66452  0.80477  0.10975  1.0000
  H   H4849     1.0  0.82046  0.95377  0.22354  1.0000
  C   C4022     1.0  0.76694  0.87441  0.24998  1.0000
  C   C4023     1.0  0.77585  0.86601  0.23731  1.0000
  C   C4024     1.0  0.77429  0.84987  0.23842  1.0000
  C   C4025     1.0  0.76350  0.84222  0.25199  1.0000
  C   C4026     1.0  0.75429  0.85071  0.26450  1.0000
  C   C4027     1.0  0.75611  0.86676  0.26355  1.0000
  H   H4850     1.0  0.78371  0.87201  0.22655  1.0000
  H   H4851     1.0  0.78138  0.84336  0.22868  1.0000
  H   H4852     1.0  0.74607  0.84479  0.27510  1.0000
  H   H4853     1.0  0.74912  0.87326  0.27333  1.0000
  C   C4028     1.0  0.88985  0.86253  0.19162  1.0000
  C   C4029     1.0  0.89049  0.85878  0.20835  1.0000
  C   C4030     1.0  0.87845  0.86775  0.21934  1.0000
  C   C4031     1.0  0.86539  0.88003  0.21374  1.0000
  C   C4032     1.0  0.86467  0.88372  0.19704  1.0000
  C   C4033     1.0  0.87707  0.87520  0.18593  1.0000
  H   H4854     1.0  0.90051  0.84927  0.21275  1.0000
  H   H4855     1.0  0.87921  0.86503  0.23221  1.0000
  H   H4856     1.0  0.85468  0.89325  0.19262  1.0000
  H   H4857     1.0  0.87667  0.87827  0.17294  1.0000
  H   H4858     1.0  0.80067  0.95846  0.15762  1.0000
  H   H4859     1.0  0.88699  0.80148  0.14940  1.0000
  S   S1094     1.0  0.73978  0.79346  0.29328  1.0000
  C   C4034     1.0  0.67781  0.79612  0.98362  1.0000
  H   H4860     1.0  0.78283  0.98097  0.14218  1.0000
  C   C4035     1.0  0.67012  0.86319  0.10716  1.0000
  C   C4036     1.0  0.98026  0.79944  0.21199  1.0000
  C   C4037     1.0  0.70375  0.78887  0.11981  1.0000
  C   C4038     1.0  0.59319  0.79572  0.23634  1.0000
  C   C4039     1.0  0.52298  0.81025  0.24126  1.0000
  H   H4861     1.0  0.72068  0.95349  0.16627  1.0000
  H   H4862     1.0  0.50719  0.79449  0.25745  1.0000
  H   H4863     1.0  0.59799  0.80681  0.23051  1.0000
  Fe  Fe553     1.0  0.90555  0.79546  0.21462  1.0000
  H   H4864     1.0  0.77296  0.86991  0.04860  1.0000
  C   C4040     1.0  0.63872  0.80426  0.45791  1.0000
  S   S1095     1.0  0.88220  0.78942  0.23239  1.0000
  H   H4865     1.0  0.91431  0.79307  0.08068  1.0000
  C   C4041     1.0  0.97491  0.81664  0.21061  1.0000
  H   H4866     1.0  0.64500  0.84291  0.08170  1.0000
  H   H4867     1.0  0.74499  0.82777  0.21355  1.0000
  H   H4868     1.0  0.86369  0.83991  0.22575  1.0000
  H   H4869     1.0  0.96250  0.82277  0.20876  1.0000
  C   C4042     1.0  0.87879  0.78381  0.12260  1.0000
  S   S1096     1.0  0.75762  0.92046  0.10089  1.0000
  H   H4870     1.0  0.85886  0.82040  0.22800  1.0000
  H   H4871     1.0  0.85382  0.82248  0.27143  1.0000
  S   S1097     1.0  0.93990  0.81017  0.17766  1.0000
  H   H4872     1.0  0.93573  0.80049  0.10910  1.0000
  H   H4873     1.0  0.70540  0.80351  0.15994  1.0000
  H   H4874     1.0  0.74605  0.91844  0.07279  1.0000
  N   N267      1.0  0.66259  0.87523  0.21359  1.0000
  C   C4043     1.0  0.64808  0.88602  0.20687  1.0000
  C   C4044     1.0  0.66941  0.86097  0.20527  1.0000
  C   C4045     1.0  0.65637  0.86843  0.23147  1.0000
  C   C4046     1.0  0.67554  0.88485  0.21036  1.0000
  C   C4047     1.0  0.68272  0.89205  0.19383  1.0000
  C   C4048     1.0  0.68147  0.88731  0.22324  1.0000
  C   C4049     1.0  0.69501  0.90110  0.19037  1.0000
  C   C4050     1.0  0.69371  0.89651  0.21963  1.0000
  C   C4051     1.0  0.70046  0.90338  0.20325  1.0000
  H   H4875     1.0  0.63826  0.87906  0.20858  1.0000
  H   H4876     1.0  0.64240  0.89678  0.21295  1.0000
  H   H4877     1.0  0.65149  0.89116  0.19335  1.0000
  H   H4878     1.0  0.67384  0.86499  0.19170  1.0000
  H   H4879     1.0  0.65982  0.85378  0.20686  1.0000
  H   H4880     1.0  0.68007  0.85227  0.21026  1.0000
  H   H4881     1.0  0.65052  0.87850  0.23848  1.0000
  H   H4882     1.0  0.64668  0.86128  0.23335  1.0000
  H   H4883     1.0  0.66652  0.85967  0.23729  1.0000
  H   H4884     1.0  0.67885  0.89082  0.18334  1.0000
  H   H4885     1.0  0.67685  0.88230  0.23619  1.0000
  H   H4886     1.0  0.70020  0.90647  0.17757  1.0000
  H   H4887     1.0  0.69799  0.89838  0.22961  1.0000
  H   H4888     1.0  0.70991  0.91053  0.20053  1.0000
  N   N268      1.0  0.77459  0.95989  0.15981  1.0000
  H   H4889     1.0  0.72864  0.83919  0.24358  1.0000
  C   C4052     1.0  0.72619  0.80302  0.10527  1.0000
  H   H4890     1.0  0.59442  0.79638  0.26082  1.0000
  C   C4053     1.0  0.73496  0.94086  0.12052  1.0000
  H   H4891     1.0  0.72534  0.86555  0.24570  1.0000
  H   H4892     1.0  0.83452  0.85075  0.26357  1.0000
  C   C4054     1.0  0.85341  0.83309  0.23043  1.0000
  H   H4893     1.0  0.73070  0.90793  0.07289  1.0000
  C   C4055     1.0  0.65693  0.79745  0.29194  1.0000
  C   C4056     1.0  0.72896  0.95548  0.12668  1.0000
  C   C4057     1.0  0.73341  0.86769  0.21869  1.0000
  H   H4894     1.0  0.76248  0.89332  0.08310  1.0000
  H   H4895     1.0  0.68646  0.80086  0.36272  1.0000
  H   H4896     1.0  0.70900  0.86405  0.20736  1.0000
  C   C4058     1.0  0.73401  0.88765  0.23418  1.0000
  H   H4897     1.0  0.71717  0.84285  0.20520  1.0000
  H   H4898     1.0  0.72761  0.93149  0.12437  1.0000
  H   H4899     1.0  0.81132  0.84470  0.25848  1.0000
  H   H4900     1.0  0.77393  0.91230  0.05615  1.0000
  S   S1098     1.0  0.71635  0.82261  0.01045  1.0000
  S   S1099     1.0  0.68161  0.82423  0.99118  1.0000
  H   H4901     1.0  0.75350  0.84500  0.20067  1.0000
  C   C4059     1.0  0.74465  0.89269  0.20463  1.0000
  C   C4060     1.0  0.74205  0.91232  0.06510  1.0000
  C   C4061     1.0  0.74144  0.89738  0.21966  1.0000
  C   C4062     1.0  0.74097  0.87137  0.03208  1.0000
  H   H4902     1.0  0.79672  0.94495  0.14733  1.0000
  C   C4063     1.0  0.75595  0.92352  0.16149  1.0000
  C   C4064     1.0  0.76987  0.90529  0.04933  1.0000
  H   H4903     1.0  0.71819  0.88979  0.03295  1.0000
  C   C4065     1.0  0.72062  0.85447  0.20517  1.0000
  H   H4904     1.0  0.67586  0.87386  0.10248  1.0000
  C   C4066     1.0  0.62360  0.80063  0.45876  1.0000
  H   H4905     1.0  0.84390  0.83920  0.22283  1.0000
  H   H4906     1.0  0.73895  0.79767  0.08124  1.0000
  H   H4907     1.0  0.87492  0.96908  0.19820  1.0000
  N   N269      1.0  0.84373  0.85102  0.17674  1.0000
  C   C4067     1.0  0.83396  0.85427  0.16393  1.0000
  C   C4068     1.0  0.83868  0.86558  0.18455  1.0000
  C   C4069     1.0  0.86155  0.84966  0.16820  1.0000
  C   C4070     1.0  0.84035  0.83599  0.18950  1.0000
  C   C4071     1.0  0.85293  0.82144  0.19272  1.0000
  C   C4072     1.0  0.82402  0.83566  0.19928  1.0000
  C   C4073     1.0  0.64668  0.79078  0.28670  1.0000
  C   C4074     1.0  0.82055  0.82168  0.21151  1.0000
  S   S1100     1.0  0.70108  0.79412  0.29271  1.0000
  H   H4908     1.0  0.82033  0.85639  0.16918  1.0000
  H   H4909     1.0  0.83598  0.86568  0.15424  1.0000
  H   H4910     1.0  0.83732  0.84363  0.15771  1.0000
  H   H4911     1.0  0.82502  0.86893  0.18922  1.0000
  H   H4912     1.0  0.84198  0.87696  0.17558  1.0000
  H   H4913     1.0  0.84475  0.86320  0.19512  1.0000
  H   H4914     1.0  0.86608  0.83946  0.16130  1.0000
  H   H4915     1.0  0.86372  0.86126  0.15892  1.0000
  H   H4916     1.0  0.86963  0.84752  0.17711  1.0000
  H   H4917     1.0  0.86571  0.82046  0.18602  1.0000
  H   H4918     1.0  0.81377  0.84621  0.19750  1.0000
  H   H4919     1.0  0.70904  0.85135  0.23841  1.0000
  H   H4920     1.0  0.65834  0.82883  0.06901  1.0000
  H   H4921     1.0  0.74053  0.96968  0.16447  1.0000
  C   C4075     1.0  0.84055  0.85013  0.25043  1.0000
  C   C4076     1.0  0.76760  0.93255  0.16066  1.0000
  H   H4922     1.0  0.65970  0.86862  0.13141  1.0000
  H   H4923     1.0  0.73865  0.92227  0.05440  1.0000
  C   C4077     1.0  0.73025  0.88581  0.03624  1.0000
  H   H4924     1.0  0.67849  0.85557  0.08411  1.0000
  S   S1101     1.0  0.90084  0.80744  0.18924  1.0000
  H   H4925     1.0  0.93575  0.79360  0.07737  1.0000
  N   N270      1.0  0.84600  0.83268  0.24826  1.0000
  C   C4078     1.0  0.75023  0.88937  0.05006  1.0000
  C   C4079     1.0  0.54317  0.79846  0.26441  1.0000
  C   C4080     1.0  0.75934  0.95113  0.10393  1.0000
  C   C4081     1.0  0.79210  0.95038  0.15857  1.0000
  H   H4926     1.0  0.69085  0.81477  0.09467  1.0000
  H   H4927     1.0  0.64889  0.82560  0.12467  1.0000
  H   H4928     1.0  0.76007  0.91079  0.15993  1.0000
  C   C4082     1.0  0.66432  0.83848  0.10251  1.0000
  H   H4929     1.0  0.74349  0.87499  0.19217  1.0000
  C   C4083     1.0  0.76096  0.87474  0.04535  1.0000
  H   H4930     1.0  0.77106  0.94953  0.09502  1.0000
  H   H4931     1.0  0.75468  0.83864  0.22200  1.0000
  H   H4932     1.0  0.78080  0.89543  0.04566  1.0000
  H   H4933     1.0  0.68611  0.81230  0.07653  1.0000
  H   H4934     1.0  0.76685  0.91398  0.03775  1.0000
  N   N271      1.0  0.70900  0.80911  0.13319  1.0000
  C   C4084     1.0  0.70723  0.79730  0.14957  1.0000
  C   C4085     1.0  0.72160  0.81847  0.13227  1.0000
  H   H4935     1.0  0.50707  0.79676  0.29641  1.0000
  C   C4086     1.0  0.71328  0.80015  0.11956  1.0000
  H   H4936     1.0  0.77178  0.87726  0.07194  1.0000
  H   H4937     1.0  0.79347  0.94018  0.16970  1.0000
  C   C4087     1.0  0.68417  0.82120  0.08452  1.0000
  C   C4088     1.0  0.74527  0.95666  0.16423  1.0000
  H   H4938     1.0  0.54119  0.82464  0.22685  1.0000
  Fe  Fe554     1.0  0.92517  0.79138  0.18023  1.0000
  H   H4939     1.0  0.62740  0.79863  0.34425  1.0000
  H   H4940     1.0  0.71174  0.79049  0.98037  1.0000
  C   C4089     1.0  0.77027  0.96811  0.17403  1.0000
  H   H4941     1.0  0.71856  0.82440  0.14306  1.0000
  H   H4942     1.0  0.79654  0.79905  0.26704  1.0000
  H   H4943     1.0  0.89290  0.94169  0.19691  1.0000
  H   H4944     1.0  0.68915  0.82837  0.14241  1.0000
  C   C4090     1.0  0.66105  0.86023  0.12346  1.0000
  H   H4945     1.0  0.76446  0.85442  0.03359  1.0000
  H   H4946     1.0  0.73018  0.92408  0.16375  1.0000
  N   N272      1.0  0.75535  0.89834  0.05964  1.0000
  C   C4091     1.0  0.65874  0.81270  0.09930  1.0000
  H   H4947     1.0  0.75026  0.87980  0.08185  1.0000
  N   N273      1.0  0.86809  0.93769  0.20179  1.0000
  C   C4092     1.0  0.87299  0.92483  0.19171  1.0000
  C   C4093     1.0  0.88302  0.93746  0.20752  1.0000
  C   C4094     1.0  0.85524  0.93288  0.21664  1.0000
  C   C4095     1.0  0.86115  0.95417  0.19212  1.0000
  H   H4948     1.0  0.64841  0.80372  0.44672  1.0000
  C   C4096     1.0  0.84846  0.95598  0.18367  1.0000
  H   H4949     1.0  0.69376  0.83035  0.12031  1.0000
  C   C4097     1.0  0.84124  0.97147  0.17504  1.0000
  H   H4950     1.0  0.86437  0.79141  0.14511  1.0000
  H   H4951     1.0  0.88165  0.92858  0.17973  1.0000
  H   H4952     1.0  0.87922  0.91256  0.19836  1.0000
  H   H4953     1.0  0.86216  0.92229  0.18889  1.0000
  H   H4954     1.0  0.87991  0.94538  0.21675  1.0000
  H   H4955     1.0  0.84824  0.79960  0.25007  1.0000
  H   H4956     1.0  0.88850  0.92473  0.21394  1.0000
  H   H4957     1.0  0.85102  0.94227  0.22450  1.0000
  H   H4958     1.0  0.84406  0.93164  0.21332  1.0000
  H   H4959     1.0  0.85998  0.92071  0.22452  1.0000
  H   H4960     1.0  0.83732  0.97047  0.22901  1.0000
  H   H4961     1.0  0.84355  0.94555  0.18412  1.0000
  H   H4962     1.0  0.64506  0.81632  0.10393  1.0000
  C   C4098     1.0  0.83568  0.80642  0.25385  1.0000
  C   C4099     1.0  0.71945  0.78428  0.09276  1.0000
  C   C4100     1.0  0.72116  0.84325  0.23387  1.0000
  C   C4101     1.0  0.74656  0.84031  0.21332  1.0000
  H   H4963     1.0  0.82588  0.78444  0.25886  1.0000
  H   H4964     1.0  0.62159  0.79732  0.44826  1.0000
  H   H4965     1.0  0.77949  0.97554  0.17302  1.0000
  H   H4966     1.0  0.71846  0.78699  0.15004  1.0000
  H   H4967     1.0  0.85121  0.85636  0.24695  1.0000
  C   C4102     1.0  0.85912  0.82408  0.25786  1.0000
  C   C4103     1.0  0.98188  0.79131  0.15676  1.0000
  C   C4104     1.0  0.73472  0.89476  0.04509  1.0000
  C   C4105     1.0  0.65507  0.83587  0.11920  1.0000
  C   C4106     1.0  0.75342  0.96571  0.11029  1.0000
  C   C4107     1.0  0.70146  0.79054  0.34178  1.0000
  N   N274      1.0  0.73038  0.85174  0.21789  1.0000
  C   C4108     1.0  0.81529  0.83159  0.25844  1.0000
  C   C4109     1.0  0.84931  0.80752  0.20495  1.0000
  S   S1102     1.0  0.59386  0.79333  0.20514  1.0000
  C   C4110     1.0  0.82295  0.79764  0.25875  1.0000
  C   C4111     1.0  0.81913  0.96686  0.21791  1.0000
  C   C4112     1.0  0.88892  0.79640  0.13860  1.0000
  C   C4113     1.0  0.80787  0.97445  0.20754  1.0000
  C   C4114     1.0  0.73373  0.94745  0.16523  1.0000
  C   C4115     1.0  0.53756  0.81585  0.23824  1.0000
  C   C4116     1.0  0.54756  0.81003  0.24983  1.0000
  H   H4968     1.0  0.91970  0.80861  0.08730  1.0000
  C   C4117     1.0  0.83316  0.80761  0.21426  1.0000
  C   C4118     1.0  0.87619  0.79072  0.13623  1.0000
  H   H4969     1.0  0.83114  0.97260  0.16918  1.0000
  C   C4119     1.0  0.86594  0.96896  0.19160  1.0000
  H   H4970     1.0  0.67900  0.78968  0.99611  1.0000
  C   C4120     1.0  0.90448  0.79473  0.12766  1.0000
  C   C4121     1.0  0.80646  0.80578  0.26343  1.0000
  H   H4971     1.0  0.74798  0.80621  0.97763  1.0000
  H   H4972     1.0  0.78984  0.82889  0.26719  1.0000
  H   H4973     1.0  0.59981  0.79727  0.47403  1.0000
  C   C4122     1.0  0.52854  0.79223  0.26774  1.0000
  S   S1103     1.0  0.70337  0.78701  0.02447  1.0000
  C   C4123     1.0  0.63152  0.78494  0.34834  1.0000
  C   C4124     1.0  0.67230  0.79174  0.23249  1.0000
  C   C4125     1.0  0.66028  0.78591  0.34248  1.0000
  C   C4126     1.0  0.51848  0.79864  0.25578  1.0000
  H   H4974     1.0  0.85916  0.79660  0.20732  1.0000
  C   C4127     1.0  0.59098  0.78992  0.25352  1.0000
  H   H4975     1.0  0.69360  0.78620  0.13005  1.0000
  H   H4976     1.0  0.65396  0.80987  0.47023  1.0000
  H   H4977     1.0  0.69468  0.79187  0.25959  1.0000
  H   H4978     1.0  0.64634  0.79372  0.27366  1.0000
  H   H4979     1.0  0.75806  0.97704  0.17480  1.0000
  C   C4128     1.0  0.61138  0.80052  0.47334  1.0000
  H   H4980     1.0  0.95021  0.78405  0.10048  1.0000
  H   H4981     1.0  0.66447  0.80559  0.28294  1.0000
  C   C4129     1.0  0.69200  0.78962  0.35805  1.0000
  C   C4130     1.0  0.65755  0.79372  0.30869  1.0000
  C   C4131     1.0  0.50734  0.78535  0.29244  1.0000
  C   C4132     1.0  0.97614  0.78381  0.14754  1.0000
  C   C4133     1.0  0.72475  0.79032  0.98027  1.0000
  H   H4982     1.0  0.53662  0.78417  0.29862  1.0000
  C   C4134     1.0  0.68261  0.78561  0.24391  1.0000
  C   C4135     1.0  0.72917  0.79515  0.09212  1.0000
  H   H4983     1.0  0.76131  0.98132  0.14485  1.0000
  S   S1104     1.0  0.96777  0.78726  0.20966  1.0000
  C   C4136     1.0  0.98572  0.82596  0.21153  1.0000
  H   H4984     1.0  0.97529  0.79118  0.16946  1.0000
  H   H4985     1.0  0.76056  0.97527  0.10626  1.0000
  C   C4137     1.0  0.98851  0.81773  0.16836  1.0000
  N   N275      1.0  0.92437  0.78414  0.10273  1.0000
  C   C4138     1.0  0.64790  0.78300  0.32077  1.0000
  C   C4139     1.0  0.93775  0.78721  0.10870  1.0000
  C   C4140     1.0  0.98465  0.78266  0.13143  1.0000
  H   H4986     1.0  0.66034  0.78227  0.35595  1.0000
  S   S1105     1.0  0.67114  0.78929  0.52813  1.0000
  H   H4987     1.0  0.68438  0.80057  0.60890  1.0000
  H   H4988     1.0  0.72457  0.96287  0.76604  1.0000
  N   N276      1.0  0.83449  0.85523  0.60167  1.0000
  H   H4989     1.0  0.81018  0.85891  0.58484  1.0000
  H   H4990     1.0  0.70721  0.94448  0.76499  1.0000
  H   H4991     1.0  0.67485  0.85427  0.72641  1.0000
  H   H4992     1.0  0.81467  0.87137  0.61500  1.0000
  C   C4141     1.0  0.61880  0.82521  0.50719  1.0000
  H   H4993     1.0  0.75745  0.78794  0.96965  1.0000
  H   H4994     1.0  0.83186  0.88070  0.60321  1.0000
  C   C4142     1.0  0.74859  0.90935  0.65166  1.0000
  H   H4995     1.0  0.65853  0.82376  0.73802  1.0000
  H   H4996     1.0  0.65598  0.82686  0.76652  1.0000
  C   C4143     1.0  0.71379  0.86121  0.71822  1.0000
  S   S1106     1.0  0.57945  0.81066  0.74071  1.0000
  C   C4144     1.0  0.67652  0.82121  0.96211  1.0000
  C   C4145     1.0  0.84542  0.85000  0.61378  1.0000
  C   C4146     1.0  0.60417  0.80651  0.77591  1.0000
  S   S1107     1.0  0.53938  0.80329  0.66030  1.0000
  H   H4997     1.0  0.85401  0.86480  0.58262  1.0000
  H   H4998     1.0  0.56254  0.79717  0.83908  1.0000
  C   C4147     1.0  0.83423  0.79557  0.67630  1.0000
  Fe  Fe555     1.0  0.68044  0.92185  0.76707  1.0000
  S   S1108     1.0  0.70762  0.90984  0.76282  1.0000
  S   S1109     1.0  0.67101  0.94745  0.77358  1.0000
  Fe  Fe556     1.0  0.67080  0.89119  0.76247  1.0000
  S   S1110     1.0  0.69743  0.87736  0.75811  1.0000
  S   S1111     1.0  0.65244  0.87559  0.76428  1.0000
  Fe  Fe557     1.0  0.69924  0.88693  0.77921  1.0000
  S   S1112     1.0  0.71314  0.86981  0.79841  1.0000
  Fe  Fe558     1.0  0.70283  0.90159  0.74233  1.0000
  S   S1113     1.0  0.71828  0.90475  0.71634  1.0000
  S   S1114     1.0  0.67226  0.89921  0.78483  1.0000
  S   S1115     1.0  0.67602  0.91510  0.74523  1.0000
  Fe  Fe559     1.0  0.67900  0.82177  0.88410  1.0000
  S   S1116     1.0  0.65735  0.81033  0.89918  1.0000
  S   S1117     1.0  0.67398  0.84921  0.87247  1.0000
  C   C4148     1.0  0.67983  0.90029  0.67836  1.0000
  H   H4999     1.0  0.68388  0.88301  0.66292  1.0000
  H   H5000     1.0  0.79458  0.81343  0.60908  1.0000
  C   C4149     1.0  0.72837  0.87517  0.65120  1.0000
  C   C4150     1.0  0.55986  0.81969  0.79044  1.0000
  C   C4151     1.0  0.65442  0.81548  0.76455  1.0000
  S   S1118     1.0  0.68852  0.80378  0.86740  1.0000
  S   S1119     1.0  0.69590  0.80752  0.90160  1.0000
  Fe  Fe560     1.0  0.73403  0.80401  0.61828  1.0000
  S   S1120     1.0  0.73883  0.79424  0.64407  1.0000
  C   C4152     1.0  0.85247  0.95617  0.70647  1.0000
  Fe  Fe561     1.0  0.75023  0.83333  0.61258  1.0000
  S   S1121     1.0  0.75591  0.82592  0.63774  1.0000
  S   S1122     1.0  0.75727  0.85626  0.59462  1.0000
  Fe  Fe562     1.0  0.76383  0.80032  0.63282  1.0000
  H   H5001     1.0  0.97349  0.83013  0.62211  1.0000
  Fe  Fe563     1.0  0.73040  0.82071  0.64658  1.0000
  S   S1123     1.0  0.71358  0.82990  0.66888  1.0000
  S   S1124     1.0  0.76007  0.80787  0.60674  1.0000
  S   S1125     1.0  0.72371  0.83030  0.62171  1.0000
  Fe  Fe564     1.0  0.60909  0.82745  0.68243  1.0000
  S   S1126     1.0  0.61110  0.80375  0.70157  1.0000
  S   S1127     1.0  0.60540  0.82443  0.65846  1.0000
  Fe  Fe565     1.0  0.62069  0.84511  0.70288  1.0000
  S   S1128     1.0  0.62344  0.82236  0.72328  1.0000
  S   S1129     1.0  0.62998  0.86770  0.70248  1.0000
  Fe  Fe566     1.0  0.63484  0.80855  0.70291  1.0000
  H   H5002     1.0  0.49172  0.81934  0.58769  1.0000
  Fe  Fe567     1.0  0.59921  0.82009  0.71981  1.0000
  C   C4153     1.0  0.56113  0.80841  0.80553  1.0000
  S   S1130     1.0  0.63389  0.83131  0.68252  1.0000
  S   S1131     1.0  0.59530  0.84385  0.70065  1.0000
  Fe  Fe568     1.0  0.81224  0.91895  0.65405  1.0000
  S   S1132     1.0  0.82560  0.89549  0.66873  1.0000
  S   S1133     1.0  0.80497  0.94466  0.65965  1.0000
  Fe  Fe569     1.0  0.80266  0.90003  0.63371  1.0000
  S   S1134     1.0  0.81481  0.87525  0.64692  1.0000
  S   S1135     1.0  0.78991  0.90513  0.61263  1.0000
  Fe  Fe570     1.0  0.80373  0.88520  0.67007  1.0000
  S   S1136     1.0  0.79204  0.86868  0.69321  1.0000
  Fe  Fe571     1.0  0.83554  0.88764  0.64424  1.0000
  S   S1137     1.0  0.86112  0.87423  0.63338  1.0000
  S   S1138     1.0  0.78968  0.90903  0.65691  1.0000
  S   S1139     1.0  0.82411  0.91205  0.62938  1.0000
  H   H5003     1.0  0.81484  0.84366  0.67221  1.0000
  S   S1140     1.0  0.63125  0.79161  0.56243  1.0000
  C   C4154     1.0  0.65386  0.79901  0.74600  1.0000
  C   C4155     1.0  0.65999  0.80316  0.62570  1.0000
  S   S1141     1.0  0.88679  0.80634  0.68061  1.0000
  H   H5004     1.0  0.67693  0.91447  0.69649  1.0000
  H   H5005     1.0  0.64943  0.80411  0.79052  1.0000
  C   C4156     1.0  0.98268  0.80809  0.67373  1.0000
  C   C4157     1.0  0.62944  0.80798  0.48667  1.0000
  H   H5006     1.0  0.69533  0.85908  0.68220  1.0000
  C   C4158     1.0  0.71398  0.78501  0.56207  1.0000
  H   H5007     1.0  0.64409  0.81741  0.65265  1.0000
  C   C4159     1.0  0.72592  0.79643  0.57814  1.0000
  H   H5008     1.0  0.71513  0.84279  0.69694  1.0000
  C   C4160     1.0  0.98188  0.79554  0.65189  1.0000
  C   C4161     1.0  0.80762  0.81370  0.67272  1.0000
  H   H5009     1.0  0.69022  0.84497  0.73887  1.0000
  C   C4162     1.0  0.68760  0.88861  0.70488  1.0000
  H   H5010     1.0  0.79799  0.82475  0.67413  1.0000
  C   C4163     1.0  0.72342  0.86975  0.63975  1.0000
  H   H5011     1.0  0.81017  0.83206  0.71014  1.0000
  C   C4164     1.0  0.86899  0.85576  0.64656  1.0000
  C   C4165     1.0  0.88190  0.84363  0.63993  1.0000
  C   C4166     1.0  0.88781  0.82852  0.65030  1.0000
  C   C4167     1.0  0.88092  0.82560  0.66735  1.0000
  C   C4168     1.0  0.86837  0.83797  0.67398  1.0000
  C   C4169     1.0  0.86231  0.85293  0.66361  1.0000
  H   H5012     1.0  0.88721  0.84584  0.62675  1.0000
  H   H5013     1.0  0.89754  0.81908  0.64510  1.0000
  H   H5014     1.0  0.86336  0.83598  0.68720  1.0000
  H   H5015     1.0  0.85259  0.86236  0.66884  1.0000
  C   C4170     1.0  0.76687  0.86896  0.60035  1.0000
  C   C4171     1.0  0.76907  0.88401  0.58939  1.0000
  C   C4172     1.0  0.77611  0.89487  0.59345  1.0000
  C   C4173     1.0  0.78134  0.89071  0.60839  1.0000
  C   C4174     1.0  0.77959  0.87546  0.61929  1.0000
  C   C4175     1.0  0.77225  0.86464  0.61532  1.0000
  H   H5016     1.0  0.76503  0.88744  0.57780  1.0000
  H   H5017     1.0  0.77747  0.90659  0.58493  1.0000
  H   H5018     1.0  0.78383  0.87204  0.63075  1.0000
  H   H5019     1.0  0.77089  0.85296  0.62374  1.0000
  C   C4176     1.0  0.69858  0.81794  0.67881  1.0000
  C   C4177     1.0  0.68291  0.82546  0.68688  1.0000
  C   C4178     1.0  0.67081  0.81612  0.69489  1.0000
  C   C4179     1.0  0.67412  0.79934  0.69441  1.0000
  C   C4180     1.0  0.68986  0.79166  0.68662  1.0000
  C   C4181     1.0  0.70212  0.80098  0.67884  1.0000
  H   H5020     1.0  0.67985  0.83861  0.68662  1.0000
  H   H5021     1.0  0.65881  0.82205  0.70124  1.0000
  C   C4182     1.0  0.67599  0.81558  0.63650  1.0000
  H   H5022     1.0  0.71431  0.79497  0.67304  1.0000
  H   H5023     1.0  0.73037  0.80213  0.55139  1.0000
  C   C4183     1.0  0.82187  0.80997  0.67959  1.0000
  S   S1142     1.0  0.65805  0.78859  0.70238  1.0000
  H   H5024     1.0  0.72116  0.88781  0.67939  1.0000
  C   C4184     1.0  0.59727  0.81252  0.76183  1.0000
  C   C4185     1.0  0.64891  0.80324  0.59738  1.0000
  H   H5025     1.0  0.71031  0.81778  0.96087  1.0000
  H   H5026     1.0  0.59928  0.82420  0.75362  1.0000
  H   H5027     1.0  0.61189  0.81332  0.77823  1.0000
  H   H5028     1.0  0.83750  0.80220  0.70566  1.0000
  C   C4186     1.0  0.70513  0.84212  0.70844  1.0000
  H   H5029     1.0  0.79247  0.83983  0.58814  1.0000
  S   S1143     1.0  0.92326  0.78512  0.64603  1.0000
  H   H5030     1.0  0.79900  0.97608  0.66764  1.0000
  C   C4187     1.0  0.81174  0.84745  0.59406  1.0000
  H   H5031     1.0  0.82079  0.92622  0.69041  1.0000
  H   H5032     1.0  0.74855  0.86968  0.67302  1.0000
  H   H5033     1.0  0.70772  0.79416  0.95482  1.0000
  H   H5034     1.0  0.80112  0.96623  0.72738  1.0000
  H   H5035     1.0  0.76450  0.87697  0.65624  1.0000
  H   H5036     1.0  0.84097  0.93846  0.69496  1.0000
  H   H5037     1.0  0.81367  0.95437  0.62339  1.0000
  C   C4188     1.0  0.67448  0.81267  0.95120  1.0000
  H   H5038     1.0  0.83809  0.86147  0.57495  1.0000
  H   H5039     1.0  0.53265  0.79903  0.84097  1.0000
  H   H5040     1.0  0.75835  0.88464  0.67494  1.0000
  H   H5041     1.0  0.67319  0.81915  0.93874  1.0000
  C   C4189     1.0  0.81408  0.81760  0.61767  1.0000
  H   H5042     1.0  0.71025  0.83169  0.71795  1.0000
  C   C4190     1.0  0.73954  0.89536  0.71363  1.0000
  C   C4191     1.0  0.74502  0.87851  0.72043  1.0000
  C   C4192     1.0  0.76149  0.87034  0.71476  1.0000
  C   C4193     1.0  0.77260  0.87923  0.70285  1.0000
  C   C4194     1.0  0.76753  0.89641  0.69760  1.0000
  C   C4195     1.0  0.75092  0.90436  0.70251  1.0000
  H   H5043     1.0  0.73645  0.87161  0.72951  1.0000
  H   H5044     1.0  0.76547  0.85711  0.71924  1.0000
  H   H5045     1.0  0.77630  0.90357  0.68953  1.0000
  H   H5046     1.0  0.74684  0.91749  0.69753  1.0000
  C   C4196     1.0  0.64620  0.87381  0.74692  1.0000
  C   C4197     1.0  0.63825  0.86093  0.74867  1.0000
  C   C4198     1.0  0.63342  0.85880  0.73514  1.0000
  C   C4199     1.0  0.63633  0.86967  0.71970  1.0000
  C   C4200     1.0  0.64425  0.88260  0.71793  1.0000
  C   C4201     1.0  0.64918  0.88467  0.73146  1.0000
  H   H5047     1.0  0.63570  0.85259  0.76056  1.0000
  H   H5048     1.0  0.62711  0.84897  0.73678  1.0000
  H   H5049     1.0  0.64646  0.89114  0.70605  1.0000
  H   H5050     1.0  0.65508  0.89479  0.72999  1.0000
  C   C4202     1.0  0.70187  0.86411  0.81882  1.0000
  C   C4203     1.0  0.70862  0.84962  0.82932  1.0000
  C   C4204     1.0  0.69995  0.84476  0.84569  1.0000
  C   C4205     1.0  0.68466  0.85460  0.85178  1.0000
  C   C4206     1.0  0.67791  0.86913  0.84131  1.0000
  C   C4207     1.0  0.68641  0.87380  0.82482  1.0000
  H   H5051     1.0  0.72059  0.84210  0.82478  1.0000
  H   H5052     1.0  0.70534  0.83364  0.85375  1.0000
  H   H5053     1.0  0.66611  0.87683  0.84600  1.0000
  H   H5054     1.0  0.68111  0.88500  0.81690  1.0000
  C   C4208     1.0  0.55789  0.80920  0.65919  1.0000
  C   C4209     1.0  0.57296  0.80344  0.64881  1.0000
  C   C4210     1.0  0.58749  0.80819  0.64864  1.0000
  C   C4211     1.0  0.58713  0.81832  0.65916  1.0000
  C   C4212     1.0  0.57211  0.82388  0.66967  1.0000
  C   C4213     1.0  0.55750  0.81960  0.66943  1.0000
  C   C4214     1.0  0.73257  0.89207  0.61808  1.0000
  H   H5055     1.0  0.59905  0.80397  0.64038  1.0000
  H   H5056     1.0  0.57166  0.83195  0.67757  1.0000
  H   H5057     1.0  0.54581  0.82435  0.67723  1.0000
  Fe  Fe572     1.0  0.66775  0.79147  0.88313  1.0000
  H   H5058     1.0  0.50211  0.81016  0.56056  1.0000
  C   C4215     1.0  0.74948  0.80062  0.96687  1.0000
  C   C4216     1.0  0.49964  0.80761  0.59325  1.0000
  H   H5059     1.0  0.65911  0.80600  0.49556  1.0000
  H   H5060     1.0  0.61953  0.80491  0.82558  1.0000
  C   C4217     1.0  0.67657  0.97635  0.77719  1.0000
  C   C4218     1.0  0.58439  0.78887  0.76960  1.0000
  H   H5061     1.0  0.73352  0.80443  0.57856  1.0000
  C   C4219     1.0  0.54075  0.80594  0.78634  1.0000
  C   C4220     1.0  0.83208  0.78534  0.66722  1.0000
  Fe  Fe573     1.0  0.67518  0.79430  0.91530  1.0000
  C   C4221     1.0  0.72646  0.89874  0.67213  1.0000
  C   C4222     1.0  0.83826  0.81445  0.69704  1.0000
  H   H5062     1.0  0.60393  0.79909  0.58915  1.0000
  H   H5063     1.0  0.73457  0.89830  0.60509  1.0000
  C   C4223     1.0  0.72559  0.87814  0.62322  1.0000
  H   H5064     1.0  0.76007  0.90688  0.64186  1.0000
  H   H5065     1.0  0.85301  0.84397  0.58301  1.0000
  H   H5066     1.0  0.83916  0.82292  0.70438  1.0000
  H   H5067     1.0  0.79107  0.93362  0.70348  1.0000
  C   C4224     1.0  0.84536  0.85642  0.58483  1.0000
  H   H5068     1.0  0.54211  0.79283  0.69517  1.0000
  H   H5069     1.0  0.61791  0.83655  0.49704  1.0000
  C   C4225     1.0  0.97359  0.80354  0.66499  1.0000
  N   N277      1.0  0.63221  0.81145  0.50155  1.0000
  N   N278      1.0  0.73314  0.79995  0.96454  1.0000
  H   H5070     1.0  0.96016  0.80677  0.66803  1.0000
  H   H5071     1.0  0.97612  0.81451  0.68368  1.0000
  H   H5072     1.0  0.67448  0.91086  0.66968  1.0000
  H   H5073     1.0  0.83295  0.82431  0.62426  1.0000
  H   H5074     1.0  0.83804  0.84922  0.62675  1.0000
  C   C4226     1.0  0.68616  0.85592  0.72925  1.0000
  C   C4227     1.0  0.81893  0.95606  0.66036  1.0000
  C   C4228     1.0  0.83620  0.95022  0.65667  1.0000
  H   H5075     1.0  0.72223  0.87360  0.61426  1.0000
  C   C4229     1.0  0.80870  0.82427  0.70238  1.0000
  C   C4230     1.0  0.82593  0.83725  0.67761  1.0000
  H   H5076     1.0  0.84138  0.93832  0.65320  1.0000
  Fe  Fe574     1.0  0.91074  0.78859  0.67202  1.0000
  H   H5077     1.0  0.79746  0.83137  0.69748  1.0000
  H   H5078     1.0  0.85024  0.81299  0.68772  1.0000
  C   C4231     1.0  0.68511  0.88460  0.67459  1.0000
  H   H5079     1.0  0.55400  0.80420  0.72510  1.0000
  C   C4232     1.0  0.80264  0.82175  0.60764  1.0000
  C   C4233     1.0  0.71115  0.96670  0.76916  1.0000
  C   C4234     1.0  0.70131  0.95621  0.76859  1.0000
  C   C4235     1.0  0.68393  0.96090  0.77275  1.0000
  N   N279      1.0  0.65942  0.83243  0.82605  1.0000
  C   C4236     1.0  0.67271  0.81703  0.82626  1.0000
  C   C4237     1.0  0.66739  0.84653  0.81635  1.0000
  C   C4238     1.0  0.65266  0.83484  0.84330  1.0000
  C   C4239     1.0  0.64591  0.83097  0.81923  1.0000
  C   C4240     1.0  0.63786  0.81745  0.82642  1.0000
  C   C4241     1.0  0.64021  0.84280  0.80560  1.0000
  C   C4242     1.0  0.62531  0.81552  0.82004  1.0000
  C   C4243     1.0  0.62746  0.84091  0.79949  1.0000
  C   C4244     1.0  0.83010  0.97985  0.70932  1.0000
  H   H5080     1.0  0.66835  0.80602  0.83488  1.0000
  H   H5081     1.0  0.67753  0.81424  0.81368  1.0000
  H   H5082     1.0  0.68340  0.81809  0.83063  1.0000
  H   H5083     1.0  0.67254  0.84567  0.80314  1.0000
  H   H5084     1.0  0.67800  0.84667  0.82131  1.0000
  H   H5085     1.0  0.65858  0.85876  0.81687  1.0000
  H   H5086     1.0  0.64763  0.82410  0.85175  1.0000
  H   H5087     1.0  0.66241  0.83628  0.84879  1.0000
  H   H5088     1.0  0.64246  0.84614  0.84383  1.0000
  H   H5089     1.0  0.64117  0.80832  0.83715  1.0000
  H   H5090     1.0  0.64528  0.85373  0.79945  1.0000
  H   H5091     1.0  0.62436  0.80617  0.61296  1.0000
  H   H5092     1.0  0.62320  0.85021  0.78923  1.0000
  Fe  Fe575     1.0  0.70332  0.78832  0.88621  1.0000
  H   H5093     1.0  0.83690  0.83549  0.66717  1.0000
  H   H5094     1.0  0.84576  0.79195  0.68051  1.0000
  C   C4245     1.0  0.68116  0.90230  0.69345  1.0000
  N   N280      1.0  0.82375  0.82117  0.68904  1.0000
  H   H5095     1.0  0.54940  0.82678  0.76882  1.0000
  S   S1144     1.0  0.67115  0.78471  0.94326  1.0000
  C   C4246     1.0  0.73440  0.79236  0.95058  1.0000
  H   H5096     1.0  0.71635  0.90837  0.66703  1.0000
  C   C4247     1.0  0.66575  0.80177  0.59638  1.0000
  H   H5097     1.0  0.72176  0.82339  0.97199  1.0000
  C   C4248     1.0  0.65594  0.81367  0.74854  1.0000
  C   C4249     1.0  0.80152  0.83659  0.59582  1.0000
  S   S1145     1.0  0.61029  0.78388  0.80408  1.0000
  C   C4250     1.0  0.60076  0.79111  0.58324  1.0000
  H   H5098     1.0  0.64934  0.82753  0.48855  1.0000
  C   C4251     1.0  0.75361  0.88085  0.66604  1.0000
  C   C4252     1.0  0.67122  0.80176  0.61028  1.0000
  C   C4253     1.0  0.71780  0.78743  0.59290  1.0000
  C   C4254     1.0  0.63749  0.80482  0.61227  1.0000
  C   C4255     1.0  0.53655  0.78605  0.83905  1.0000
  C   C4256     1.0  0.72410  0.79511  0.56277  1.0000
  S   S1146     1.0  0.71922  0.78877  0.61261  1.0000
  C   C4257     1.0  0.62013  0.82723  0.80659  1.0000
  H   H5099     1.0  0.68223  0.86683  0.73514  1.0000
  C   C4258     1.0  0.82825  0.94199  0.70146  1.0000
  H   H5100     1.0  0.82204  0.96314  0.74033  1.0000
  H   H5101     1.0  0.86012  0.95535  0.65449  1.0000
  C   C4259     1.0  0.84677  0.95988  0.65742  1.0000
  C   C4260     1.0  0.56154  0.80158  0.71291  1.0000
  S   S1147     1.0  0.52721  0.79356  0.62319  1.0000
  C   C4261     1.0  0.58749  0.80363  0.75861  1.0000
  S   S1148     1.0  0.97072  0.79093  0.63986  1.0000
  C   C4262     1.0  0.79453  0.95026  0.71639  1.0000
  C   C4263     1.0  0.71983  0.79035  0.94724  1.0000
  H   H5102     1.0  0.65793  0.80493  0.66589  1.0000
  H   H5103     1.0  0.55419  0.80864  0.70344  1.0000
  H   H5104     1.0  0.75623  0.80839  0.95586  1.0000
  S   S1149     1.0  0.78797  0.78505  0.63905  1.0000
  H   H5105     1.0  0.64988  0.81919  0.50997  1.0000
  C   C4264     1.0  0.80554  0.80330  0.66379  1.0000
  H   H5106     1.0  0.81489  0.80592  0.62673  1.0000
  H   H5107     1.0  0.60448  0.80353  0.49824  1.0000
  C   C4265     1.0  0.83887  0.95669  0.61225  1.0000
  S   S1150     1.0  0.65330  0.78747  0.86664  1.0000
  H   H5108     1.0  0.73968  0.92033  0.64631  1.0000
  H   H5109     1.0  0.51178  0.81050  0.59249  1.0000
  C   C4266     1.0  0.83438  0.95777  0.73313  1.0000
  H   H5110     1.0  0.63328  0.80609  0.63734  1.0000
  H   H5111     1.0  0.68004  0.81607  0.64759  1.0000
  H   H5112     1.0  0.71920  0.85058  0.72740  1.0000
  C   C4267     1.0  0.82288  0.98115  0.66548  1.0000
  C   C4268     1.0  0.55218  0.79544  0.81148  1.0000
  H   H5113     1.0  0.56718  0.82916  0.78587  1.0000
  H   H5114     1.0  0.85335  0.85904  0.61171  1.0000
  H   H5115     1.0  0.85418  0.83785  0.61275  1.0000
  H   H5116     1.0  0.83709  0.94410  0.73816  1.0000
  H   H5117     1.0  0.68762  0.81336  0.62687  1.0000
  N   N281      1.0  0.69944  0.85809  0.71402  1.0000
  H   H5118     1.0  0.79446  0.80624  0.65880  1.0000
  N   N282      1.0  0.74105  0.89454  0.65871  1.0000
  H   H5119     1.0  0.63423  0.79839  0.52651  1.0000
  H   H5120     1.0  0.82774  0.84602  0.68409  1.0000
  H   H5121     1.0  0.80594  0.81241  0.71068  1.0000
  C   C4269     1.0  0.58513  0.78686  0.58898  1.0000
  H   H5122     1.0  0.75234  0.91308  0.66130  1.0000
  H   H5123     1.0  0.69469  0.83843  0.70608  1.0000
  C   C4270     1.0  0.82442  0.82834  0.61604  1.0000
  H   H5124     1.0  0.81753  0.87813  0.59304  1.0000
  C   C4271     1.0  0.69163  0.87083  0.68592  1.0000
  H   H5125     1.0  0.78141  0.95349  0.72206  1.0000
  C   C4272     1.0  0.82354  0.84367  0.60411  1.0000
  C   C4273     1.0  0.82316  0.95360  0.71192  1.0000
  H   H5126     1.0  0.52207  0.80297  0.56624  1.0000
  H   H5127     1.0  0.57268  0.80705  0.70986  1.0000
  H   H5128     1.0  0.67464  0.80060  0.58476  1.0000
  H   H5129     1.0  0.68808  0.89083  0.71652  1.0000
  H   H5130     1.0  0.53308  0.80490  0.77871  1.0000
  H   H5131     1.0  0.72891  0.82493  0.94989  1.0000
  C   C4274     1.0  0.73772  0.89753  0.62937  1.0000
  C   C4275     1.0  0.64833  0.81628  0.49869  1.0000
  H   H5132     1.0  0.66315  0.98012  0.78045  1.0000
  H   H5133     1.0  0.72975  0.90369  0.68122  1.0000
  H   H5134     1.0  0.86289  0.96254  0.60149  1.0000
  H   H5135     1.0  0.64471  0.80320  0.58658  1.0000
  C   C4276     1.0  0.67379  0.79588  0.95655  1.0000
  N   N283      1.0  0.50180  0.79403  0.58469  1.0000
  H   H5136     1.0  0.62101  0.82856  0.51794  1.0000
  H   H5137     1.0  0.85386  0.95934  0.69274  1.0000
  H   H5138     1.0  0.51373  0.78926  0.56022  1.0000
  H   H5139     1.0  0.71026  0.87221  0.72388  1.0000
  H   H5140     1.0  0.71811  0.85883  0.64362  1.0000
  C   C4277     1.0  0.81235  0.97154  0.66475  1.0000
  H   H5141     1.0  0.72381  0.86354  0.70699  1.0000
  H   H5142     1.0  0.56958  0.80989  0.81203  1.0000
  H   H5143     1.0  0.72653  0.86811  0.66385  1.0000
  C   C4278     1.0  0.81674  0.93477  0.69872  1.0000
  C   C4279     1.0  0.60131  0.79158  0.78674  1.0000
  C   C4280     1.0  0.81771  0.78910  0.66113  1.0000
  N   N284      1.0  0.69731  0.92411  0.81673  1.0000
  C   C4281     1.0  0.68485  0.93995  0.81801  1.0000
  C   C4282     1.0  0.71402  0.92821  0.81085  1.0000
  C   C4283     1.0  0.69424  0.91731  0.80405  1.0000
  C   C4284     1.0  0.69655  0.91147  0.83249  1.0000
  C   C4285     1.0  0.68358  0.91341  0.84679  1.0000
  C   C4286     1.0  0.70859  0.89624  0.83361  1.0000
  C   C4287     1.0  0.68286  0.90085  0.86123  1.0000
  C   C4288     1.0  0.70782  0.88385  0.84815  1.0000
  C   C4289     1.0  0.69494  0.88611  0.86190  1.0000
  H   H5144     1.0  0.68624  0.94561  0.82761  1.0000
  H   H5145     1.0  0.68619  0.94937  0.80611  1.0000
  H   H5146     1.0  0.67188  0.93820  0.82074  1.0000
  H   H5147     1.0  0.71456  0.93851  0.79959  1.0000
  H   H5148     1.0  0.72396  0.91757  0.80723  1.0000
  H   H5149     1.0  0.71734  0.93218  0.82058  1.0000
  H   H5150     1.0  0.70337  0.90563  0.80192  1.0000
  H   H5151     1.0  0.68159  0.91457  0.80774  1.0000
  H   H5152     1.0  0.69500  0.92627  0.79189  1.0000
  H   H5153     1.0  0.67365  0.92436  0.84705  1.0000
  H   H5154     1.0  0.71833  0.89346  0.82302  1.0000
  H   H5155     1.0  0.67266  0.90234  0.87187  1.0000
  H   H5156     1.0  0.71683  0.87210  0.84851  1.0000
  H   H5157     1.0  0.69398  0.87617  0.87290  1.0000
  C   C4290     1.0  0.69298  0.87241  0.70151  1.0000
  C   C4291     1.0  0.51025  0.79934  0.56716  1.0000
  C   C4292     1.0  0.67730  0.78608  0.64482  1.0000
  H   H5158     1.0  0.49403  0.80408  0.60674  1.0000
  C   C4293     1.0  0.79993  0.93898  0.70604  1.0000
  C   C4294     1.0  0.82426  0.87202  0.60325  1.0000
  N   N285      1.0  0.66627  0.80255  0.64034  1.0000
  C   C4295     1.0  0.61421  0.80412  0.48712  1.0000
  C   C4296     1.0  0.64285  0.80476  0.62627  1.0000
  H   H5159     1.0  0.67680  0.83426  0.95792  1.0000
  H   H5160     1.0  0.57337  0.79551  0.64080  1.0000
  H   H5161     1.0  0.97338  0.84327  0.64435  1.0000
  H   H5162     1.0  0.74357  0.90805  0.62433  1.0000
  H   H5163     1.0  0.64558  0.79524  0.65953  1.0000
  C   C4297     1.0  0.63206  0.79637  0.51508  1.0000
  C   C4298     1.0  0.73575  0.88920  0.64636  1.0000
  H   H5164     1.0  0.86096  0.96252  0.70897  1.0000
  C   C4299     1.0  0.82223  0.96270  0.61903  1.0000
  C   C4300     1.0  0.72317  0.81724  0.96167  1.0000
  N   N286      1.0  0.83492  0.96160  0.71509  1.0000
  C   C4301     1.0  0.64852  0.78798  0.77565  1.0000
  C   C4302     1.0  0.65285  0.80516  0.65519  1.0000
  H   H5165     1.0  0.60641  0.82191  0.51151  1.0000
  C   C4303     1.0  0.54178  0.79471  0.80150  1.0000
  C   C4304     1.0  0.56558  0.78491  0.83564  1.0000
  C   C4305     1.0  0.80593  0.95747  0.71934  1.0000
  N   N287      1.0  0.56624  0.78347  0.71343  1.0000
  C   C4306     1.0  0.54981  0.81838  0.78081  1.0000
  H   H5166     1.0  0.61999  0.79244  0.51878  1.0000
  H   H5167     1.0  0.57632  0.79160  0.59923  1.0000
  H   H5168     1.0  0.53443  0.78536  0.80528  1.0000
  H   H5169     1.0  0.85716  0.94256  0.71053  1.0000
  S   S1151     1.0  0.93428  0.78790  0.67924  1.0000
  C   C4307     1.0  0.84014  0.97536  0.66188  1.0000
  C   C4308     1.0  0.67537  0.78767  0.97283  1.0000
  H   H5170     1.0  0.61034  0.82572  0.80175  1.0000
  C   C4309     1.0  0.65077  0.80264  0.77806  1.0000
  C   C4310     1.0  0.84995  0.96727  0.60680  1.0000
  H   H5171     1.0  0.84316  0.94377  0.61132  1.0000
  H   H5172     1.0  0.66848  0.82809  0.63203  1.0000
  H   H5173     1.0  0.84357  0.96307  0.73587  1.0000
  C   C4311     1.0  0.64986  0.78578  0.75948  1.0000
  H   H5174     1.0  0.65520  0.79821  0.73335  1.0000
  Fe  Fe576     1.0  0.53858  0.78544  0.64560  1.0000
  H   H5175     1.0  0.57026  0.78719  0.68676  1.0000
  C   C4312     1.0  0.98518  0.83125  0.62386  1.0000
  C   C4313     1.0  0.98508  0.83859  0.63648  1.0000
  C   C4314     1.0  0.81662  0.97921  0.62077  1.0000
  H   H5176     1.0  0.58837  0.78527  0.69397  1.0000
  C   C4315     1.0  0.61221  0.78522  0.56982  1.0000
  H   H5177     1.0  0.68838  0.78363  0.63468  1.0000
  C   C4316     1.0  0.59136  0.78283  0.78361  1.0000
  H   H5178     1.0  0.68213  0.78508  0.65592  1.0000
  H   H5179     1.0  0.64194  0.78578  0.51122  1.0000
  H   H5180     1.0  0.76151  0.78820  0.94121  1.0000
  C   C4317     1.0  0.74976  0.78717  0.93972  1.0000
  H   H5181     1.0  0.52668  0.78382  0.83435  1.0000
  C   C4318     1.0  0.72050  0.78371  0.93388  1.0000
  H   H5182     1.0  0.57826  0.78317  0.82744  1.0000
  N   N288      1.0  0.55301  0.78340  0.82750  1.0000
  S   S1152     1.0  0.71177  0.78379  0.54260  1.0000
  H   H5183     1.0  0.70908  0.78250  0.93158  1.0000
  H   H5184     1.0  0.63643  0.78321  0.73502  1.0000
  C   C4319     1.0  0.70381  0.98214  0.77362  1.0000
  C   C4320     1.0  0.53982  0.78321  0.70617  1.0000
