data_image0
_chemical_formula_structural       H5C2HCHSHC2H3SCHFeS2H2FeCFeS3HCSHCFeSH2SFeS2FeHFeSC2S2FeS2FeS2FeHFeS3HC7H4C6H4CHNH2C6H6CHCHSHCHC6H4C6H2C2HCHFeHC5HC6H5S2HCHCH5SCH2FeNHC5NHNCHNC9H12CNCHC2HCHC2HCH2CSC2HCH4CNC7H11C2H5NSCHC2HC2SH5CSCH6SC3H4CH2C3H3FeH2CHCH2C2HCHCFeCH3SCH2SH2NCHCHNHSC4H5CH2CH2SCFeHFeNHCH7C2H2NHCSHSCSHCSCHCH2C2H2C4SCH3CH8CH2FeCHSHCHCH2CHCHC3HC3HCH3C3SHSCFeC2S2H3FeH3SH2C2H3S2HCH3FeS2H2FeS3HC2H2CHFeSHS2FeSH2SFeHFeSHSHFeS2FeSCFeSFeS2CH2CNSC2FeS2FeS2FeSFeS3FeCSFeHSHCNS2FeS2FeS2FeHFeS3C6H4C6H6C2HFeHC8H4C2HC3SH2CH3C2HC4H3CHC6H4CH4C2NC4NHC2HCH2C6H4C6H7SC2H2NCH3FeHC2H3CFeNH3C3HC2HCHCH2CHC2HCHC3HC4H2CH5C3SNCHC5HC2H3C2H2CNH3CHFeH7C2H3FeCHC2HC2HCH2CHCH2CFeCFeHCHNC9H14NCHCHCHSHC3HCH5CH3C2HC3HC4H6CH2CHC2H2CHCHCHC2HCNH2C2S2H2CHC2HSNHC3H9C3H2CHCH2C2H3CH3CH2C2SH5SH2CH3CHC2H2CHCH2C2HCHCH2C3HS2NCHC3SH2CHFeHC2SHC2HCH3CSC5HSC2H3SH3CSH2FeCH4CHC2SHCNH4NHC2HC2HCFeSHFeS2FeHFeS3FeS2HFeSHSFeS2FeS2FeSFeNS2FeSCFeS2FeSFeS3FeS2FeSCFeSFeS3FeS2FeHCFeSC2S2HCHSC2SHCH3C2FeH2SHC2HC2FeH4C6H4CHCSHSH2CHCH3C6H4C5H2C2H2CNCH2C6H4C6H4C2H4CH3C6H4C6H5CSHC2HC2HCH5CH2NH2CH2CH2NC2HCHC2HC2NC2HCHNCSC2HCH3CH2CNHCH2CH2NC9H7CH4CHC3HCH2NC2H2C2HCH3CHCH2CHCFeHCNHSHSCH2SCSC2H2C2HC2HC3FeH2CH2SNC3HCHC2HC2H3CH3NHCHCHC2HCH2CNC8H8CH3CH3C2SCHC2H6C2H2CNC6H2SH4CH4CHCH2NC9H12SH2C2HC3HCHCHCNCHC5SH4CHCHFeH2C2H4FeHCHCH3CH2CHC2NH9SCH2CH5CHC4HSH2CSC2HCH2CHCHCHC2H2C2H2CH2CHCH2C2H4C3HCHCSHC2HCH4CHCSCHCH2FeH3S2C2NHCH2FeHSC2HCH2SHFeSHC2SCFeSCSHSCFeCSFeSHSCFeS2FeS2FeSFeS3C2NH2CFeSHCH2CH5SHC7HCH2C6H5CFeCHC2HC2HNHNH2CH3CHSC6H5C6H6CHC2H2NHCHCHC3FeCHCH3C2SCNC9H14SNHFeCHN2C2HC2HCHC2NHCHC3H4SCH2CH3CHC3FeC3FeHCH2SCHCHCFeCHCSHCHCH2FeCHCHSH2CH4CHC2HNHC2HC2HFeHCHC2H2CSHCHCHC2H4SH2CHCSH4SCHSC2HCHCH3CH5CHSCH3CH2CH2CSHC2FeC2H2FeC4H7C2H3CHFeS2FeSFeS2FeS2FeS2FeSFeHS2HCSCSFeHSC7S2H2S3FeSCFeNSFeS2FeS2HC6H3C3H2NCFeHCNSHC2HSHC8H4FeCHCH5C6H4C6H4CFeCHC2H4C6H5SNC9H15C2HSHFeHCHCH2FeHCHFeSC3H2C2H2FeH2NC9H14NC9H12CHN3C2HFeHC2SH2C3H3SHCH2SCH2NC6HC2H13C3FeC3HC5HC2SCHCHCSH4SH3SCHCH2FeCHCFeC2H2C2HSH2CH2CH2CHC2HC3SCHSHCH2C2HSCHFeCH2CHCHSCH3CSHCH2FeCH2CNSHFeC2FeH3CHSCH4CH3CH2SC2HC3HCH6SCH2CHSC2HC2H2CH4C3HC2FeCHSCSC2SCH2CH4C2H2FeSCH3NH2CH3SH3CSH3CFeHFeH7SHFeSCS2HCHFeSCSC3FeCFeCSFeSC2SHCHFeS2FeS2FeSFeHS2CH6FeS4CFeSFeS3CH3SH2C8HCH3C4HCH2NC2HCHFeHC4H2C2H4C3HSH2CH2C3H2CHC4SHSCHFeHCH4CHCHFeC6H4C6H5CHCSHC2SH2CH2NHC3H3CHC3H2FeCHCNCH5C2NH2C2H2C2FeCHC2H2FeH3CH2SC2H2C3NC8H18CH3CHSH2CH3CH2C2HCHC2SNCHNCH3C5H3C3SH10CH6CH2CNH2C3NH2CHC4H2NH2CSC2SHCHSFeHC2H3C2H3S2H4SCFe3SHS2C2S3C4FeCH4SC4H2CH6CH2CHC2HCHCH3NC3HNHFeSFeS2Fe2S3FeS2CHCHSFeSHSFeS2FeS2FeSFeS3FeSFeS2FeS3CHFeS3FeSFeSFeS2HCFeSHCS2CH2CHFeH5CHSHC2HCSHC6H4C6H4C6HSH2C2HSH2C6H7CH2SCHC5H4CH2CH3C3HC6H4C6H3CH2NCH3CH3C5H2CH2CHC3H2SH3NCHNHNC9H14NC9H19CSC3HC2H2FeSHC2NC8H12FeCNC5H9FeHC2NCHCH2CHCFeC2HNC9H5SH4SHNC4H2CH5FeH4CFeCH7SH2C4HCHCH4C3HCHC2HCHC2H2C2H2CSH2CH2C3HCSCH2CH3NHCSH4CHCHC2HC3H4C2H4C2H3CH2C2HSC2H2CHC5HCH2CS2C3H2CSC2HC6H5SNC2SH2CHCH3CHCH2C2H6CH2CH3C3H6C5HCH2CH2CHFeS2FeHFeNHCS2H4S2FeHSFeS2FeH3S2FeS2FeS2FeSFeS3HSCH2CFeSHSCHC2H3CSH2SCHFeHCSC7H3C6H4C6H4C2HCHCH4C6H5CNC6H4C6H5CHCH3NHC2HCH3NCHCHCSCHC2SCHCH2CHC2HCHCH3CH4CHCH3CHC2SH2SHFeHSC2HCHSC2FeH3NH3FeNH2FeCH5NC9H11CHNH3C3H2CSH3CHC3HC3HCH2CHCNC2SCHCH5C2HSCHSH2CHSCSH3CNH2CHC2HC2H4CH3C2FeH2CFeC2H2CSH3CHC5H2CHFe2C2H2CH3CH5C3SHN2HFeCSHC2HSHFeHFeHSCFeSHSHFeSCHSFeSCSHFeS2FeS2FeSFeS3FeH2C4FeS2FeS2FeSFeS3NCHFeSH4SHFeS2FeCFeCFeHS2CH2C5H3CHC6H4C6H4C4H2C6H4C3FeHCH2CHC6H4CH2FeH2CH3C6H2CHC6H4C6H4CH3C2HCHCSHCH2NHFeH3C2H3CH8C3HSCH2CSHCH2CNCH2CSNC9H12CH5NC2HCHCHC2H2C2SHCH2C5SHCHCHNH2C2HCHCH3CH2SH3SH5CNH2C2HSHCNHCHCHCH2SHCH3CHFeHCHC2HC2H4NCHCH2CSHC3HCH3C3H2CHC2H6C3H2C2FeC2H5CHNHFeSHCH2SCFeSC2SHFeSHSCFeS2FeS2FeSFeS3HFeS2FeSFeSFeS3FeSCSCFeC6H4C3H2C6H4C6H4C6H8CNC2H2C2H2C3H2C6H5C2HSC2HSH2CH2CSC3H6CH3CH2CH2SC2HSH3CH3NC9H13C3H11NSC2H3C3HNC3H4C2HCH5CSHC4H2NHC2HSH2C2HC2H3CSCHCNCFeHFeH7CHCH2CSHCHFeC2H2SCHCHSH4SCHCHCHNFeC2H3C3H2CHSH4CHSCHCHC4H2CHNCSHCH2C2HC3SCFeCHCSCHCH5CNC9H11CHCH5SH2C2FeCHFeC2H2C2H2CH2SHCH5CHSHC2HCH2CHCH2SH2SHCH2CHC3SC3H2FeS2H2FeS2FeS2FeS2FeSFeS3H5SCSCFeHSCSHCSHFeSCSCFeSFeHCHCNSH2CNCH8C5H4NC5HCHC2H2C7H4C6H4C6H4FeH2C6H4C2H2C3FeC2SHSHCH3CHC2H2NCHCH4C3FeH2NHC4H3FeC2H3SH3CH4C3H4Fe2SCHCHSHNC9H14CH3CSHNCHCHCHCHCH2C3SH7CH5SC2H3CH2SC2H3FeHSFeS2FeCFeS3FeS2FeS2FeSFeS3H2C2FeS2FeS2FeSFeS3FeS2FeS2FeSFeS3FeS2FeS2FeCHFeS2FeSH2SHC3SHC6H4C6H4C6H4C6H4CH2C3H4CH2C7H4C5NH5CSHCSHNH3C2FeH2C6H6CHCH2SH2C2HCHC2FeCH3FeSH2CH7CH6CH3CHCHCH2CH2C3H4C2HCH3CHSH3FeH4CFeHNHNHCHCHC5HCFeH9C2HC3FeC3HCH2C3HCNC7H13CSH2CHC2HCHNC9H11CHCNH2SCHNCH2C6H3CSCH4CH3CH3SCH3NC9H14C2H5CNH4CH2C3HSH3C2HC2S2HCSHC2H2CH3CSCH2N2CHC2NFeC3H3C3H3C2H2CH3CHCH3SCHCH2C2SC3H2CHSHSCHC3SC2HNCHC3HCFeSCHCHCHSHFeH4CH2C2HSH3C2H3CHCHSH3CH7CH2FeCNH2CSHCHCFeC2H2SHFeCHS2HCHCHCH3C2SCSHFeH2SC9H2CHC2H3CH3SCHCSCFeS2FeS2FeSFeS3CH2FeS2FeSHFeSFeS2H2C3FeHSHCH2CSHSHFeSHFeSFeS3H2CH4C3H8NH2CHCHCHCH4C3H3NH3CH3C2H2C5H3C6H4S2H2CHCHC2H2CHC7H6CH2CHCH2C6H6CH3C3HCHCSCHNCNCSC2HC3FeH3CH2CNCH3CH6NCHCH3CH2CH2NC9HCHC2H7CHC2SHSH2C4SHCH2CHSHCHC4H2SC2S2HC2H3FeS2FeS2HS2HC2FeS2CFeSCSHFeS2FeS2FeSFeS3FeS2FeS2Fe2S2FeS2H2CFeHFeS3H3C6H5CHCH4C8H4C6H4C6H4C6H4C6H2CHFeHCHC2HC6H6CHNC9H15CHFeC2HC2HCHCH4C2NSCHCH2C2H2C3H3CH2CHCHCH3C4SCSCHCHCHSH8SH3SC2HCH3C2HNC7H3SH2CH2NC9H14CH4CSCSFeH2SCNHC6H3FeH2CH7C2SCHC2NC9H15SNCHC3HC2H3CNCHFe3HC2H3SCHC2HC2H3C2HC3NC6FeCFeH4CHCHCHCHCHNC2N2H8NC2H2CH3C6HCHCHFeHCHC2H2CSCHSC2HSCHSC2H2S2FeCH8SC2H2C3SCH2SCHC2HC5SCHFeHNH2CH4CHCH2CH5CH2SHC2FeHC2HCH3C2H2CHCH3C2HCH4SH3CHCH2CH4NH2C3SNHC4H2SHFeS2FeS2FeCFeS3H2CH6CH2FeS2FeS2FeSFeS3H2SCHSC3SH3SH3CHCFeS2CSH4C3HCH3NCHCHCH4C2H2SC7H4C6H4CFeH2C3HCH4C6H4C8H2C6H5C6H5CHSH4FeHC2H2C2HSHFeHSNH3NH4C2H2CH3CH2CH4CHCH2SHNCHCHNC2HC2H3C2NC9H14C2HNC9H14CSH2CHC4HCHCHCH2C2H2SCFeHCH2CNHCFeH6CH2SFeC2FeS2FeS2CHCFeS2CSHFeS2FeS2FeSFeS3CFeS2FeCHFeSFeS3FeS2FeS2FeSFeS2FeSHFeHCFeS3FeS2FeS2FeSFeS3C6H5C6H5CHC2HC2FeHC6H4C2HNH2C2H2C7H5C2H3CHSH2C6H5CSH3SHFeHCH4C6H4CSH2C3HNC9H14S2CH2S2CHNC6H14CH2CHC2HFeH2C3H5CH3CH3C3HCH3C3HCSHCFeHCHC2HCNHFeHCHCHCS2CH4C3NC9H14NC9H14C2HCHCHC2H4C2HC3NHC2NH2CH2CHSCH2CSH3NHC3HNHC2FeH3CH3SCHC2SC4SHCSNCHFeSHC2H2CHCH2CSHCHCSC2HCHCHCH4C2H3CSCH7CH2C3HC5H3C2H3C3H3NH5CHCSC3H3C2H2CFeHNH6CNC3HC2H2CH3CHCNHSH2CH2NCH3SHCHC2HC3HCH3C3NC3HC2HC2HC3H2CHC2HC4HC2H4CHC2HC3H3Fe2H2C2HC2HFeSFeH3CFeSFeH3C3H5CHC3HCSH2S2C3HCH4C3N2HCHCHC2H7SC2HC2HC2HCHC2H2CNHSH3FeSHFeS2FeHFeSHSFeS2CH2FeSFeHS2CFeS2FeS2FeSFeS3C3H2CSNC3NH3CH2CH4C6H4C6H4CHCFeH5C2HNFeH3CHC2HC6H4CHCH4CHC2HCH2SNC7H13CH4CHCHCHS2H2C2H2C2SC2H2C2FeHC2SFeCFeHCHC3HSC2HCH2CH2SH4SCH2FeCH2SFeCHNC9H13CH3C2H2CH2CHCHCSH3NH2C2H2C5HC3HC4HCHC2H2CH3CSC2H2CHCHC2H2CH3SFeSCHCFeHFeS3FeS2CSFeSFeS2HFeS2FeS2FeSFeS3HSCHSFeH3C3HFeSHFeS2FeSFeS3FeSHC2FeS3HSFeSFeSFeSHC6H4C6H4C6HCH2C6H4C6H4C4H2C6H4C7H3CH2CSC4SH2CSH3FeCNCNCHCHNC9H13NC9HCH12CHSNCH2CHC3HCH2SC2HCH5C2H4FeCHC3H2CH2CH2SNH3CH2CH2C3H6SHSCH2C2NCH2C4S2H3CNC9H14NC3H2CH6CHCHCH2CHC2H2C3SH2CSHCHFeH4SHSHNCFeHCHC2HC2H5CH2CSCH2CHFeHCH3CH2CHCHCH5FeNHCH2C4HSCHCH7CHC7H2CNH4C4H3C2HFeC4SCHFeH2CHC3H2CH3C2H2NHCHC2NC2H3CH2CHS2H5SH3FeH2CHC2SHCH3CH4CNHCH4FeC2HSNHC4H4CHFeS2FeS2FeSFeS4FeS2FeSFeS2HCHCHCHNSHCH2FeSH4CFeS4H3CFeHSHC3HFeCH2S2H5CH2C6H2NCH3C2HCHC7H4C6H4C6H4C2HCSH2C2HC6H3FeH5CHC2H7CNSHCHCHC2H3CH3C2NCH3C2NCH2CH2C3HCFeCHC2H3C2H2C2HFeC3HCHNH2CSH2CHCHNHCHCHCHCH2CHCH3C2HCH10CSC2HCSHCH2C3HSH4CHCNFeS2FeSFe2S2FeS2FeS2FeSFeS3HFeS2FeSNCSFeS2FeS2FeSFeHSCFeS2FeS2FeS3FeSFeS2FeS2FeS2Fe2S3C6H4C6H4C6H4C6H4C2HC2H3CHSH3CHC6H4C6H4C6H4C6H4C2HC6H4CHCHCH3CNHCH2C2HCH5SH4FeH2CSCFeCSH2CH2CSH3SH3CHCH2C2HFeH2CH6C7HC2H3CH3C3SCH3CHSCH2NH2CHSH3CH2CH2SC3NHCH5SH2SC2HFeHCHSCHCH3FeNC9H10NC9H5SN2CHCH3C5HCHC4NC9H14C2H5C3H5SNHCHC3HCH2NC2H3CHNC2H6CH3C2HSH3CH2C2HCHC4SFeH3NC2H2CFeCSH2C4SC3H2CHC2H3C2HCSHNHC2H3NCHFeC2H2SHSH2CH2SCHSHCSC4H2CH2CH4CHSC3H2C2H2C3H10CHCH7CH5C2FeH3FeHC4HCHCH2FeCHCH3C3H7CSC4H3CH9CH4NHCSFeS2FeSFeS2H2CSCHFeNCHC2HC4SH3CH2C3H3CHCH3CH3CH2NHCSHC3H4C2HC2HC3HC3HC3H4CH3CSH3CHC2HCHCHNH2CHFeHCFeS2FeS2FeSFeS3HC2SH2C2HCHCHFeS2FeHC2HCSCHSH2CFeSHSHCHC7H4C4H2NSHSC4HNCH3CHC2NCH2CHCHC2SCH2C6H4C3H2CH6CH2CH3C2SH2CHC3H2C4H3CH3CSFeCHCSCNH4FeH2C2NC6HSH11NSCSCSCHCH2CHC4H2CHFeH3C2HCH4C2NH3CHCHSH3CHCH2FeCH2CFeS2CSFeSFeS2H5CFeSHFeS2FeSFeS3FeSHFeS2FeSFeS3FeS2FeS2FeSFeS3FeS2FeSHFeSFeS3CSFeS2FeSFeCS2H4C2HFeCH2C6H4CH4C2H3CH2C6H4C6H4CH3CHCHCH2CHC6H4C3H2CHC4NH4C5H2CFeCFeHCFeCNCHC2H2C6H4C2HSCSHC2H3C2H4CNC9H14NC9H13C2HC4HCSCHCHC4H5NC9H13CHCHSCH3CHC3SCH4C3HFeHC2H3CHSFeCHCSH3CHFeC2HSCHCSHSHCHC2H3C2HNCHNHSCH5CH3C2FeHCH2C3HC2H2CH2SHSC2H3NHFeH2CH2NH4C3HC2H2C2H3C2H3C4H2NCS2CH5C2SHCH4C2HSC2HC2H2C3H2CH4C2HC2HCH3NC3HC5HC3HCH2CHCHNC2NCH2CSHNCH2CSCH2CHCSH2C2H2C3SH6CH3SC3HCH3C4H4CHCH6NCH2CS2CHCHCH2SCH2C2FeCHCH2C2SCHCSCNCH2C3H2C10H3CHFeH2CSCHC2HSC2H2CNCHCHC3HCH2FeHFeH3C2H3CH2C2H2CHCHSHC2HSH2CH2CH2CHCH3CHCHSC2SCH2SHSHCFeS2FeS2FeSFeS3CNH6CH2FeHCFeS2H2FeCS2CNC2H3CHSC2HC3HSH2CH3NH2CHC6H4C6H7CH5FeC6H4C4HCH2CH2Fe2CSHSH2C2H2C4HCHCHCFeC4FeH2C2HC4H5CH2SC2HSCHN2C4HCH3CHC2H7CSH2NH2CH2C2H3CHCHNCH3C3SH4CFeSHSHCFeSFeS2FeS2FeSFeS4FeHFeHSH2S2FeS2FeS2FeSFeS3H2SFeS2FeS2FeSFeS3FeS2FeS2FeSFeS3FeS2FeS2HC6H3C6H4C2H2CH3CHC6H5C6H3C6H4C6H4C6HCH2C3H2SC6H4C6H4C3H3C6H4CH2C3FeHCHC5H2C2HC2HCNC9H14CH7CH2CH2SH3CHC4H2C2H2C3H2SHC2H5NC9H14NC6H2CHCH5C2HCH5CHCFeHFeC3FeHNHCHNC3H8CHCHSNCSFeH2C2H4NH2C2NCNH2C2H2CH2CFeHCHCHC2HCHC3HC2HCHC3HC2NCH2C2HCH4CFeH3CHC3HCH3C3H2FeC2H2SC2H5CHSH2CHC3HCHCH2CSNHSHCHNCHCSNCH3SH6C2HSHNC5H2CHCSHC2H3CH3CH4SHCH3C6HS2H3SHCHC2H2CH3C2SCH3CFeC2HCH3CH2FeH2CHCH2NC2H5CH2CHCH3SNHSHC2HCHCH2SCSHCFeH3SHCH5C2HSH2SFeSH2FeS2FeS2FeHFeS4CH2CHCHFeH2SH2C4HC4H5CFeCHSC3H2CHC6H4CHNH2C6H2NHC6H2NC5H2FeCH6SHCH2C2H2SH2SH2C2H3C3H2CHCNC2HSHCH2CH7CS3C2FeSFeSHFeS2HSHFeSFeS3CHFeSH2SHCFeS2FeSFeSFeS3HC2FeS2FeSFeS2C2HC2HSHFeCS3H2SFeS2HCHFeSCHSHCHFeC6H2SC3H2C4H4C6H6SCHCHC2H3C3HNC6H4SH4CNC7H3C7NH3C2FeHSC3H2C7H5CHC3H6CH2CSNC9H4CH14C2HNH3CH2CH4SCHC2H3SHC2HNH2C4H3CH2CH3CH2C3H2CHC2H5CHCSCH7SC2HCHCHNC2NHCHC2SFe2HC2HC2H2NC9H9CHFeH2FeSHCSCH3SH2CFeH6NC2NC2HSCH2CH2C4NH2SC2H2CHCHCSCH2CH3C2H2CH4CH4CH2C6HC5H2SHC4HC2H2C2H2CNCH4C2H7CHC2HCH2CH2CH3CH4CFeHCH3CH2SC2H5C2HC2H3CSNFeS2HSCHCFeSHSCSC2FeS2FeS2FeSFeS3FeS2FeC2H2FeS3H2NH2FeCHSHC3NCHC2HC3HNH2CH2CFeHCH3C2HC6H4C6H3C2H3CHSC2FeHC6H6SHCHC6HC2HSHC4HCHC2H4C3H2CH3NH2CH2SHC2HC2HCHCSCH2CHCH3C2H6CH3CHCH2NHCH4CH2CH2C2FeHC2HCHNCHCSH2FeC2HNC4H3CFeHCH5SHCHC2H2NC8H6CHC2H4C2HSHFeC3H2CH2SHCHCH3SCH2CHCHCFeHC2H3C3H3SH2CSHC2H4SCH2CH3C3HC2H2C2H5CH2CH2SC2NCH2CH2CNH2C4FeSHFeS2FeSFeS3FeS2FeS2Fe2S3CFeSFeS2FeSFeS3FeS2FeS2Fe2S3FeSHFeS2FeSFeS3H3CHFeS2FeS2FeSFeS3CH2CH2C3HCH2C6H4C3HC2H4C6H7CSCHFeH2C6H4C2H2C6H4C6H4C3HSH2CHC6H4C2HSH3NCH4CH3CHFeC2H4C2H2FeHCHCH3CHC2H2CH2C4SC2NC3HCH10C2NC10H11CSNCHCH2C2HC2HCHCH3SHSNHFeHCHCH4CH2CHFeCH2CH2CHCHCHCH2C2HCHC3H2C2H2CSCHCHCHC2H2CHC2HCH3CHCHCNCHSHFeC2HCSHCH5CHC5HCH3C2HCHNHCH2CSH2C2HCHSH2CH2C2H8CSCSHCH2C3H3CNCH2SCH2NCH3SHCHC2H2C2HSH2CH3SCHCHNCH2CH2C3H2C2HC2HC3HC5HCH3CH2CHCH2C2HCSHCH2CNC3HCH2CHSH4CHCH3CHCH2CHCHC2H2CH2C2HCNCH2C2HSC2SCSCSC3HFeS2FeS2FeSFeS3H5FeCSCH2CS2C2FeSHCSCH2CHFeSHSCHCH4NCSC2H2FeHC4H3C7H4C6H4C6H4NHSHCHCH3C6H4NH3C2H2S2H2FeCSC3HFeSHCSHCHC2H2NCH5SH2CFeHCHNHCHNHCHCHSHC3H3C2NHC4H2C2H2FeCFeC2HFeH2CSCSCHNSCH2FeCHC2H3FeCH3SC3HFeSHCHCHC2HCH6CHCH3CH2CH2CHCHCS2CFeH7SH3CH2C3H5CHCFe2H4NCH4C4HCHCHC2H4CHC2HSFeS2FeS2Fe2S3FeS2FeSHFeSFeS3FeSH2SFeSFeSH3CH2SHFeSH2SHFeS2FeS2FeSFeCS3HC4HFeSFeSHC2H2FeCHSH2C6H4C3H3NSCHCHCHFe2C2SHC8H4C6H4C6H11C6H4C5H3C6H8C2HC2HS2HCSC2FeH2CH2FeH2C2S2CH2SH2S2CHNC3HSH2NC7HCH13CNC7HCH9CHFeCHNH3C3HC5HSH7SFeCNH3CSCHCH2CFeHCHC2HCHCH3CHNHCHCH2C2HC4H3CH4CH2CHSNH3CHCH3C3HCHCH2FeH3C2SHCHCH3CSH3C2HCH2C3NCH2SC2SCFeHNH3CHC4H2CH2C3NHCH3C3HCHCHCSH2CH2CH5C2H2C2H2CH2CH2CHC4HC2H3C2H3FeH2C5H3N2C2HC2HCH3CHC2H2CH5CHC2FeHSH5CH3C5H2CHSH4CHFeHSFeCHSH3SCFeSHFeHFeSCSCFeSHFeSHFeSFeS5CFeS2HC2H5CH3CH2C6H4C6H4SC3H2CH4CSCFeHC3HC3HCHCNHSHC2H2C3HCH5C2H3C2H2SCH2NSCHCH4NC3H2CHSHCH4CH2SHFeNC6HC2H2SHCSH3CHCH2CHC2HC3H2C2NCH2C2FeH4CH3CH3CH3CH2C3HC2H3C2HCH2C3HCNSCH4C3FeSH3S3HC2HSCH3CFeH3C2H3CHNCH2Fe2H3FeC2H2C7H5C3H5CHSHCHCHCHCHCHCHCSH2SCH4CHCH2FeC2H2NH2C2H2FeH4SHS2FeS2FeS2FeSFeS3FeS2FeS2FeSFeS3FeHSCSHFeS2FeS2FeSFeS3FeSFeS2FeSHS2FeS2FeSHFeSFeS3H2FeSFeSHSC7H4C6H2C6H4C6H4C7H3C6H3C6H4C6H4C6H4C6H3C2H2C3HCH2C6HFeHC2SC2FeCHC4HNH4C2SNHC2HC2H4C5SHNC4HCH10NC5HCNH7CHC2HSH2NC9H14CHCHNC6H11C2H2CHCHCH2CHSHSCH3C4NH2CH2SCH4CH2CH2S2C4FeCHN2HCHC4H3CH2CHCHC2SHCHNCHCH4C2HCNC4HCFe2HCSH3CHCHCFeCHC2NCHCH5CH2C5H3FeH9C5HCHCH2CHC2H2C2FeH4CH2CHSCHCSHCH2SC2H6CH4CH2C5H2CH2CSC2H5CHC3HC2H3CFeH4FeH2CSH2C2H4NHCH3CHCH4CHC2HSCSH3CH3CH2NH4CHCH2C2HCH4CHSH4C3HC3H2C2H2CH4NCHFeHFeS2FeS2FeSFeS3FeHSCH4S2H3CSHFeSCH3FeHNHSHCH4SCFeC3H2CHNCH2SCSHC3HFeCNC3SHCSC2HSH2C6H4C6H4C6H4C6H5CHC6HCN2C9H14NC9H15C2HSC5H5CH2C2H2CH6CNH2C3HSH3CH6C3HCSC2H2CH3Fe
_chemical_formula_sum              "H6912 C5760 S1536 Fe768 N384"
_cell_length_a       100.147
_cell_length_b       99.7355
_cell_length_c       99.4934
_cell_angle_alpha    73.6689
_cell_angle_beta     73.6428
_cell_angle_gamma    73.6845

_space_group_name_H-M_alt    "P 1"
_space_group_IT_number       1

loop_
  _space_group_symop_operation_xyz
  'x, y, z'

loop_
  _atom_site_type_symbol
  _atom_site_label
  _atom_site_symmetry_multiplicity
  _atom_site_fract_x
  _atom_site_fract_y
  _atom_site_fract_z
  _atom_site_occupancy
  H   H1        1.0  0.07423  0.24550  0.11663  1.0000
  H   H2        1.0  0.15286  0.27176  0.16996  1.0000
  H   H3        1.0  0.19333  0.13363  0.04397  1.0000
  H   H4        1.0  0.22601  0.12993  0.03281  1.0000
  H   H5        1.0  0.00449  0.16063  0.15985  1.0000
  C   C1        1.0  0.17188  0.34345  0.06261  1.0000
  C   C2        1.0  0.20839  0.01967  0.09276  1.0000
  H   H6        1.0  0.00330  0.20513  0.13748  1.0000
  C   C3        1.0  0.13614  0.34703  0.16666  1.0000
  H   H7        1.0  0.18265  0.99377  0.13716  1.0000
  S   S1        1.0  0.15303  0.29053  0.04329  1.0000
  H   H8        1.0  0.15700  0.29864  0.06725  1.0000
  C   C4        1.0  0.11891  0.25428  0.00631  1.0000
  C   C5        1.0  0.16217  0.34884  0.07439  1.0000
  H   H9        1.0  0.11328  0.31704  0.08193  1.0000
  H   H10       1.0  0.12126  0.29612  0.04737  1.0000
  H   H11       1.0  0.13628  0.32947  0.08168  1.0000
  S   S2        1.0  0.20373  0.10436  0.10176  1.0000
  C   C6        1.0  0.20987  0.11811  0.16026  1.0000
  H   H12       1.0  0.19197  0.34369  0.04729  1.0000
  Fe  Fe1       1.0  0.20312  0.30830  0.10450  1.0000
  S   S3        1.0  0.19279  0.32694  0.08940  1.0000
  S   S4        1.0  0.18879  0.29987  0.12485  1.0000
  H   H13       1.0  0.20558  0.08673  0.15895  1.0000
  H   H14       1.0  0.21888  0.18303  0.03783  1.0000
  Fe  Fe2       1.0  0.21118  0.33620  0.08850  1.0000
  C   C7        1.0  0.98669  0.20500  0.10192  1.0000
  Fe  Fe3       1.0  0.20720  0.31583  0.07203  1.0000
  S   S5        1.0  0.20342  0.31276  0.05163  1.0000
  S   S6        1.0  0.22039  0.31822  0.10482  1.0000
  S   S7        1.0  0.21607  0.29636  0.08745  1.0000
  H   H15       1.0  0.19462  0.11526  0.12779  1.0000
  C   C8        1.0  0.20606  0.25252  0.04143  1.0000
  S   S8        1.0  0.15712  0.25327  0.04060  1.0000
  H   H16       1.0  0.21501  0.02428  0.08233  1.0000
  C   C9        1.0  0.13640  0.35627  0.08064  1.0000
  Fe  Fe4       1.0  0.13907  0.25283  0.03173  1.0000
  S   S9        1.0  0.12162  0.24218  0.04677  1.0000
  H   H17       1.0  0.17111  0.19369  0.02351  1.0000
  H   H18       1.0  0.08613  0.24949  0.00855  1.0000
  S   S10       1.0  0.15350  0.24471  0.01246  1.0000
  Fe  Fe5       1.0  0.11573  0.30379  0.12090  1.0000
  S   S11       1.0  0.10079  0.32443  0.12484  1.0000
  S   S12       1.0  0.13489  0.30238  0.10276  1.0000
  Fe  Fe6       1.0  0.09884  0.28547  0.14573  1.0000
  H   H19       1.0  0.01614  0.22198  0.10528  1.0000
  Fe  Fe7       1.0  0.08379  0.31229  0.12812  1.0000
  S   S13       1.0  0.06498  0.32025  0.11762  1.0000
  C   C10       1.0  0.09826  0.27327  0.00200  1.0000
  C   C11       1.0  0.14651  0.33280  0.07595  1.0000
  S   S14       1.0  0.09892  0.29243  0.12232  1.0000
  S   S15       1.0  0.11734  0.29475  0.14379  1.0000
  Fe  Fe8       1.0  0.04168  0.26409  0.07470  1.0000
  S   S16       1.0  0.02269  0.27768  0.08687  1.0000
  S   S17       1.0  0.05643  0.27417  0.05495  1.0000
  Fe  Fe9       1.0  0.03762  0.23690  0.09679  1.0000
  S   S18       1.0  0.01851  0.24813  0.11061  1.0000
  S   S19       1.0  0.04626  0.21338  0.10441  1.0000
  Fe  Fe10      1.0  0.01158  0.25977  0.08999  1.0000
  H   H20       1.0  0.22697  0.26534  0.10826  1.0000
  Fe  Fe11      1.0  0.03116  0.26477  0.10636  1.0000
  S   S20       1.0  0.03358  0.27064  0.12574  1.0000
  S   S21       1.0  0.02998  0.24717  0.07628  1.0000
  S   S22       1.0  0.05084  0.25262  0.09398  1.0000
  H   H21       1.0  0.19811  0.36147  0.05624  1.0000
  C   C12       1.0  0.16648  0.29945  0.05878  1.0000
  C   C13       1.0  0.05298  0.21112  0.11961  1.0000
  C   C14       1.0  0.05051  0.22267  0.12601  1.0000
  C   C15       1.0  0.05552  0.22080  0.13836  1.0000
  C   C16       1.0  0.06266  0.20728  0.14461  1.0000
  C   C17       1.0  0.06517  0.19569  0.13825  1.0000
  C   C18       1.0  0.06057  0.19768  0.12559  1.0000
  H   H22       1.0  0.04461  0.23307  0.12159  1.0000
  H   H23       1.0  0.05355  0.22980  0.14324  1.0000
  H   H24       1.0  0.07097  0.18528  0.14288  1.0000
  H   H25       1.0  0.06295  0.18884  0.12041  1.0000
  C   C19       1.0  0.05527  0.30696  0.12092  1.0000
  C   C20       1.0  0.04472  0.30917  0.11329  1.0000
  C   C21       1.0  0.03824  0.29797  0.11439  1.0000
  C   C22       1.0  0.04190  0.28470  0.12356  1.0000
  C   C23       1.0  0.05203  0.28269  0.13163  1.0000
  C   C24       1.0  0.05884  0.29371  0.13017  1.0000
  H   H26       1.0  0.04175  0.31948  0.10631  1.0000
  H   H27       1.0  0.03018  0.29968  0.10840  1.0000
  H   H28       1.0  0.05474  0.27250  0.13890  1.0000
  H   H29       1.0  0.06687  0.29192  0.13619  1.0000
  C   C25       1.0  0.23006  0.02770  0.15281  1.0000
  H   H30       1.0  0.20792  0.12059  0.13238  1.0000
  N   N1        1.0  0.14875  0.34395  0.08183  1.0000
  H   H31       1.0  0.20307  0.04875  0.10648  1.0000
  H   H32       1.0  0.21564  0.03211  0.11025  1.0000
  C   C26       1.0  0.10360  0.25137  0.04905  1.0000
  C   C27       1.0  0.09309  0.24409  0.05799  1.0000
  C   C28       1.0  0.07859  0.25099  0.05989  1.0000
  C   C29       1.0  0.07452  0.26521  0.05275  1.0000
  C   C30       1.0  0.08504  0.27252  0.04388  1.0000
  C   C31       1.0  0.09954  0.26568  0.04212  1.0000
  H   H33       1.0  0.09613  0.23301  0.06342  1.0000
  H   H34       1.0  0.07057  0.24521  0.06669  1.0000
  H   H35       1.0  0.08196  0.28359  0.03851  1.0000
  H   H36       1.0  0.10751  0.27148  0.03534  1.0000
  H   H37       1.0  0.17994  0.10056  0.14420  1.0000
  H   H38       1.0  0.17789  0.33507  0.16394  1.0000
  C   C32       1.0  0.16596  0.35923  0.07904  1.0000
  H   H39       1.0  0.11058  0.11222  0.15987  1.0000
  C   C33       1.0  0.10722  0.10856  0.17136  1.0000
  H   H40       1.0  0.20645  0.05903  0.15644  1.0000
  S   S23       1.0  0.13570  0.27595  0.02052  1.0000
  H   H41       1.0  0.21642  0.04239  0.09220  1.0000
  C   C34       1.0  0.99369  0.22412  0.10764  1.0000
  H   H42       1.0  0.18164  0.37136  0.07648  1.0000
  C   C35       1.0  0.17377  0.29987  0.11922  1.0000
  C   C36       1.0  0.16015  0.30546  0.12660  1.0000
  C   C37       1.0  0.14815  0.30613  0.12163  1.0000
  C   C38       1.0  0.14979  0.30123  0.10925  1.0000
  C   C39       1.0  0.16344  0.29586  0.10175  1.0000
  C   C40       1.0  0.17544  0.29528  0.10666  1.0000
  H   H43       1.0  0.15895  0.30977  0.13581  1.0000
  H   H44       1.0  0.13769  0.31096  0.12707  1.0000
  H   H45       1.0  0.16473  0.29205  0.09220  1.0000
  H   H46       1.0  0.18598  0.29117  0.10078  1.0000
  C   C41       1.0  0.18967  0.30580  0.04988  1.0000
  C   C42       1.0  0.19081  0.30198  0.03696  1.0000
  C   C43       1.0  0.17994  0.29675  0.03501  1.0000
  C   C44       1.0  0.16761  0.29566  0.04583  1.0000
  C   C45       1.0  0.08355  0.23127  0.17219  1.0000
  C   C46       1.0  0.17757  0.30427  0.06088  1.0000
  H   H47       1.0  0.20016  0.30308  0.02840  1.0000
  H   H48       1.0  0.18093  0.29397  0.02497  1.0000
  C   C47       1.0  0.18732  0.29459  0.17592  1.0000
  C   C48       1.0  0.21655  0.26809  0.05389  1.0000
  H   H49       1.0  0.02662  0.19581  0.12715  1.0000
  C   C49       1.0  0.23059  0.06124  0.16360  1.0000
  H   H50       1.0  0.23289  0.24058  0.12003  1.0000
  Fe  Fe12      1.0  0.17117  0.24783  0.02020  1.0000
  H   H51       1.0  0.12909  0.98765  0.15894  1.0000
  C   C50       1.0  0.08558  0.30264  0.00161  1.0000
  C   C51       1.0  0.20642  0.19376  0.01155  1.0000
  C   C52       1.0  0.21095  0.32414  0.14578  1.0000
  C   C53       1.0  0.19323  0.21582  0.01899  1.0000
  C   C54       1.0  0.11583  0.33267  0.16573  1.0000
  H   H52       1.0  0.20728  0.21319  0.98113  1.0000
  C   C55       1.0  0.17035  0.07796  0.12616  1.0000
  C   C56       1.0  0.16709  0.09042  0.11582  1.0000
  C   C57       1.0  0.17742  0.09846  0.10843  1.0000
  C   C58       1.0  0.19120  0.09380  0.11098  1.0000
  C   C59       1.0  0.19463  0.08105  0.12099  1.0000
  C   C60       1.0  0.18411  0.07327  0.12881  1.0000
  H   H53       1.0  0.15646  0.09403  0.11373  1.0000
  H   H54       1.0  0.17473  0.10828  0.10067  1.0000
  H   H55       1.0  0.17063  0.21744  0.02727  1.0000
  H   H56       1.0  0.18668  0.06352  0.13666  1.0000
  H   H57       1.0  0.20183  0.01380  0.09013  1.0000
  S   S24       1.0  0.17013  0.27067  0.00824  1.0000
  S   S25       1.0  0.14823  0.35691  0.16692  1.0000
  H   H58       1.0  0.04120  0.18152  0.13089  1.0000
  C   C61       1.0  0.00140  0.19827  0.09884  1.0000
  H   H59       1.0  0.15499  0.32288  0.07729  1.0000
  C   C62       1.0  0.13223  0.99981  0.12318  1.0000
  H   H60       1.0  0.99820  0.24473  0.07082  1.0000
  H   H61       1.0  0.13624  0.36142  0.06918  1.0000
  H   H62       1.0  0.18327  0.21050  0.98720  1.0000
  H   H63       1.0  0.14614  0.33664  0.06439  1.0000
  H   H64       1.0  0.14153  0.35002  0.14360  1.0000
  S   S26       1.0  0.17524  0.04601  0.16679  1.0000
  C   C63       1.0  0.09018  0.24717  0.09686  1.0000
  H   H65       1.0  0.17675  0.30699  0.07089  1.0000
  H   H66       1.0  0.15918  0.36377  0.08795  1.0000
  Fe  Fe13      1.0  0.15476  0.27609  0.02840  1.0000
  N   N2        1.0  0.19522  0.10809  0.15029  1.0000
  H   H67       1.0  0.20956  0.02918  0.17582  1.0000
  C   C64       1.0  0.21264  0.04984  0.15142  1.0000
  C   C65       1.0  0.18806  0.35818  0.06106  1.0000
  C   C66       1.0  0.18937  0.33826  0.12786  1.0000
  C   C67       1.0  0.11418  0.29944  0.05692  1.0000
  C   C68       1.0  0.18090  0.19741  0.02082  1.0000
  N   N3        1.0  0.22396  0.04065  0.15897  1.0000
  H   H68       1.0  0.17013  0.33540  0.05836  1.0000
  N   N4        1.0  0.10513  0.25806  0.00186  1.0000
  C   C69       1.0  0.21741  0.03577  0.17436  1.0000
  H   H69       1.0  0.20720  0.31577  0.14398  1.0000
  N   N5        1.0  0.12500  0.25963  0.08924  1.0000
  C   C70       1.0  0.12509  0.27370  0.09156  1.0000
  C   C71       1.0  0.13641  0.24859  0.09533  1.0000
  C   C72       1.0  0.12856  0.26070  0.07346  1.0000
  C   C73       1.0  0.11107  0.25573  0.09653  1.0000
  C   C74       1.0  0.10332  0.25075  0.08964  1.0000
  C   C75       1.0  0.10507  0.25641  0.11115  1.0000
  C   C76       1.0  0.19689  0.11879  0.13646  1.0000
  C   C77       1.0  0.09189  0.25287  0.11823  1.0000
  C   C78       1.0  0.08444  0.24830  0.11109  1.0000
  H   H70       1.0  0.12527  0.27328  0.10280  1.0000
  H   H71       1.0  0.13468  0.27783  0.08482  1.0000
  H   H72       1.0  0.11555  0.28188  0.08895  1.0000
  H   H73       1.0  0.13483  0.24774  0.10705  1.0000
  H   H74       1.0  0.14711  0.25106  0.09009  1.0000
  H   H75       1.0  0.13667  0.23784  0.09387  1.0000
  H   H76       1.0  0.11997  0.26827  0.06833  1.0000
  H   H77       1.0  0.13856  0.26463  0.06806  1.0000
  H   H78       1.0  0.13036  0.25012  0.07076  1.0000
  H   H79       1.0  0.10721  0.24938  0.07871  1.0000
  H   H80       1.0  0.11051  0.25961  0.11731  1.0000
  H   H81       1.0  0.08745  0.25363  0.12936  1.0000
  C   C79       1.0  0.19377  0.18900  0.01482  1.0000
  N   N6        1.0  0.13613  0.99822  0.13698  1.0000
  C   C80       1.0  0.19669  0.26123  0.05050  1.0000
  H   H82       1.0  0.17944  0.09581  0.16292  1.0000
  C   C81       1.0  0.22935  0.14371  0.05828  1.0000
  C   C82       1.0  0.13586  0.01240  0.13915  1.0000
  H   H83       1.0  0.12198  0.00774  0.12243  1.0000
  C   C83       1.0  0.14335  0.02197  0.12820  1.0000
  H   H84       1.0  0.23023  0.22289  0.04519  1.0000
  C   C84       1.0  0.14308  0.03549  0.12994  1.0000
  C   C85       1.0  0.13572  0.03970  0.14273  1.0000
  H   H85       1.0  0.11493  0.99686  0.14957  1.0000
  C   C86       1.0  0.18959  0.04077  0.09166  1.0000
  H   H86       1.0  0.18723  0.36416  0.13219  1.0000
  H   H87       1.0  0.16821  0.01052  0.15279  1.0000
  C   C87       1.0  0.99849  0.19597  0.14243  1.0000
  S   S27       1.0  0.19294  0.23337  0.01925  1.0000
  C   C88       1.0  0.01185  0.20432  0.10017  1.0000
  C   C89       1.0  0.12609  0.99045  0.14844  1.0000
  H   H88       1.0  0.09487  0.22957  0.17275  1.0000
  C   C90       1.0  0.22980  0.33088  0.15146  1.0000
  H   H89       1.0  0.14960  0.01901  0.11826  1.0000
  H   H90       1.0  0.17873  0.36026  0.15114  1.0000
  H   H91       1.0  0.14880  0.04272  0.12146  1.0000
  H   H92       1.0  0.18201  0.03517  0.09033  1.0000
  C   C91       1.0  0.18238  0.03428  0.12415  1.0000
  N   N7        1.0  0.07717  0.29660  0.08061  1.0000
  C   C92       1.0  0.07376  0.28801  0.07253  1.0000
  C   C93       1.0  0.07658  0.28810  0.09552  1.0000
  C   C94       1.0  0.06592  0.30994  0.08068  1.0000
  C   C95       1.0  0.09133  0.30027  0.07458  1.0000
  C   C96       1.0  0.10071  0.29609  0.06204  1.0000
  C   C97       1.0  0.09616  0.30817  0.08142  1.0000
  C   C98       1.0  0.10969  0.31134  0.07627  1.0000
  H   H93       1.0  0.08159  0.27760  0.07236  1.0000
  H   H94       1.0  0.06311  0.28529  0.07750  1.0000
  H   H95       1.0  0.07327  0.29395  0.06133  1.0000
  H   H96       1.0  0.08518  0.27828  0.09590  1.0000
  H   H97       1.0  0.06626  0.28470  0.10032  1.0000
  H   H98       1.0  0.07778  0.29414  0.10276  1.0000
  H   H99       1.0  0.06658  0.31699  0.06974  1.0000
  H   H100      1.0  0.05505  0.30762  0.08441  1.0000
  H   H101      1.0  0.06666  0.31623  0.08797  1.0000
  H   H102      1.0  0.09792  0.29021  0.05601  1.0000
  H   H103      1.0  0.08954  0.31183  0.09094  1.0000
  C   C99       1.0  0.18063  0.21084  0.02292  1.0000
  C   C100      1.0  0.14883  0.33781  0.09724  1.0000
  H   H104      1.0  0.12609  0.35291  0.08584  1.0000
  H   H105      1.0  0.13659  0.36464  0.08593  1.0000
  H   H106      1.0  0.14884  0.34585  0.10301  1.0000
  H   H107      1.0  0.13927  0.33324  0.10303  1.0000
  H   H108      1.0  0.15845  0.32903  0.09850  1.0000
  N   N8        1.0  0.21070  0.13638  0.05113  1.0000
  S   S28       1.0  0.22264  0.14634  0.98764  1.0000
  C   C101      1.0  0.22105  0.12519  0.04405  1.0000
  H   H109      1.0  0.20142  0.24693  0.03668  1.0000
  C   C102      1.0  0.21805  0.14742  0.05100  1.0000
  C   C103      1.0  0.16089  0.98426  0.09595  1.0000
  H   H110      1.0  0.16869  0.28754  0.15614  1.0000
  C   C104      1.0  0.12869  0.03037  0.15388  1.0000
  C   C105      1.0  0.12487  0.33812  0.15301  1.0000
  S   S29       1.0  0.10271  0.32375  0.16603  1.0000
  H   H111      1.0  0.06730  0.29525  0.01598  1.0000
  H   H112      1.0  0.10200  0.23653  0.01161  1.0000
  H   H113      1.0  0.02820  0.15801  0.14857  1.0000
  H   H114      1.0  0.17814  0.22498  0.99623  1.0000
  H   H115      1.0  0.11628  0.28177  0.98729  1.0000
  C   C106      1.0  0.09640  0.24788  0.01169  1.0000
  S   S30       1.0  0.20736  0.35916  0.09018  1.0000
  C   C107      1.0  0.20475  0.12961  0.06617  1.0000
  H   H116      1.0  0.16783  0.33570  0.15134  1.0000
  H   H117      1.0  0.08076  0.31384  0.00153  1.0000
  H   H118      1.0  0.17896  0.34154  0.12460  1.0000
  H   H119      1.0  0.14561  0.24586  0.98231  1.0000
  H   H120      1.0  0.17162  0.98389  0.17458  1.0000
  H   H121      1.0  0.21317  0.12359  0.07227  1.0000
  S   S31       1.0  0.08236  0.30451  0.15181  1.0000
  C   C108      1.0  0.17882  0.33308  0.15320  1.0000
  C   C109      1.0  0.19878  0.14211  0.04350  1.0000
  C   C110      1.0  0.12872  0.01691  0.15220  1.0000
  H   H122      1.0  0.20040  0.38593  0.09793  1.0000
  H   H123      1.0  0.19466  0.27571  0.06375  1.0000
  H   H124      1.0  0.12414  0.24276  0.00687  1.0000
  H   H125      1.0  0.11736  0.25634  0.01711  1.0000
  C   C111      1.0  0.22447  0.32057  0.14889  1.0000
  H   H126      1.0  0.00496  0.18842  0.09509  1.0000
  H   H127      1.0  0.21634  0.24732  0.01423  1.0000
  C   C112      1.0  0.22104  0.25126  0.03836  1.0000
  C   C113      1.0  0.02903  0.16606  0.15392  1.0000
  C   C114      1.0  0.18084  0.35706  0.14075  1.0000
  H   H128      1.0  0.18169  0.04572  0.12098  1.0000
  H   H129      1.0  0.09407  0.24896  0.02303  1.0000
  H   H130      1.0  0.17221  0.11406  0.15447  1.0000
  Fe  Fe14      1.0  0.10107  0.31454  0.14818  1.0000
  H   H131      1.0  0.14557  0.29528  0.15501  1.0000
  H   H132      1.0  0.02307  0.19921  0.09752  1.0000
  C   C115      1.0  0.10789  0.25584  0.98710  1.0000
  H   H133      1.0  0.19309  0.32662  0.12817  1.0000
  C   C116      1.0  0.00799  0.21721  0.10454  1.0000
  H   H134      1.0  0.20483  0.04377  0.15151  1.0000
  H   H135      1.0  0.13564  0.05015  0.14408  1.0000
  C   C117      1.0  0.11869  0.30695  0.06406  1.0000
  C   C118      1.0  0.17437  0.02903  0.13764  1.0000
  H   H136      1.0  0.21337  0.39621  0.15682  1.0000
  C   C119      1.0  0.22859  0.22717  0.03402  1.0000
  H   H137      1.0  0.12391  0.33699  0.14285  1.0000
  C   C120      1.0  0.18459  0.34815  0.05607  1.0000
  Fe  Fe15      1.0  0.15138  0.26790  0.00160  1.0000
  C   C121      1.0  0.17874  0.36374  0.07249  1.0000
  H   H138      1.0  0.20532  0.07723  0.12275  1.0000
  H   H139      1.0  0.12924  0.30929  0.06014  1.0000
  H   H140      1.0  0.08445  0.24335  0.09143  1.0000
  S   S32       1.0  0.19401  0.17287  0.01086  1.0000
  C   C122      1.0  0.02406  0.19070  0.15507  1.0000
  H   H141      1.0  0.22188  0.12646  0.16968  1.0000
  H   H142      1.0  0.15415  0.98815  0.14670  1.0000
  S   S33       1.0  0.15720  0.06818  0.13538  1.0000
  H   H143      1.0  0.23290  0.13282  0.06388  1.0000
  H   H144      1.0  0.23078  0.30973  0.14951  1.0000
  N   N9        1.0  0.23070  0.24208  0.02855  1.0000
  C   C123      1.0  0.20899  0.03888  0.10250  1.0000
  H   H145      1.0  0.12315  0.01022  0.16134  1.0000
  C   C124      1.0  0.09935  0.29868  0.99366  1.0000
  H   H146      1.0  0.21644  0.18730  0.00714  1.0000
  N   N10       1.0  0.18809  0.34172  0.14180  1.0000
  H   H147      1.0  0.20266  0.14662  0.03187  1.0000
  S   S34       1.0  0.09974  0.26285  0.15823  1.0000
  C   C125      1.0  0.19091  0.02502  0.11492  1.0000
  C   C126      1.0  0.10561  0.28424  0.99377  1.0000
  C   C127      1.0  0.15071  0.98921  0.13665  1.0000
  C   C128      1.0  0.13487  0.34544  0.15348  1.0000
  H   H148      1.0  0.22051  0.27449  0.05848  1.0000
  H   H149      1.0  0.22983  0.11954  0.04976  1.0000
  H   H150      1.0  0.22191  0.02137  0.15456  1.0000
  H   H151      1.0  0.21833  0.11759  0.15072  1.0000
  H   H152      1.0  0.19651  0.00237  0.11363  1.0000
  C   C129      1.0  0.20618  0.20709  0.01373  1.0000
  H   H153      1.0  0.18314  0.05010  0.09637  1.0000
  H   H154      1.0  0.21994  0.06433  0.16981  1.0000
  C   C130      1.0  0.21445  0.16196  0.04363  1.0000
  H   H155      1.0  0.20494  0.09004  0.14043  1.0000
  H   H156      1.0  0.12332  0.08891  0.17220  1.0000
  S   S35       1.0  0.22929  0.38348  0.13092  1.0000
  C   C131      1.0  0.20804  0.34841  0.14806  1.0000
  Fe  Fe16      1.0  0.15668  0.06135  0.15896  1.0000
  H   H157      1.0  0.15923  0.99383  0.08759  1.0000
  Fe  Fe17      1.0  0.21587  0.16503  0.99823  1.0000
  N   N11       1.0  0.02201  0.18080  0.14749  1.0000
  H   H158      1.0  0.19701  0.34384  0.11917  1.0000
  C   C132      1.0  0.00661  0.18256  0.14840  1.0000
  H   H159      1.0  0.02692  0.17810  0.12577  1.0000
  H   H160      1.0  0.21772  0.22636  0.03405  1.0000
  H   H161      1.0  0.18290  0.32142  0.15382  1.0000
  H   H162      1.0  0.03555  0.18952  0.15470  1.0000
  H   H163      1.0  0.19264  0.28955  0.15513  1.0000
  H   H164      1.0  0.19800  0.29555  0.17538  1.0000
  H   H165      1.0  0.19051  0.15062  0.04825  1.0000
  C   C133      1.0  0.18260  0.00510  0.13350  1.0000
  C   C134      1.0  0.22956  0.36158  0.11813  1.0000
  H   H166      1.0  0.20619  0.16582  0.03757  1.0000
  H   H167      1.0  0.19750  0.13776  0.07214  1.0000
  N   N12       1.0  0.19938  0.03086  0.10070  1.0000
  H   H168      1.0  0.21594  0.11681  0.04358  1.0000
  C   C135      1.0  0.99936  0.17114  0.15470  1.0000
  S   S36       1.0  0.18563  0.99113  0.09486  1.0000
  H   H169      1.0  0.14051  0.00325  0.11368  1.0000
  S   S37       1.0  0.22465  0.32721  0.06946  1.0000
  C   C136      1.0  0.20844  0.37900  0.10362  1.0000
  S   S38       1.0  0.23418  0.15864  0.00903  1.0000
  H   H170      1.0  0.21598  0.21085  0.01078  1.0000
  C   C137      1.0  0.17451  0.01448  0.14232  1.0000
  S   S39       1.0  0.06835  0.20506  0.16037  1.0000
  C   C138      1.0  0.21679  0.39942  0.16465  1.0000
  H   H171      1.0  0.20238  0.35939  0.14786  1.0000
  C   C139      1.0  0.20195  0.26889  0.05681  1.0000
  H   H172      1.0  0.09588  0.28536  0.17247  1.0000
  H   H173      1.0  0.16781  0.03632  0.14444  1.0000
  C   C140      1.0  0.08417  0.27770  0.00991  1.0000
  C   C141      1.0  0.07800  0.29218  0.00968  1.0000
  H   H174      1.0  0.19860  0.12166  0.06673  1.0000
  H   H175      1.0  0.21598  0.01179  0.09900  1.0000
  C   C142      1.0  0.10426  0.26273  0.17404  1.0000
  C   C143      1.0  0.17955  0.22235  0.98572  1.0000
  C   C144      1.0  0.19065  0.01023  0.11996  1.0000
  C   C145      1.0  0.19710  0.11369  0.16178  1.0000
  S   S40       1.0  0.05657  0.16771  0.17186  1.0000
  C   C146      1.0  0.18106  0.10453  0.15316  1.0000
  H   H176      1.0  0.12322  0.03359  0.16395  1.0000
  H   H177      1.0  0.04063  0.16503  0.15283  1.0000
  H   H178      1.0  0.12671  0.26046  0.99878  1.0000
  C   C147      1.0  0.20236  0.33823  0.14514  1.0000
  H   H179      1.0  0.10526  0.30682  0.98735  1.0000
  H   H180      1.0  0.09782  0.25882  0.98324  1.0000
  H   H181      1.0  0.19554  0.04519  0.08076  1.0000
  H   H182      1.0  0.20886  0.39526  0.11374  1.0000
  H   H183      1.0  0.15871  0.99369  0.12744  1.0000
  H   H184      1.0  0.20409  0.22877  0.98760  1.0000
  H   H185      1.0  0.99083  0.23440  0.11065  1.0000
  H   H186      1.0  0.17019  0.35938  0.13815  1.0000
  C   C148      1.0  0.02944  0.18421  0.13218  1.0000
  H   H187      1.0  0.18949  0.12929  0.13751  1.0000
  H   H188      1.0  0.07771  0.27021  0.01659  1.0000
  Fe  Fe18      1.0  0.22625  0.09406  0.10382  1.0000
  C   C149      1.0  0.22395  0.37577  0.11978  1.0000
  H   H189      1.0  0.21729  0.05426  0.13997  1.0000
  S   S41       1.0  0.14030  0.04958  0.17399  1.0000
  H   H190      1.0  0.23177  0.41054  0.14873  1.0000
  C   C150      1.0  0.21329  0.38432  0.11256  1.0000
  H   H191      1.0  0.01845  0.18861  0.16660  1.0000
  C   C151      1.0  0.18679  0.11443  0.17489  1.0000
  H   H192      1.0  0.22843  0.25896  0.00981  1.0000
  H   H193      1.0  0.18526  0.26226  0.05244  1.0000
  C   C152      1.0  0.21386  0.36487  0.10200  1.0000
  H   H194      1.0  0.21725  0.09680  0.14531  1.0000
  C   C153      1.0  0.14007  0.30011  0.16444  1.0000
  H   H195      1.0  0.08312  0.22449  0.16519  1.0000
  C   C154      1.0  0.20625  0.09485  0.14866  1.0000
  C   C155      1.0  0.21208  0.12310  0.17109  1.0000
  C   C156      1.0  0.22425  0.35603  0.10953  1.0000
  H   H196      1.0  0.08031  0.24255  0.16645  1.0000
  C   C157      1.0  0.17047  0.29022  0.16522  1.0000
  C   C158      1.0  0.22170  0.17206  0.04367  1.0000
  C   C159      1.0  0.23265  0.16806  0.05103  1.0000
  H   H197      1.0  0.23409  0.03060  0.14098  1.0000
  C   C160      1.0  0.22156  0.34471  0.15116  1.0000
  H   H198      1.0  0.22571  0.35271  0.15322  1.0000
  H   H199      1.0  0.12850  0.30119  0.16533  1.0000
  H   H200      1.0  0.14195  0.31111  0.16198  1.0000
  C   C161      1.0  0.22739  0.24762  0.01410  1.0000
  C   C162      1.0  0.18429  0.29126  0.16456  1.0000
  C   C163      1.0  0.22603  0.25940  0.04484  1.0000
  S   S42       1.0  0.98771  0.26379  0.09102  1.0000
  H   H201      1.0  0.02444  0.16305  0.16565  1.0000
  S   S43       1.0  0.23322  0.07915  0.12321  1.0000
  C   C164      1.0  0.23458  0.04905  0.15746  1.0000
  Fe  Fe19      1.0  0.23244  0.30842  0.08598  1.0000
  C   C165      1.0  0.23178  0.41157  0.17013  1.0000
  C   C166      1.0  0.98683  0.24562  0.07474  1.0000
  S   S44       1.0  0.08788  0.13415  0.17010  1.0000
  S   S45       1.0  0.22600  0.17975  0.97907  1.0000
  H   H202      1.0  0.18563  0.24778  0.98458  1.0000
  H   H203      1.0  0.11297  0.24450  0.98650  1.0000
  H   H204      1.0  0.13092  0.98950  0.12198  1.0000
  Fe  Fe20      1.0  0.06595  0.18398  0.17532  1.0000
  H   H205      1.0  0.02011  0.20215  0.15025  1.0000
  H   H206      1.0  0.23625  0.26944  0.11899  1.0000
  H   H207      1.0  0.11522  0.26242  0.97924  1.0000
  S   S46       1.0  0.15430  0.07631  0.17294  1.0000
  H   H208      1.0  0.22840  0.34508  0.10846  1.0000
  H   H209      1.0  0.16884  0.22534  0.98311  1.0000
  C   C167      1.0  0.22713  0.40757  0.16011  1.0000
  C   C168      1.0  0.20394  0.22505  0.97809  1.0000
  H   H210      1.0  0.23462  0.24118  0.00631  1.0000
  H   H211      1.0  0.98882  0.19078  0.08120  1.0000
  H   H212      1.0  0.98742  0.17653  0.10600  1.0000
  S   S47       1.0  0.14850  0.27542  0.97842  1.0000
  S   S48       1.0  0.22215  0.98200  0.07068  1.0000
  H   H213      1.0  0.23616  0.21982  0.02725  1.0000
  C   C169      1.0  0.15921  0.29257  0.17731  1.0000
  H   H214      1.0  0.17695  0.11091  0.17725  1.0000
  H   H215      1.0  0.12585  0.10611  0.20092  1.0000
  H   H216      1.0  0.16382  0.09479  0.21677  1.0000
  Fe  Fe21      1.0  0.18596  0.12717  0.25145  1.0000
  S   S49       1.0  0.19977  0.10693  0.26108  1.0000
  S   S50       1.0  0.16551  0.13779  0.26408  1.0000
  H   H217      1.0  0.21085  0.41137  0.21219  1.0000
  H   H218      1.0  0.99248  0.18237  0.18926  1.0000
  Fe  Fe22      1.0  0.20373  0.10179  0.23937  1.0000
  S   S51       1.0  0.20165  0.08028  0.23779  1.0000
  S   S52       1.0  0.20318  0.13952  0.24358  1.0000
  S   S53       1.0  0.18875  0.12150  0.23039  1.0000
  H   H219      1.0  0.18292  0.31591  0.35764  1.0000
  C   C170      1.0  0.23154  0.33678  0.18369  1.0000
  C   C171      1.0  0.18490  0.35630  0.34790  1.0000
  H   H220      1.0  0.13391  0.01277  0.19148  1.0000
  H   H221      1.0  0.21046  0.18515  0.31324  1.0000
  C   C172      1.0  0.22037  0.12885  0.31077  1.0000
  H   H222      1.0  0.11781  0.15105  0.21146  1.0000
  Fe  Fe23      1.0  0.13969  0.06309  0.18897  1.0000
  S   S54       1.0  0.11985  0.07456  0.20233  1.0000
  H   H223      1.0  0.02096  0.14166  0.19915  1.0000
  S   S55       1.0  0.15702  0.04720  0.19927  1.0000
  S   S56       1.0  0.20022  0.45560  0.27677  1.0000
  Fe  Fe24      1.0  0.22385  0.40273  0.28166  1.0000
  S   S57       1.0  0.20058  0.41316  0.28542  1.0000
  H   H224      1.0  0.22240  0.30748  0.21781  1.0000
  H   H225      1.0  0.17880  0.22740  0.29947  1.0000
  S   S58       1.0  0.20623  0.42901  0.25133  1.0000
  Fe  Fe25      1.0  0.20797  0.43327  0.27187  1.0000
  H   H226      1.0  0.11007  0.33033  0.18860  1.0000
  Fe  Fe26      1.0  0.20131  0.40785  0.26445  1.0000
  S   S59       1.0  0.18652  0.39487  0.26276  1.0000
  H   H227      1.0  0.22567  0.02928  0.18051  1.0000
  S   S60       1.0  0.22422  0.39623  0.26172  1.0000
  H   H228      1.0  0.11933  0.99574  0.19285  1.0000
  Fe  Fe27      1.0  0.17189  0.36385  0.20374  1.0000
  S   S61       1.0  0.17757  0.34202  0.21751  1.0000
  S   S62       1.0  0.17828  0.38318  0.20616  1.0000
  Fe  Fe28      1.0  0.15663  0.35307  0.18697  1.0000
  S   S63       1.0  0.16068  0.33073  0.20016  1.0000
  C   C173      1.0  0.14490  0.09922  0.20867  1.0000
  Fe  Fe29      1.0  0.15514  0.34101  0.21888  1.0000
  S   S64       1.0  0.14301  0.33106  0.24027  1.0000
  Fe  Fe30      1.0  0.18256  0.33388  0.19749  1.0000
  S   S65       1.0  0.14890  0.36337  0.20613  1.0000
  S   S66       1.0  0.17909  0.35574  0.18322  1.0000
  C   C174      1.0  0.07464  0.26003  0.20021  1.0000
  H   H229      1.0  0.20746  0.20036  0.21425  1.0000
  H   H230      1.0  0.20300  0.34381  0.24337  1.0000
  C   C175      1.0  0.11449  0.09538  0.17834  1.0000
  N   N13       1.0  0.20914  0.11087  0.30640  1.0000
  S   S67       1.0  0.20939  0.36854  0.36383  1.0000
  C   C176      1.0  0.14249  0.38095  0.23402  1.0000
  C   C177      1.0  0.21808  0.33359  0.18685  1.0000
  Fe  Fe31      1.0  0.14286  0.21620  0.23812  1.0000
  S   S68       1.0  0.12830  0.21206  0.25990  1.0000
  S   S69       1.0  0.16334  0.20157  0.23050  1.0000
  Fe  Fe32      1.0  0.12397  0.24435  0.22795  1.0000
  S   S70       1.0  0.10793  0.24257  0.24876  1.0000
  S   S71       1.0  0.12013  0.26488  0.21180  1.0000
  Fe  Fe33      1.0  0.12698  0.23530  0.25888  1.0000
  S   S72       1.0  0.12748  0.24590  0.27621  1.0000
  Fe  Fe34      1.0  0.11098  0.21971  0.24731  1.0000
  S   S73       1.0  0.09196  0.20975  0.25133  1.0000
  S   S74       1.0  0.14276  0.23867  0.23796  1.0000
  S   S75       1.0  0.12576  0.22217  0.22571  1.0000
  Fe  Fe35      1.0  0.04400  0.16706  0.19450  1.0000
  C   C178      1.0  0.16272  0.29576  0.18879  1.0000
  S   S76       1.0  0.01967  0.17200  0.19704  1.0000
  Fe  Fe36      1.0  0.07060  0.16722  0.20490  1.0000
  H   H231      1.0  0.21153  0.42809  0.19941  1.0000
  S   S77       1.0  0.08443  0.16611  0.22014  1.0000
  H   H232      1.0  0.15601  0.39931  0.23673  1.0000
  C   C179      1.0  0.22179  0.21188  0.32717  1.0000
  N   N14       1.0  0.13777  0.38961  0.24512  1.0000
  S   S78       1.0  0.05266  0.18453  0.19744  1.0000
  S   S79       1.0  0.06082  0.14944  0.20435  1.0000
  Fe  Fe37      1.0  0.19644  0.28016  0.31809  1.0000
  S   S80       1.0  0.20752  0.29709  0.30323  1.0000
  S   S81       1.0  0.19392  0.27533  0.34215  1.0000
  Fe  Fe38      1.0  0.18991  0.27138  0.29362  1.0000
  S   S82       1.0  0.20049  0.28797  0.27715  1.0000
  S   S83       1.0  0.18498  0.25596  0.28350  1.0000
  Fe  Fe39      1.0  0.21760  0.28090  0.28954  1.0000
  H   H233      1.0  0.15525  0.39369  0.26096  1.0000
  Fe  Fe40      1.0  0.18935  0.30243  0.29233  1.0000
  S   S84       1.0  0.18025  0.32557  0.28394  1.0000
  S   S85       1.0  0.20796  0.26330  0.30528  1.0000
  S   S86       1.0  0.17727  0.28658  0.30808  1.0000
  C   C180      1.0  0.16872  0.25420  0.28107  1.0000
  C   C181      1.0  0.15540  0.26041  0.28859  1.0000
  C   C182      1.0  0.14286  0.25772  0.28706  1.0000
  C   C183      1.0  0.14349  0.24900  0.27787  1.0000
  C   C184      1.0  0.15680  0.24301  0.27018  1.0000
  C   C185      1.0  0.16933  0.24551  0.27186  1.0000
  H   H234      1.0  0.15478  0.26699  0.29583  1.0000
  H   H235      1.0  0.13262  0.26233  0.29313  1.0000
  H   H236      1.0  0.15746  0.23626  0.26309  1.0000
  H   H237      1.0  0.17958  0.24065  0.26601  1.0000
  C   C186      1.0  0.08929  0.20029  0.23995  1.0000
  C   C187      1.0  0.10033  0.19511  0.22916  1.0000
  C   C188      1.0  0.09843  0.18545  0.22218  1.0000
  C   C189      1.0  0.08535  0.18128  0.22557  1.0000
  C   C190      1.0  0.07408  0.18723  0.23566  1.0000
  C   C191      1.0  0.07606  0.19660  0.24284  1.0000
  H   H238      1.0  0.11056  0.19791  0.22677  1.0000
  H   H239      1.0  0.10731  0.18075  0.21457  1.0000
  H   H240      1.0  0.06405  0.18388  0.23865  1.0000
  H   H241      1.0  0.06745  0.20052  0.25116  1.0000
  H   H242      1.0  0.13442  0.15150  0.27040  1.0000
  H   H243      1.0  0.11864  0.40183  0.23781  1.0000
  C   C192      1.0  0.20982  0.29237  0.34654  1.0000
  C   C193      1.0  0.20092  0.28249  0.35244  1.0000
  H   H244      1.0  0.22422  0.39627  0.35970  1.0000
  Fe  Fe41      1.0  0.22222  0.34875  0.37604  1.0000
  H   H245      1.0  0.14092  0.13834  0.21093  1.0000
  C   C194      1.0  0.21214  0.31108  0.22512  1.0000
  C   C195      1.0  0.09581  0.11716  0.17919  1.0000
  C   C196      1.0  0.15267  0.32974  0.25297  1.0000
  C   C197      1.0  0.15424  0.31750  0.26402  1.0000
  C   C198      1.0  0.16279  0.31612  0.27356  1.0000
  C   C199      1.0  0.16937  0.32720  0.27232  1.0000
  C   C200      1.0  0.16759  0.33953  0.26144  1.0000
  C   C201      1.0  0.15935  0.34074  0.25171  1.0000
  H   H246      1.0  0.14917  0.30893  0.26503  1.0000
  H   H247      1.0  0.16419  0.30653  0.28192  1.0000
  H   H248      1.0  0.17267  0.34810  0.26046  1.0000
  H   H249      1.0  0.15807  0.35026  0.24330  1.0000
  C   C202      1.0  0.21795  0.41872  0.20569  1.0000
  C   C203      1.0  0.12205  0.39469  0.24766  1.0000
  H   H250      1.0  0.08338  0.21879  0.21297  1.0000
  C   C204      1.0  0.11310  0.26354  0.19810  1.0000
  C   C205      1.0  0.13378  0.29617  0.19009  1.0000
  C   C206      1.0  0.21888  0.15571  0.27890  1.0000
  S   S87       1.0  0.23114  0.42304  0.26970  1.0000
  H   H251      1.0  0.19915  0.44158  0.34253  1.0000
  H   H252      1.0  0.10329  0.28604  0.19368  1.0000
  C   C207      1.0  0.21981  0.35967  0.28437  1.0000
  H   H253      1.0  0.15417  0.37643  0.23221  1.0000
  H   H254      1.0  0.15320  0.35573  0.29368  1.0000
  H   H255      1.0  0.20861  0.34207  0.18770  1.0000
  C   C208      1.0  0.19197  0.33418  0.36411  1.0000
  C   C209      1.0  0.20971  0.10878  0.29204  1.0000
  H   H256      1.0  0.20044  0.10470  0.29203  1.0000
  C   C210      1.0  0.21410  0.38786  0.32152  1.0000
  C   C211      1.0  0.20839  0.38383  0.33633  1.0000
  C   C212      1.0  0.21671  0.37355  0.34533  1.0000
  C   C213      1.0  0.19860  0.17841  0.24667  1.0000
  H   H257      1.0  0.99777  0.16849  0.22652  1.0000
  H   H258      1.0  0.20768  0.39581  0.31464  1.0000
  H   H259      1.0  0.19755  0.38875  0.34084  1.0000
  C   C214      1.0  0.00805  0.16288  0.19426  1.0000
  H   H260      1.0  0.10470  0.12066  0.20982  1.0000
  C   C215      1.0  0.18643  0.39087  0.24647  1.0000
  C   C216      1.0  0.18745  0.40115  0.23357  1.0000
  C   C217      1.0  0.18527  0.39845  0.22126  1.0000
  C   C218      1.0  0.18225  0.38539  0.22162  1.0000
  C   C219      1.0  0.18171  0.37490  0.23440  1.0000
  C   C220      1.0  0.18368  0.37769  0.24677  1.0000
  H   H261      1.0  0.18922  0.41145  0.23327  1.0000
  H   H262      1.0  0.18551  0.40671  0.21149  1.0000
  H   H263      1.0  0.17945  0.36478  0.23485  1.0000
  H   H264      1.0  0.18278  0.36970  0.25671  1.0000
  C   C221      1.0  0.07957  0.25350  0.21277  1.0000
  H   H265      1.0  0.21942  0.10103  0.28805  1.0000
  H   H266      1.0  0.20853  0.16222  0.28253  1.0000
  H   H267      1.0  0.21880  0.08859  0.31355  1.0000
  H   H268      1.0  0.07252  0.27159  0.19668  1.0000
  C   C222      1.0  0.23304  0.46766  0.28394  1.0000
  C   C223      1.0  0.15081  0.38426  0.26533  1.0000
  N   N15       1.0  0.11911  0.13507  0.20001  1.0000
  C   C224      1.0  0.21699  0.31949  0.18865  1.0000
  C   C225      1.0  0.22737  0.18303  0.24749  1.0000
  C   C226      1.0  0.11029  0.09060  0.19319  1.0000
  C   C227      1.0  0.11715  0.33431  0.17882  1.0000
  N   N16       1.0  0.20876  0.18480  0.23417  1.0000
  H   H269      1.0  0.09931  0.12690  0.24761  1.0000
  C   C228      1.0  0.09145  0.11230  0.19401  1.0000
  C   C229      1.0  0.09865  0.09902  0.20098  1.0000
  H   H270      1.0  0.22543  0.21910  0.33100  1.0000
  C   C230      1.0  0.99490  0.17083  0.19091  1.0000
  H   H271      1.0  0.08255  0.11877  0.20009  1.0000
  H   H272      1.0  0.09527  0.09530  0.21246  1.0000
  C   C231      1.0  0.16374  0.15562  0.25478  1.0000
  C   C232      1.0  0.15724  0.16672  0.26205  1.0000
  C   C233      1.0  0.15689  0.18095  0.25455  1.0000
  C   C234      1.0  0.16295  0.18401  0.23983  1.0000
  C   C235      1.0  0.16926  0.17291  0.23257  1.0000
  C   C236      1.0  0.16960  0.15873  0.24004  1.0000
  H   H273      1.0  0.15295  0.16432  0.27351  1.0000
  H   H274      1.0  0.15250  0.18947  0.26029  1.0000
  H   H275      1.0  0.17396  0.17526  0.22118  1.0000
  H   H276      1.0  0.17451  0.15021  0.23434  1.0000
  C   C237      1.0  0.19703  0.07859  0.22251  1.0000
  C   C238      1.0  0.18853  0.06894  0.22410  1.0000
  C   C239      1.0  0.18565  0.06650  0.21202  1.0000
  C   C240      1.0  0.19174  0.07328  0.19821  1.0000
  C   C241      1.0  0.20031  0.08287  0.19661  1.0000
  C   C242      1.0  0.20265  0.08580  0.20870  1.0000
  H   H277      1.0  0.18425  0.06322  0.23474  1.0000
  H   H278      1.0  0.17915  0.05898  0.21340  1.0000
  H   H279      1.0  0.20354  0.12753  0.19217  1.0000
  H   H280      1.0  0.20930  0.09317  0.20733  1.0000
  H   H281      1.0  0.99264  0.14500  0.22903  1.0000
  H   H282      1.0  0.12287  0.29594  0.18968  1.0000
  H   H283      1.0  0.20755  0.41757  0.35088  1.0000
  S   S88       1.0  0.08435  0.16795  0.18277  1.0000
  C   C243      1.0  0.22819  0.38167  0.31573  1.0000
  C   C244      1.0  0.12194  0.12074  0.24626  1.0000
  H   H284      1.0  0.17520  0.30496  0.34315  1.0000
  H   H285      1.0  0.18995  0.44895  0.32823  1.0000
  N   N17       1.0  0.07434  0.22797  0.18674  1.0000
  C   C245      1.0  0.22927  0.30853  0.18775  1.0000
  H   H286      1.0  0.14119  0.40871  0.22884  1.0000
  H   H287      1.0  0.22855  0.25203  0.32755  1.0000
  H   H288      1.0  0.19456  0.13141  0.30318  1.0000
  Fe  Fe42      1.0  0.15880  0.03466  0.18273  1.0000
  H   H289      1.0  0.21079  0.45714  0.31281  1.0000
  C   C246      1.0  0.22507  0.45956  0.28107  1.0000
  C   C247      1.0  0.10555  0.13163  0.20937  1.0000
  H   H290      1.0  0.19351  0.12204  0.32182  1.0000
  H   H291      1.0  0.12997  0.36448  0.26111  1.0000
  H   H292      1.0  0.17901  0.29932  0.19683  1.0000
  C   C248      1.0  0.23051  0.35481  0.21801  1.0000
  Fe  Fe43      1.0  0.07379  0.15139  0.18168  1.0000
  N   N18       1.0  0.19333  0.34136  0.34866  1.0000
  H   H293      1.0  0.18669  0.36307  0.33686  1.0000
  H   H294      1.0  0.22765  0.44511  0.30941  1.0000
  H   H295      1.0  0.06952  0.25730  0.18196  1.0000
  C   C249      1.0  0.18838  0.33422  0.34036  1.0000
  C   C250      1.0  0.18329  0.32138  0.34654  1.0000
  C   C251      1.0  0.18877  0.34002  0.32550  1.0000
  H   H296      1.0  0.18781  0.36175  0.35469  1.0000
  C   C252      1.0  0.18424  0.33344  0.31740  1.0000
  C   C253      1.0  0.17925  0.32093  0.32379  1.0000
  H   H297      1.0  0.19975  0.09267  0.31782  1.0000
  C   C254      1.0  0.14161  0.12763  0.21001  1.0000
  H   H298      1.0  0.22841  0.29760  0.18928  1.0000
  C   C255      1.0  0.14979  0.36282  0.28421  1.0000
  H   H299      1.0  0.08124  0.25995  0.21903  1.0000
  H   H300      1.0  0.20933  0.09788  0.32767  1.0000
  C   C256      1.0  0.22433  0.30519  0.24445  1.0000
  H   H301      1.0  0.19230  0.35116  0.27724  1.0000
  C   C257      1.0  0.23343  0.20398  0.24986  1.0000
  C   C258      1.0  0.11579  0.25054  0.19397  1.0000
  H   H302      1.0  0.19266  0.34965  0.32002  1.0000
  C   C259      1.0  0.21113  0.29266  0.37068  1.0000
  H   H303      1.0  0.18608  0.11658  0.31041  1.0000
  C   C260      1.0  0.13134  0.12422  0.20485  1.0000
  C   C261      1.0  0.23533  0.18917  0.25264  1.0000
  C   C262      1.0  0.07296  0.25171  0.19184  1.0000
  H   H304      1.0  0.23238  0.34771  0.18212  1.0000
  C   C263      1.0  0.22604  0.40756  0.18512  1.0000
  C   C264      1.0  0.22748  0.25326  0.34905  1.0000
  C   C265      1.0  0.18916  0.11940  0.18566  1.0000
  C   C266      1.0  0.23448  0.25547  0.35831  1.0000
  H   H305      1.0  0.14610  0.08817  0.20820  1.0000
  H   H306      1.0  0.11036  0.14305  0.18095  1.0000
  C   C267      1.0  0.19525  0.12069  0.31067  1.0000
  H   H307      1.0  0.13350  0.30740  0.19010  1.0000
  H   H308      1.0  0.23527  0.16091  0.18122  1.0000
  H   H309      1.0  0.19573  0.30857  0.25097  1.0000
  H   H310      1.0  0.18464  0.33798  0.30607  1.0000
  H   H311      1.0  0.20527  0.08798  0.18598  1.0000
  C   C268      1.0  0.22347  0.21273  0.24196  1.0000
  C   C269      1.0  0.20042  0.19498  0.22381  1.0000
  C   C270      1.0  0.05927  0.23167  0.18543  1.0000
  S   S89       1.0  0.18976  0.06938  0.18266  1.0000
  N   N19       1.0  0.23058  0.41166  0.19608  1.0000
  C   C271      1.0  0.21314  0.21728  0.31716  1.0000
  H   H312      1.0  0.23106  0.25244  0.28457  1.0000
  C   C272      1.0  0.21813  0.35511  0.22882  1.0000
  C   C273      1.0  0.22165  0.11624  0.30605  1.0000
  C   C274      1.0  0.10565  0.27599  0.19045  1.0000
  C   C275      1.0  0.16016  0.98664  0.17833  1.0000
  C   C276      1.0  0.20622  0.36111  0.28224  1.0000
  H   H313      1.0  0.05747  0.22510  0.17896  1.0000
  C   C277      1.0  0.21300  0.33728  0.27789  1.0000
  C   C278      1.0  0.08084  0.23021  0.20892  1.0000
  H   H314      1.0  0.20413  0.17037  0.25475  1.0000
  H   H315      1.0  0.19226  0.17280  0.24340  1.0000
  H   H316      1.0  0.13701  0.34933  0.28299  1.0000
  C   C279      1.0  0.20003  0.31846  0.24709  1.0000
  C   C280      1.0  0.19736  0.27774  0.36734  1.0000
  H   H317      1.0  0.15495  0.29762  0.19847  1.0000
  H   H318      1.0  0.22598  0.30865  0.25347  1.0000
  C   C281      1.0  0.14064  0.35924  0.27818  1.0000
  N   N20       1.0  0.19972  0.21404  0.30082  1.0000
  H   H319      1.0  0.13715  0.37182  0.23693  1.0000
  H   H320      1.0  0.16083  0.11986  0.21823  1.0000
  H   H321      1.0  0.22196  0.22428  0.23988  1.0000
  C   C282      1.0  0.19704  0.43910  0.33318  1.0000
  H   H322      1.0  0.17584  0.31581  0.31744  1.0000
  Fe  Fe44      1.0  0.20773  0.13152  0.22355  1.0000
  H   H323      1.0  0.08646  0.23359  0.22693  1.0000
  H   H324      1.0  0.07682  0.20614  0.18526  1.0000
  H   H325      1.0  0.11646  0.38572  0.25084  1.0000
  H   H326      1.0  0.22981  0.13819  0.22533  1.0000
  H   H327      1.0  0.21222  0.16888  0.22185  1.0000
  H   H328      1.0  0.14419  0.11739  0.24592  1.0000
  H   H329      1.0  0.20531  0.31960  0.21848  1.0000
  C   C283      1.0  0.21992  0.14465  0.27216  1.0000
  C   C284      1.0  0.98732  0.14901  0.19296  1.0000
  H   H330      1.0  0.22559  0.17632  0.33042  1.0000
  H   H331      1.0  0.20214  0.42284  0.31344  1.0000
  H   H332      1.0  0.18053  0.21728  0.31721  1.0000
  Fe  Fe45      1.0  0.21746  0.11893  0.25144  1.0000
  C   C285      1.0  0.15316  0.11708  0.21425  1.0000
  H   H333      1.0  0.22695  0.17725  0.21830  1.0000
  C   C286      1.0  0.23337  0.41625  0.31992  1.0000
  C   C287      1.0  0.15479  0.37534  0.27784  1.0000
  H   H334      1.0  0.09609  0.13911  0.20556  1.0000
  C   C288      1.0  0.21819  0.17328  0.22691  1.0000
  C   C289      1.0  0.20248  0.28268  0.37633  1.0000
  H   H335      1.0  0.23176  0.06750  0.21762  1.0000
  C   C290      1.0  0.18620  0.22325  0.30696  1.0000
  H   H336      1.0  0.19829  0.37099  0.28306  1.0000
  H   H337      1.0  0.14028  0.38745  0.22345  1.0000
  C   C291      1.0  0.20858  0.34164  0.34244  1.0000
  H   H338      1.0  0.14174  0.13989  0.25240  1.0000
  C   C292      1.0  0.12740  0.34119  0.17935  1.0000
  H   H339      1.0  0.21787  0.21630  0.28324  1.0000
  H   H340      1.0  0.22186  0.36863  0.28697  1.0000
  C   C293      1.0  0.21121  0.39502  0.17926  1.0000
  Fe  Fe46      1.0  0.17167  0.05995  0.18229  1.0000
  C   C294      1.0  0.20925  0.09690  0.31681  1.0000
  Fe  Fe47      1.0  0.22912  0.41757  0.25009  1.0000
  H   H341      1.0  0.10971  0.15775  0.19648  1.0000
  C   C295      1.0  0.23582  0.14406  0.21595  1.0000
  H   H342      1.0  0.07127  0.20888  0.20312  1.0000
  N   N21       1.0  0.12644  0.28783  0.24773  1.0000
  C   C296      1.0  0.11658  0.28339  0.26157  1.0000
  C   C297      1.0  0.13594  0.27482  0.24307  1.0000
  C   C298      1.0  0.13552  0.29587  0.25040  1.0000
  C   C299      1.0  0.11808  0.29615  0.23678  1.0000
  C   C300      1.0  0.10906  0.28978  0.23296  1.0000
  C   C301      1.0  0.11853  0.31060  0.22965  1.0000
  C   C302      1.0  0.10111  0.29730  0.22259  1.0000
  C   C303      1.0  0.11042  0.31807  0.21937  1.0000
  C   C304      1.0  0.10173  0.31143  0.21586  1.0000
  H   H343      1.0  0.11061  0.27576  0.26100  1.0000
  H   H344      1.0  0.12242  0.27771  0.27030  1.0000
  H   H345      1.0  0.10865  0.29279  0.26502  1.0000
  H   H346      1.0  0.12984  0.26736  0.24245  1.0000
  H   H347      1.0  0.14286  0.26856  0.25074  1.0000
  H   H348      1.0  0.14295  0.27761  0.23229  1.0000
  H   H349      1.0  0.12901  0.30554  0.25452  1.0000
  H   H350      1.0  0.14174  0.28923  0.25861  1.0000
  H   H351      1.0  0.14344  0.29932  0.24050  1.0000
  H   H352      1.0  0.10821  0.27881  0.23783  1.0000
  H   H353      1.0  0.12501  0.31643  0.23184  1.0000
  H   H354      1.0  0.09455  0.29203  0.21969  1.0000
  H   H355      1.0  0.11086  0.32911  0.21412  1.0000
  H   H356      1.0  0.09545  0.31720  0.20788  1.0000
  N   N22       1.0  0.21405  0.31639  0.23682  1.0000
  C   C305      1.0  0.22617  0.19716  0.33199  1.0000
  H   H357      1.0  0.12817  0.34247  0.18953  1.0000
  C   C306      1.0  0.07606  0.23653  0.19590  1.0000
  H   H358      1.0  0.18071  0.33369  0.36956  1.0000
  C   C307      1.0  0.21104  0.46565  0.27947  1.0000
  H   H359      1.0  0.22912  0.17149  0.25018  1.0000
  S   S90       1.0  0.23472  0.12041  0.26136  1.0000
  H   H360      1.0  0.11839  0.12457  0.18396  1.0000
  C   C308      1.0  0.13897  0.00292  0.18784  1.0000
  C   C309      1.0  0.13330  0.10964  0.20447  1.0000
  C   C310      1.0  0.21271  0.34274  0.23516  1.0000
  H   H361      1.0  0.19835  0.44182  0.30621  1.0000
  C   C311      1.0  0.21727  0.19159  0.23923  1.0000
  H   H362      1.0  0.12949  0.13734  0.17760  1.0000
  H   H363      1.0  0.18918  0.20797  0.28797  1.0000
  H   H364      1.0  0.20959  0.11902  0.28390  1.0000
  H   H365      1.0  0.22313  0.16392  0.23445  1.0000
  H   H366      1.0  0.21019  0.32853  0.27560  1.0000
  C   C312      1.0  0.11124  0.25011  0.18200  1.0000
  H   H367      1.0  0.21038  0.14278  0.27063  1.0000
  H   H368      1.0  0.20698  0.30173  0.22928  1.0000
  H   H369      1.0  0.20784  0.21411  0.23079  1.0000
  C   C313      1.0  0.00060  0.14109  0.19596  1.0000
  C   C314      1.0  0.23319  0.13573  0.26797  1.0000
  H   H370      1.0  0.16203  0.37809  0.28243  1.0000
  C   C315      1.0  0.15380  0.99957  0.18292  1.0000
  C   C316      1.0  0.23092  0.14928  0.20321  1.0000
  C   C317      1.0  0.11898  0.14992  0.20033  1.0000
  H   H371      1.0  0.21668  0.25157  0.35297  1.0000
  C   C318      1.0  0.12292  0.15682  0.27204  1.0000
  C   C319      1.0  0.10242  0.16848  0.26207  1.0000
  C   C320      1.0  0.10686  0.14274  0.25262  1.0000
  C   C321      1.0  0.10853  0.12985  0.24869  1.0000
  H   H372      1.0  0.12190  0.16670  0.27575  1.0000
  H   H373      1.0  0.11709  0.14954  0.28095  1.0000
  H   H374      1.0  0.09559  0.16227  0.27109  1.0000
  H   H375      1.0  0.10174  0.17863  0.26515  1.0000
  H   H376      1.0  0.09761  0.17170  0.25255  1.0000
  H   H377      1.0  0.09617  0.14930  0.25419  1.0000
  C   C322      1.0  0.14182  0.38071  0.25866  1.0000
  H   H378      1.0  0.21141  0.39490  0.20055  1.0000
  H   H379      1.0  0.23455  0.36444  0.21291  1.0000
  C   C323      1.0  0.21962  0.32963  0.23072  1.0000
  H   H380      1.0  0.21014  0.22879  0.31365  1.0000
  C   C324      1.0  0.15484  0.10293  0.21351  1.0000
  C   C325      1.0  0.14416  0.40241  0.23916  1.0000
  H   H381      1.0  0.18794  0.23288  0.30919  1.0000
  H   H382      1.0  0.22971  0.44855  0.28036  1.0000
  C   C326      1.0  0.01097  0.14796  0.19644  1.0000
  H   H383      1.0  0.18978  0.19622  0.30516  1.0000
  C   C327      1.0  0.19594  0.20302  0.29603  1.0000
  H   H384      1.0  0.23090  0.39125  0.21116  1.0000
  C   C328      1.0  0.23415  0.25354  0.33470  1.0000
  H   H385      1.0  0.20117  0.22729  0.27938  1.0000
  C   C329      1.0  0.23243  0.13321  0.31092  1.0000
  C   C330      1.0  0.13073  0.99319  0.18866  1.0000
  H   H386      1.0  0.21293  0.34604  0.34898  1.0000
  C   C331      1.0  0.20285  0.34998  0.27891  1.0000
  N   N23       1.0  0.11736  0.16019  0.25886  1.0000
  H   H387      1.0  0.12317  0.11073  0.24327  1.0000
  H   H388      1.0  0.19451  0.18948  0.21983  1.0000
  C   C332      1.0  0.20527  0.48003  0.28045  1.0000
  C   C333      1.0  0.11869  0.14681  0.25439  1.0000
  S   S91       1.0  0.20033  0.31524  0.19277  1.0000
  S   S92       1.0  0.21508  0.14563  0.20237  1.0000
  H   H389      1.0  0.21275  0.29600  0.33501  1.0000
  H   H390      1.0  0.21021  0.13570  0.31421  1.0000
  C   C334      1.0  0.13673  0.36799  0.26558  1.0000
  H   H391      1.0  0.12441  0.18012  0.24982  1.0000
  C   C335      1.0  0.12576  0.16955  0.24725  1.0000
  C   C336      1.0  0.13222  0.13740  0.25155  1.0000
  H   H392      1.0  0.12244  0.17166  0.23696  1.0000
  S   S93       1.0  0.22309  0.11135  0.23082  1.0000
  N   N24       1.0  0.21050  0.43492  0.32273  1.0000
  H   H393      1.0  0.13738  0.16474  0.24530  1.0000
  C   C337      1.0  0.21489  0.29751  0.35569  1.0000
  C   C338      1.0  0.13376  0.12452  0.24769  1.0000
  C   C339      1.0  0.21322  0.19305  0.31686  1.0000
  H   H394      1.0  0.20960  0.23217  0.29019  1.0000
  H   H395      1.0  0.21513  0.33066  0.34200  1.0000
  H   H396      1.0  0.22192  0.30489  0.35118  1.0000
  H   H397      1.0  0.10444  0.13246  0.22055  1.0000
  H   H398      1.0  0.21259  0.36506  0.23218  1.0000
  H   H399      1.0  0.19871  0.32313  0.36562  1.0000
  H   H400      1.0  0.19085  0.43053  0.33710  1.0000
  H   H401      1.0  0.12180  0.24094  0.19962  1.0000
  H   H402      1.0  0.05194  0.22982  0.19618  1.0000
  C   C340      1.0  0.08261  0.23863  0.21714  1.0000
  C   C341      1.0  0.22191  0.18777  0.32684  1.0000
  C   C342      1.0  0.20745  0.22279  0.28788  1.0000
  H   H403      1.0  0.19060  0.27009  0.37202  1.0000
  H   H404      1.0  0.21573  0.43145  0.30110  1.0000
  C   C343      1.0  0.20654  0.43262  0.31038  1.0000
  H   H405      1.0  0.14060  0.40979  0.24667  1.0000
  C   C344      1.0  0.20866  0.20802  0.31162  1.0000
  H   H406      1.0  0.19185  0.32684  0.24200  1.0000
  H   H407      1.0  0.11801  0.40078  0.25635  1.0000
  C   C345      1.0  0.07819  0.21225  0.19241  1.0000
  C   C346      1.0  0.17880  0.31491  0.33830  1.0000
  H   H408      1.0  0.22059  0.29499  0.24905  1.0000
  H   H409      1.0  0.08955  0.20863  0.19327  1.0000
  H   H410      1.0  0.20564  0.19602  0.29079  1.0000
  C   C347      1.0  0.21543  0.20671  0.23674  1.0000
  H   H411      1.0  0.21036  0.34847  0.33143  1.0000
  H   H412      1.0  0.22112  0.42257  0.21359  1.0000
  H   H413      1.0  0.12875  0.15341  0.19330  1.0000
  C   C348      1.0  0.17658  0.29676  0.18801  1.0000
  H   H414      1.0  0.14728  0.26925  0.18915  1.0000
  H   H415      1.0  0.00279  0.12951  0.19822  1.0000
  C   C349      1.0  0.21771  0.44712  0.31772  1.0000
  C   C350      1.0  0.22029  0.42185  0.32877  1.0000
  S   S94       1.0  0.22921  0.17171  0.29045  1.0000
  H   H416      1.0  0.05590  0.24303  0.17997  1.0000
  H   H417      1.0  0.23315  0.19304  0.33951  1.0000
  H   H418      1.0  0.22073  0.44931  0.32672  1.0000
  H   H419      1.0  0.18132  0.11966  0.19567  1.0000
  H   H420      1.0  0.20076  0.32141  0.25680  1.0000
  S   S95       1.0  0.16492  0.01067  0.18307  1.0000
  H   H421      1.0  0.19205  0.20323  0.22885  1.0000
  H   H422      1.0  0.17328  0.35657  0.35170  1.0000
  C   C351      1.0  0.23112  0.15829  0.28108  1.0000
  H   H423      1.0  0.19554  0.34001  0.37004  1.0000
  H   H424      1.0  0.13557  0.28908  0.20056  1.0000
  H   H425      1.0  0.23495  0.30251  0.23724  1.0000
  C   C352      1.0  0.23239  0.32966  0.21991  1.0000
  H   H426      1.0  0.19089  0.18676  0.25213  1.0000
  C   C353      1.0  0.11940  0.13501  0.18502  1.0000
  C   C354      1.0  0.14485  0.27618  0.17881  1.0000
  H   H427      1.0  0.11356  0.24013  0.17864  1.0000
  H   H428      1.0  0.21134  0.04477  0.17965  1.0000
  C   C355      1.0  0.20175  0.12374  0.18376  1.0000
  H   H429      1.0  0.23198  0.46583  0.24666  1.0000
  C   C356      1.0  0.22667  0.33573  0.27990  1.0000
  H   H430      1.0  0.23125  0.14308  0.31417  1.0000
  H   H431      1.0  0.20335  0.38844  0.18277  1.0000
  C   C357      1.0  0.23055  0.34701  0.28304  1.0000
  C   C358      1.0  0.23071  0.36724  0.33946  1.0000
  H   H432      1.0  0.23395  0.32557  0.27895  1.0000
  C   C359      1.0  0.21728  0.41434  0.34335  1.0000
  H   H433      1.0  0.13435  0.27497  0.17818  1.0000
  C   C360      1.0  0.21583  0.39889  0.18937  1.0000
  H   H434      1.0  0.23534  0.43178  0.18304  1.0000
  H   H435      1.0  0.22875  0.25526  0.36931  1.0000
  C   C361      1.0  0.10141  0.27561  0.17838  1.0000
  C   C362      1.0  0.98713  0.16782  0.22654  1.0000
  C   C363      1.0  0.22687  0.40208  0.34865  1.0000
  H   H436      1.0  0.23156  0.48024  0.25408  1.0000
  S   S96       1.0  0.23580  0.33129  0.36470  1.0000
  S   S97       1.0  0.23603  0.38648  0.29736  1.0000
  N   N25       1.0  0.14469  0.29133  0.17777  1.0000
  C   C364      1.0  0.23529  0.47622  0.24403  1.0000
  H   H437      1.0  0.23630  0.42120  0.30867  1.0000
  C   C365      1.0  0.23642  0.37131  0.32472  1.0000
  C   C366      1.0  0.23571  0.10841  0.30149  1.0000
  C   C367      1.0  0.20231  0.31440  0.52024  1.0000
  S   S98       1.0  0.23204  0.36068  0.50984  1.0000
  H   H438      1.0  0.17986  0.31046  0.55322  1.0000
  H   H439      1.0  0.19137  0.35606  0.49755  1.0000
  C   C368      1.0  0.20875  0.31262  0.56365  1.0000
  H   H440      1.0  0.21145  0.36663  0.55825  1.0000
  Fe  Fe48      1.0  0.22517  0.31676  0.38370  1.0000
  H   H441      1.0  0.22424  0.33448  0.51150  1.0000
  C   C369      1.0  0.22169  0.31089  0.55348  1.0000
  C   C370      1.0  0.20516  0.33142  0.48970  1.0000
  S   S99       1.0  0.18322  0.32850  0.57576  1.0000
  H   H442      1.0  0.20990  0.24745  0.56082  1.0000
  C   C371      1.0  0.22603  0.32282  0.54363  1.0000
  C   C372      1.0  0.21316  0.24389  0.57097  1.0000
  H   H443      1.0  0.22650  0.37373  0.44089  1.0000
  C   C373      1.0  0.22780  0.35392  0.43527  1.0000
  H   H444      1.0  0.20668  0.26487  0.57562  1.0000
  H   H445      1.0  0.20906  0.35721  0.48766  1.0000
  H   H446      1.0  0.22885  0.33894  0.49226  1.0000
  C   C374      1.0  0.23083  0.33898  0.43942  1.0000
  S   S100      1.0  0.22774  0.32809  0.42966  1.0000
  C   C375      1.0  0.22257  0.33256  0.50168  1.0000
  C   C376      1.0  0.22783  0.34882  0.57559  1.0000
  C   C377      1.0  0.22187  0.36941  0.55676  1.0000
  C   C378      1.0  0.19533  0.30762  0.53364  1.0000
  C   C379      1.0  0.21741  0.33650  0.54404  1.0000
  H   H447      1.0  0.21044  0.30772  0.51373  1.0000
  S   S101      1.0  0.22345  0.21752  0.56445  1.0000
  C   C380      1.0  0.18156  0.33053  0.53832  1.0000
  C   C381      1.0  0.21974  0.22956  0.57548  1.0000
  H   H448      1.0  0.22048  0.38123  0.55276  1.0000
  H   H449      1.0  0.22080  0.34578  0.53678  1.0000
  H   H450      1.0  0.18546  0.34898  0.52246  1.0000
  S   S102      1.0  0.21064  0.33420  0.39458  1.0000
  H   H451      1.0  0.17380  0.33672  0.54563  1.0000
  H   H452      1.0  0.19964  0.27873  0.38784  1.0000
  H   H453      1.0  0.20457  0.35695  0.50637  1.0000
  C   C382      1.0  0.19995  0.32626  0.56381  1.0000
  S   S103      1.0  0.23496  0.36657  0.46774  1.0000
  H   H454      1.0  0.22742  0.32110  0.50160  1.0000
  H   H455      1.0  0.20558  0.30339  0.57130  1.0000
  Fe  Fe49      1.0  0.22814  0.33232  0.40568  1.0000
  C   C383      1.0  0.20434  0.33820  0.55404  1.0000
  H   H456      1.0  0.19759  0.34876  0.55419  1.0000
  H   H457      1.0  0.19812  0.29607  0.53719  1.0000
  H   H458      1.0  0.20952  0.31974  0.49051  1.0000
  H   H459      1.0  0.22944  0.36464  0.54789  1.0000
  C   C384      1.0  0.18847  0.33744  0.52495  1.0000
  H   H460      1.0  0.19365  0.33361  0.48962  1.0000
  C   C385      1.0  0.18500  0.31568  0.54267  1.0000
  C   C386      1.0  0.19913  0.32954  0.51549  1.0000
  S   S104      1.0  0.21746  0.29762  0.38314  1.0000
  H   H461      1.0  0.22838  0.30031  0.55332  1.0000
  C   C387      1.0  0.20277  0.35235  0.49822  1.0000
  N   N26       1.0  0.20718  0.33645  0.50153  1.0000
  H   H462      1.0  0.21069  0.33684  0.47899  1.0000
  H   H463      1.0  0.23528  0.47772  0.57038  1.0000
  H   H464      1.0  0.22378  0.35916  0.42564  1.0000
  H   H465      1.0  0.21698  0.38474  0.57632  1.0000
  N   N27       1.0  0.22704  0.36441  0.57030  1.0000
  H   H466      1.0  0.22195  0.46764  0.57457  1.0000
  C   C388      1.0  0.22934  0.36216  0.44397  1.0000
  C   C389      1.0  0.22412  0.47729  0.57639  1.0000
  H   H467      1.0  0.23490  0.41146  0.54067  1.0000
  C   C390      1.0  0.23429  0.35559  0.45668  1.0000
  C   C391      1.0  0.23598  0.33239  0.45202  1.0000
  H   H468      1.0  0.23642  0.26832  0.57027  1.0000
  C   C392      1.0  0.16222  0.98236  0.75565  1.0000
  Fe  Fe50      1.0  0.12534  0.01176  0.72477  1.0000
  S   S105      1.0  0.11073  0.02154  0.74297  1.0000
  H   H469      1.0  0.16776  0.22101  0.62847  1.0000
  Fe  Fe51      1.0  0.13941  0.03779  0.71208  1.0000
  S   S106      1.0  0.12605  0.04955  0.72913  1.0000
  S   S107      1.0  0.15761  0.04599  0.69581  1.0000
  Fe  Fe52      1.0  0.12980  0.02830  0.74454  1.0000
  H   H470      1.0  0.10291  0.99191  0.75868  1.0000
  Fe  Fe53      1.0  0.10832  0.04195  0.72585  1.0000
  S   S108      1.0  0.08811  0.05782  0.72179  1.0000
  S   S109      1.0  0.14445  0.01719  0.72766  1.0000
  S   S110      1.0  0.12159  0.03163  0.70748  1.0000
  Fe  Fe54      1.0  0.17053  0.15144  0.65781  1.0000
  S   S111      1.0  0.17138  0.13468  0.64642  1.0000
  S   S112      1.0  0.16399  0.17478  0.64854  1.0000
  H   H471      1.0  0.12368  0.30394  0.61762  1.0000
  Fe  Fe55      1.0  0.16145  0.12309  0.66817  1.0000
  S   S113      1.0  0.14271  0.11302  0.67265  1.0000
  H   H472      1.0  0.20428  0.05728  0.74523  1.0000
  S   S114      1.0  0.15857  0.14091  0.67896  1.0000
  Fe  Fe56      1.0  0.02882  0.14848  0.73948  1.0000
  S   S115      1.0  0.03356  0.13858  0.76132  1.0000
  S   S116      1.0  0.00783  0.15373  0.73257  1.0000
  Fe  Fe57      1.0  0.05852  0.15485  0.72684  1.0000
  S   S117      1.0  0.06592  0.14515  0.74745  1.0000
  S   S118      1.0  0.07181  0.16594  0.70690  1.0000
  Fe  Fe58      1.0  0.05471  0.12788  0.74931  1.0000
  S   S119      1.0  0.06447  0.10506  0.75876  1.0000
  Fe  Fe59      1.0  0.04444  0.15666  0.75764  1.0000
  N   N28       1.0  0.21936  0.25542  0.64451  1.0000
  S   S120      1.0  0.04927  0.13654  0.72761  1.0000
  S   S121      1.0  0.03780  0.16759  0.73682  1.0000
  Fe  Fe60      1.0  0.11451  0.23729  0.66878  1.0000
  S   S122      1.0  0.13150  0.24469  0.67358  1.0000
  C   C393      1.0  0.19772  0.19177  0.68690  1.0000
  Fe  Fe61      1.0  0.09952  0.22992  0.70020  1.0000
  S   S123      1.0  0.11519  0.23684  0.70753  1.0000
  S   S124      1.0  0.08280  0.22087  0.71795  1.0000
  Fe  Fe62      1.0  0.11325  0.25535  0.68878  1.0000
  S   S125      1.0  0.11006  0.27747  0.69178  1.0000
  Fe  Fe63      1.0  0.13166  0.22538  0.69172  1.0000
  S   S126      1.0  0.15106  0.20899  0.69676  1.0000
  S   S127      1.0  0.09610  0.24952  0.68268  1.0000
  S   S128      1.0  0.11614  0.21700  0.68576  1.0000
  Fe  Fe64      1.0  0.14980  0.28897  0.73826  1.0000
  S   S129      1.0  0.13542  0.31077  0.73531  1.0000
  S   S130      1.0  0.15875  0.27716  0.72043  1.0000
  Fe  Fe65      1.0  0.14759  0.28716  0.76952  1.0000
  S   S131      1.0  0.13269  0.30861  0.76938  1.0000
  C   C394      1.0  0.21121  0.12442  0.68947  1.0000
  Fe  Fe66      1.0  0.12213  0.30160  0.75629  1.0000
  S   S132      1.0  0.09857  0.30739  0.75796  1.0000
  Fe  Fe67      1.0  0.14738  0.31566  0.74848  1.0000
  S   S133      1.0  0.15311  0.33688  0.74401  1.0000
  S   S134      1.0  0.13564  0.27934  0.75838  1.0000
  S   S135      1.0  0.16321  0.29474  0.74950  1.0000
  Fe  Fe68      1.0  0.20347  0.34820  0.66994  1.0000
  S   S136      1.0  0.21594  0.32793  0.68115  1.0000
  S   S137      1.0  0.18446  0.36218  0.68121  1.0000
  Fe  Fe69      1.0  0.22360  0.34736  0.64100  1.0000
  H   H473      1.0  0.20612  0.37177  0.58282  1.0000
  C   C395      1.0  0.11663  0.29671  0.62314  1.0000
  Fe  Fe70      1.0  0.21770  0.31982  0.66176  1.0000
  S   S138      1.0  0.21558  0.29713  0.66597  1.0000
  C   C396      1.0  0.21261  0.24780  0.65880  1.0000
  C   C397      1.0  0.17895  0.19795  0.61463  1.0000
  S   S139      1.0  0.20337  0.33948  0.65152  1.0000
  S   S140      1.0  0.22253  0.35776  0.65862  1.0000
  H   H474      1.0  0.12070  0.14494  0.66460  1.0000
  C   C398      1.0  0.22049  0.32806  0.59352  1.0000
  H   H475      1.0  0.06959  0.27573  0.72080  1.0000
  S   S141      1.0  0.16255  0.29495  0.64525  1.0000
  C   C399      1.0  0.98977  0.10834  0.72134  1.0000
  C   C400      1.0  0.12836  0.16856  0.66091  1.0000
  S   S142      1.0  0.22957  0.35845  0.61772  1.0000
  H   H476      1.0  0.13193  0.25552  0.64502  1.0000
  C   C401      1.0  0.18573  0.30533  0.64300  1.0000
  H   H477      1.0  0.21303  0.34922  0.59664  1.0000
  H   H478      1.0  0.15946  0.31941  0.66055  1.0000
  H   H479      1.0  0.21099  0.09295  0.72917  1.0000
  C   C402      1.0  0.19732  0.18272  0.60038  1.0000
  C   C403      1.0  0.18049  0.00307  0.74533  1.0000
  Fe  Fe71      1.0  0.16365  0.28375  0.59925  1.0000
  H   H480      1.0  0.22898  0.15428  0.64632  1.0000
  H   H481      1.0  0.10123  0.29479  0.66601  1.0000
  S   S143      1.0  0.11393  0.23646  0.64663  1.0000
  H   H482      1.0  0.22075  0.37015  0.59089  1.0000
  C   C404      1.0  0.19761  0.25063  0.66438  1.0000
  C   C405      1.0  0.20900  0.37377  0.72501  1.0000
  H   H483      1.0  0.12431  0.19018  0.73576  1.0000
  C   C406      1.0  0.22353  0.38835  0.73705  1.0000
  C   C407      1.0  0.18403  0.02365  0.72595  1.0000
  Fe  Fe72      1.0  0.19412  0.27775  0.60214  1.0000
  H   H484      1.0  0.05536  0.22760  0.76969  1.0000
  H   H485      1.0  0.18194  0.02242  0.70546  1.0000
  H   H486      1.0  0.23182  0.25035  0.62435  1.0000
  H   H487      1.0  0.17650  0.26658  0.76596  1.0000
  C   C408      1.0  0.16165  0.34338  0.72631  1.0000
  C   C409      1.0  0.16092  0.35811  0.72164  1.0000
  C   C410      1.0  0.16804  0.36371  0.70780  1.0000
  C   C411      1.0  0.17640  0.35458  0.69873  1.0000
  C   C412      1.0  0.17761  0.33976  0.70355  1.0000
  C   C413      1.0  0.16991  0.33416  0.71723  1.0000
  H   H488      1.0  0.15459  0.36524  0.72865  1.0000
  H   H489      1.0  0.16701  0.37517  0.70410  1.0000
  H   H490      1.0  0.18430  0.33268  0.69667  1.0000
  H   H491      1.0  0.17062  0.32274  0.72088  1.0000
  C   C414      1.0  0.19192  0.20838  0.59130  1.0000
  H   H492      1.0  0.20677  0.31283  0.76685  1.0000
  C   C415      1.0  0.17735  0.99617  0.73625  1.0000
  S   S144      1.0  0.22565  0.07517  0.76040  1.0000
  H   H493      1.0  0.99743  0.15268  0.76364  1.0000
  S   S145      1.0  0.21450  0.26137  0.60246  1.0000
  H   H494      1.0  0.18883  0.31941  0.77558  1.0000
  H   H495      1.0  0.22940  0.30753  0.58799  1.0000
  C   C416      1.0  0.22000  0.38450  0.62551  1.0000
  H   H496      1.0  0.99350  0.23131  0.72764  1.0000
  C   C417      1.0  0.18068  0.08394  0.71679  1.0000
  H   H497      1.0  0.10575  0.27723  0.77259  1.0000
  H   H498      1.0  0.21291  0.37943  0.63467  1.0000
  H   H499      1.0  0.13728  0.30364  0.63255  1.0000
  C   C418      1.0  0.12386  0.27788  0.69904  1.0000
  C   C419      1.0  0.13740  0.26908  0.69574  1.0000
  C   C420      1.0  0.14824  0.26912  0.70208  1.0000
  C   C421      1.0  0.14534  0.27746  0.71219  1.0000
  C   C422      1.0  0.13172  0.28605  0.71560  1.0000
  C   C423      1.0  0.12113  0.28661  0.70870  1.0000
  H   H500      1.0  0.13959  0.26237  0.68820  1.0000
  H   H501      1.0  0.15878  0.26250  0.69937  1.0000
  H   H502      1.0  0.12927  0.29225  0.72359  1.0000
  H   H503      1.0  0.11067  0.29341  0.71129  1.0000
  C   C424      1.0  0.22862  0.37684  0.61517  1.0000
  C   C425      1.0  0.19236  0.28677  0.66827  1.0000
  C   C426      1.0  0.20091  0.29649  0.66017  1.0000
  C   C427      1.0  0.19753  0.30585  0.64760  1.0000
  C   C428      1.0  0.13093  0.25571  0.60640  1.0000
  H   H504      1.0  0.19492  0.27959  0.67807  1.0000
  H   H505      1.0  0.20417  0.31329  0.64128  1.0000
  C   C429      1.0  0.12576  0.17908  0.70034  1.0000
  C   C430      1.0  0.22490  0.12691  0.68641  1.0000
  H   H506      1.0  0.20483  0.46608  0.59688  1.0000
  H   H507      1.0  0.17983  0.31350  0.75928  1.0000
  C   C431      1.0  0.06653  0.17668  0.76629  1.0000
  N   N29       1.0  0.99103  0.17328  0.76936  1.0000
  C   C432      1.0  0.17711  0.29572  0.65116  1.0000
  H   H508      1.0  0.06871  0.17164  0.75738  1.0000
  H   H509      1.0  0.08617  0.18411  0.75925  1.0000
  C   C433      1.0  0.07468  0.18134  0.70989  1.0000
  C   C434      1.0  0.08015  0.19154  0.69832  1.0000
  C   C435      1.0  0.08279  0.20367  0.70073  1.0000
  C   C436      1.0  0.07988  0.20565  0.71472  1.0000
  C   C437      1.0  0.07441  0.19547  0.72628  1.0000
  C   C438      1.0  0.07177  0.18335  0.72386  1.0000
  H   H510      1.0  0.08211  0.19021  0.68749  1.0000
  H   H511      1.0  0.08680  0.21162  0.69172  1.0000
  H   H512      1.0  0.07239  0.19688  0.73711  1.0000
  H   H513      1.0  0.06763  0.17547  0.73281  1.0000
  C   C439      1.0  0.16164  0.18433  0.66160  1.0000
  C   C440      1.0  0.15550  0.19896  0.65899  1.0000
  C   C441      1.0  0.15274  0.20658  0.66968  1.0000
  C   C442      1.0  0.15610  0.19962  0.68301  1.0000
  C   C443      1.0  0.16248  0.18502  0.68556  1.0000
  C   C444      1.0  0.16530  0.17737  0.67483  1.0000
  H   H514      1.0  0.15245  0.20434  0.64889  1.0000
  H   H515      1.0  0.14776  0.21783  0.66762  1.0000
  H   H516      1.0  0.16478  0.17953  0.69597  1.0000
  H   H517      1.0  0.17009  0.16605  0.67690  1.0000
  C   C445      1.0  0.17862  0.00327  0.72153  1.0000
  C   C446      1.0  0.20858  0.17609  0.66940  1.0000
  H   H518      1.0  0.15993  0.35069  0.67574  1.0000
  H   H519      1.0  0.14753  0.36964  0.68862  1.0000
  H   H520      1.0  0.19125  0.10571  0.62815  1.0000
  H   H521      1.0  0.17709  0.24513  0.60567  1.0000
  C   C447      1.0  0.13326  0.35735  0.70423  1.0000
  H   H522      1.0  0.20768  0.08881  0.71420  1.0000
  H   H523      1.0  0.04048  0.10600  0.74623  1.0000
  H   H524      1.0  0.10327  0.99439  0.71578  1.0000
  C   C448      1.0  0.08195  0.07101  0.73193  1.0000
  C   C449      1.0  0.07512  0.08483  0.72587  1.0000
  C   C450      1.0  0.06995  0.09548  0.73390  1.0000
  C   C451      1.0  0.07111  0.09217  0.74820  1.0000
  C   C452      1.0  0.07791  0.07835  0.75426  1.0000
  C   C453      1.0  0.08347  0.06782  0.74609  1.0000
  H   H525      1.0  0.07400  0.08732  0.71487  1.0000
  H   H526      1.0  0.06502  0.10618  0.72904  1.0000
  H   H527      1.0  0.07890  0.07577  0.76531  1.0000
  H   H528      1.0  0.08867  0.05714  0.75084  1.0000
  C   C454      1.0  0.15324  0.06454  0.68923  1.0000
  C   C455      1.0  0.13902  0.07213  0.69114  1.0000
  C   C456      1.0  0.13579  0.08701  0.68575  1.0000
  C   C457      1.0  0.14677  0.09434  0.67881  1.0000
  C   C458      1.0  0.16092  0.08669  0.67681  1.0000
  C   C459      1.0  0.16417  0.07183  0.68196  1.0000
  H   H529      1.0  0.13052  0.06649  0.69654  1.0000
  H   H530      1.0  0.12479  0.09282  0.68701  1.0000
  H   H531      1.0  0.16934  0.09216  0.67095  1.0000
  H   H532      1.0  0.17515  0.06596  0.68033  1.0000
  H   H533      1.0  0.18495  0.17494  0.62118  1.0000
  C   C460      1.0  0.13779  0.05091  0.76357  1.0000
  S   S146      1.0  0.22346  0.19756  0.71565  1.0000
  H   H534      1.0  0.15651  0.09694  0.64197  1.0000
  C   C461      1.0  0.18358  0.01668  0.74027  1.0000
  C   C462      1.0  0.09430  0.28094  0.77465  1.0000
  H   H535      1.0  0.22170  0.32908  0.75359  1.0000
  C   C463      1.0  0.21918  0.16482  0.66404  1.0000
  C   C464      1.0  0.20183  0.37678  0.70287  1.0000
  H   H536      1.0  0.20734  0.15549  0.69326  1.0000
  C   C465      1.0  0.99389  0.14440  0.73757  1.0000
  H   H537      1.0  0.09269  0.26901  0.64004  1.0000
  H   H538      1.0  0.22613  0.15718  0.67058  1.0000
  H   H539      1.0  0.19026  0.25852  0.65846  1.0000
  H   H540      1.0  0.20768  0.12179  0.68143  1.0000
  H   H541      1.0  0.00152  0.12846  0.75497  1.0000
  C   C466      1.0  0.20751  0.47522  0.59917  1.0000
  H   H542      1.0  0.17671  0.99880  0.71373  1.0000
  H   H543      1.0  0.21428  0.40448  0.63233  1.0000
  N   N30       1.0  0.19608  0.07914  0.73487  1.0000
  H   H544      1.0  0.16286  0.05241  0.73946  1.0000
  H   H545      1.0  0.13739  0.08445  0.65354  1.0000
  C   C467      1.0  0.21379  0.38224  0.69513  1.0000
  H   H546      1.0  0.19429  0.21732  0.58261  1.0000
  H   H547      1.0  0.15669  0.23656  0.61994  1.0000
  C   C468      1.0  0.12763  0.30783  0.64029  1.0000
  H   H548      1.0  0.20346  0.17215  0.59902  1.0000
  H   H549      1.0  0.12825  0.05346  0.75947  1.0000
  N   N31       1.0  0.17307  0.22506  0.60530  1.0000
  C   C469      1.0  0.18127  0.21045  0.60387  1.0000
  C   C470      1.0  0.15436  0.32816  0.66645  1.0000
  H   H550      1.0  0.23256  0.23402  0.66388  1.0000
  C   C471      1.0  0.18295  0.23419  0.60411  1.0000
  H   H551      1.0  0.04425  0.08117  0.74410  1.0000
  C   C472      1.0  0.14748  0.33501  0.68936  1.0000
  C   C473      1.0  0.16403  0.06905  0.72030  1.0000
  H   H552      1.0  0.23167  0.12671  0.67585  1.0000
  C   C474      1.0  0.03598  0.21039  0.76387  1.0000
  C   C475      1.0  0.22210  0.23480  0.59694  1.0000
  N   N32       1.0  0.18615  0.08478  0.63600  1.0000
  C   C476      1.0  0.19941  0.37257  0.71777  1.0000
  C   C477      1.0  0.22115  0.37960  0.71749  1.0000
  H   H553      1.0  0.23105  0.39028  0.74235  1.0000
  C   C478      1.0  0.99187  0.22292  0.76346  1.0000
  H   H554      1.0  0.12888  0.14188  0.67936  1.0000
  N   N33       1.0  0.03232  0.21290  0.74976  1.0000
  C   C479      1.0  0.16202  0.04426  0.77503  1.0000
  S   S147      1.0  0.19209  0.14233  0.66287  1.0000
  C   C480      1.0  0.22928  0.33775  0.71740  1.0000
  C   C481      1.0  0.18025  0.28663  0.66394  1.0000
  H   H555      1.0  0.13308  0.18071  0.67797  1.0000
  C   C482      1.0  0.01687  0.21835  0.75024  1.0000
  H   H556      1.0  0.15975  0.33714  0.66055  1.0000
  H   H557      1.0  0.19446  0.37574  0.69726  1.0000
  H   H558      1.0  0.14241  0.05813  0.66196  1.0000
  C   C483      1.0  0.00642  0.21822  0.76335  1.0000
  H   H559      1.0  0.17351  0.27927  0.67033  1.0000
  H   H560      1.0  0.19570  0.22742  0.69703  1.0000
  C   C484      1.0  0.23002  0.11492  0.61406  1.0000
  N   N34       1.0  0.11922  0.29671  0.64793  1.0000
  H   H561      1.0  0.16719  0.04409  0.65820  1.0000
  C   C485      1.0  0.16510  0.05562  0.65420  1.0000
  H   H562      1.0  0.15610  0.06632  0.71665  1.0000
  H   H563      1.0  0.03207  0.22019  0.76834  1.0000
  C   C486      1.0  0.16517  0.23150  0.59361  1.0000
  H   H564      1.0  0.13342  0.28732  0.66258  1.0000
  H   H565      1.0  0.22579  0.26915  0.65366  1.0000
  N   N35       1.0  0.12066  0.20804  0.74557  1.0000
  C   C487      1.0  0.12238  0.19812  0.75953  1.0000
  C   C488      1.0  0.10533  0.21209  0.74522  1.0000
  C   C489      1.0  0.12831  0.20000  0.73409  1.0000
  C   C490      1.0  0.12584  0.22107  0.74401  1.0000
  C   C491      1.0  0.13673  0.22569  0.73228  1.0000
  C   C492      1.0  0.11990  0.22963  0.75442  1.0000
  C   C493      1.0  0.14131  0.23807  0.73115  1.0000
  C   C494      1.0  0.12470  0.24189  0.75326  1.0000
  C   C495      1.0  0.13534  0.24614  0.74160  1.0000
  H   H566      1.0  0.11581  0.20277  0.76886  1.0000
  H   H567      1.0  0.11879  0.18809  0.76096  1.0000
  H   H568      1.0  0.13370  0.19513  0.76048  1.0000
  H   H569      1.0  0.09867  0.21746  0.75403  1.0000
  H   H570      1.0  0.17303  0.33874  0.76205  1.0000
  H   H571      1.0  0.10349  0.21945  0.73490  1.0000
  H   H572      1.0  0.13996  0.19649  0.73375  1.0000
  C   C496      1.0  0.22333  0.38372  0.70227  1.0000
  H   H573      1.0  0.12680  0.20652  0.72330  1.0000
  H   H574      1.0  0.14185  0.22001  0.72374  1.0000
  H   H575      1.0  0.11148  0.22688  0.76357  1.0000
  H   H576      1.0  0.14959  0.24143  0.72209  1.0000
  C   C497      1.0  0.18692  0.18433  0.61285  1.0000
  H   H577      1.0  0.13902  0.25570  0.74061  1.0000
  C   C498      1.0  0.23112  0.33402  0.73145  1.0000
  C   C499      1.0  0.21503  0.22964  0.68110  1.0000
  C   C500      1.0  0.22622  0.24509  0.63508  1.0000
  H   H578      1.0  0.03148  0.20151  0.77181  1.0000
  C   C501      1.0  0.21162  0.17184  0.64152  1.0000
  H   H579      1.0  0.99777  0.12708  0.70943  1.0000
  H   H580      1.0  0.02727  0.09215  0.76464  1.0000
  N   N36       1.0  0.22235  0.47654  0.59191  1.0000
  C   C502      1.0  0.22081  0.13029  0.71051  1.0000
  C   C503      1.0  0.22107  0.17692  0.68691  1.0000
  H   H581      1.0  0.12010  0.24821  0.76140  1.0000
  H   H582      1.0  0.09861  0.27774  0.61371  1.0000
  C   C504      1.0  0.22394  0.22497  0.58859  1.0000
  C   C505      1.0  0.22061  0.12243  0.62416  1.0000
  H   H583      1.0  0.12821  0.16557  0.65100  1.0000
  C   C506      1.0  0.20075  0.18263  0.64665  1.0000
  H   H584      1.0  0.15758  0.22500  0.59408  1.0000
  H   H585      1.0  0.18020  0.24587  0.68218  1.0000
  H   H586      1.0  0.19995  0.12882  0.72387  1.0000
  C   C507      1.0  0.18976  0.08318  0.74893  1.0000
  H   H587      1.0  0.20133  0.06876  0.64735  1.0000
  C   C508      1.0  0.04069  0.22313  0.73936  1.0000
  H   H588      1.0  0.19808  0.06879  0.62370  1.0000
  H   H589      1.0  0.13780  0.27940  0.64735  1.0000
  C   C509      1.0  0.13936  0.26388  0.62256  1.0000
  H   H590      1.0  0.11424  0.29503  0.60284  1.0000
  C   C510      1.0  0.22070  0.39871  0.62412  1.0000
  Fe  Fe73      1.0  0.19213  0.12454  0.65327  1.0000
  H   H591      1.0  0.12303  0.27575  0.66191  1.0000
  C   C511      1.0  0.20256  0.09104  0.72505  1.0000
  N   N37       1.0  0.23124  0.38060  0.72537  1.0000
  H   H592      1.0  0.12687  0.18043  0.65821  1.0000
  S   S148      1.0  0.14860  0.27431  0.59369  1.0000
  H   H593      1.0  0.03020  0.19150  0.75218  1.0000
  S   S149      1.0  0.17443  0.27206  0.61741  1.0000
  C   C512      1.0  0.22393  0.22301  0.72082  1.0000
  H   H594      1.0  0.10136  0.16053  0.72271  1.0000
  H   H595      1.0  0.11632  0.17637  0.72293  1.0000
  S   S150      1.0  0.18400  0.12618  0.70509  1.0000
  C   C513      1.0  0.21726  0.37309  0.58056  1.0000
  S   S151      1.0  0.18382  0.28752  0.58335  1.0000
  C   C514      1.0  0.20061  0.16619  0.69451  1.0000
  C   C515      1.0  0.18130  0.27057  0.77210  1.0000
  H   H596      1.0  0.14301  0.33173  0.66557  1.0000
  H   H597      1.0  0.20553  0.08589  0.64077  1.0000
  C   C516      1.0  0.17814  0.06463  0.73785  1.0000
  C   C517      1.0  0.16252  0.22543  0.61918  1.0000
  H   H598      1.0  0.11149  0.30650  0.66627  1.0000
  C   C518      1.0  0.22671  0.20808  0.72544  1.0000
  C   C519      1.0  0.99170  0.09572  0.73175  1.0000
  H   H599      1.0  0.13052  0.25587  0.59560  1.0000
  C   C520      1.0  0.10445  0.28196  0.64418  1.0000
  C   C521      1.0  0.22111  0.23693  0.66752  1.0000
  C   C522      1.0  0.13181  0.25535  0.63432  1.0000
  Fe  Fe74      1.0  0.17030  0.29369  0.62209  1.0000
  H   H600      1.0  0.21680  0.06839  0.73944  1.0000
  H   H601      1.0  0.15421  0.21943  0.62050  1.0000
  C   C523      1.0  0.14221  0.06172  0.76661  1.0000
  H   H602      1.0  0.20568  0.47321  0.61104  1.0000
  H   H603      1.0  0.18551  0.02187  0.74755  1.0000
  S   S152      1.0  0.18230  0.11137  0.67409  1.0000
  N   N38       1.0  0.15548  0.32341  0.68170  1.0000
  C   C524      1.0  0.20777  0.06621  0.73655  1.0000
  C   C525      1.0  0.17071  0.32002  0.68233  1.0000
  C   C526      1.0  0.15031  0.30989  0.68784  1.0000
  H   H604      1.0  0.18703  0.05591  0.64602  1.0000
  C   C527      1.0  0.13598  0.33329  0.70148  1.0000
  H   H605      1.0  0.04027  0.22420  0.72806  1.0000
  C   C528      1.0  0.11338  0.29198  0.63835  1.0000
  C   C529      1.0  0.19977  0.19473  0.58961  1.0000
  H   H606      1.0  0.09984  0.31197  0.65384  1.0000
  C   C530      1.0  0.10896  0.16114  0.70009  1.0000
  C   C531      1.0  0.00397  0.17751  0.75938  1.0000
  H   H607      1.0  0.17586  0.32927  0.67705  1.0000
  H   H608      1.0  0.17705  0.31125  0.67683  1.0000
  H   H609      1.0  0.17195  0.31647  0.69366  1.0000
  C   C532      1.0  0.11118  0.29173  0.61444  1.0000
  H   H610      1.0  0.15661  0.30135  0.68193  1.0000
  H   H611      1.0  0.15141  0.30548  0.69918  1.0000
  H   H612      1.0  0.13223  0.32346  0.70566  1.0000
  N   N39       1.0  0.11726  0.16357  0.67337  1.0000
  H   H613      1.0  0.10097  0.20259  0.74646  1.0000
  C   C533      1.0  0.15121  0.34857  0.68478  1.0000
  H   H614      1.0  0.15314  0.99175  0.75423  1.0000
  C   C534      1.0  0.03692  0.19911  0.74519  1.0000
  H   H615      1.0  0.04809  0.19377  0.74602  1.0000
  C   C535      1.0  0.22647  0.09576  0.77347  1.0000
  C   C536      1.0  0.10856  0.16454  0.71291  1.0000
  H   H616      1.0  0.10191  0.15453  0.70050  1.0000
  C   C537      1.0  0.14415  0.35955  0.69210  1.0000
  H   H617      1.0  0.19013  0.36819  0.72369  1.0000
  H   H618      1.0  0.19752  0.19322  0.69767  1.0000
  C   C538      1.0  0.09903  0.27709  0.63538  1.0000
  N   N40       1.0  0.08212  0.26972  0.73679  1.0000
  C   C539      1.0  0.07701  0.28342  0.74169  1.0000
  C   C540      1.0  0.09735  0.26438  0.73749  1.0000
  C   C541      1.0  0.07413  0.25859  0.74558  1.0000
  C   C542      1.0  0.06350  0.26047  0.75825  1.0000
  C   C543      1.0  0.07730  0.24514  0.74183  1.0000
  C   C544      1.0  0.05669  0.24946  0.76665  1.0000
  C   C545      1.0  0.07048  0.23416  0.75040  1.0000
  C   C546      1.0  0.06028  0.23628  0.76284  1.0000
  H   H619      1.0  0.06558  0.28813  0.74146  1.0000
  H   H620      1.0  0.08317  0.29161  0.73488  1.0000
  H   H621      1.0  0.07840  0.28192  0.75275  1.0000
  H   H622      1.0  0.10243  0.25476  0.73283  1.0000
  H   H623      1.0  0.09852  0.26156  0.74881  1.0000
  H   H624      1.0  0.06040  0.27022  0.76214  1.0000
  H   H625      1.0  0.08521  0.24293  0.73233  1.0000
  H   H626      1.0  0.18641  0.19263  0.68694  1.0000
  C   C547      1.0  0.18172  0.01689  0.71657  1.0000
  H   H627      1.0  0.21279  0.17022  0.63088  1.0000
  H   H628      1.0  0.18061  0.09257  0.74821  1.0000
  H   H629      1.0  0.11002  0.14362  0.68227  1.0000
  C   C548      1.0  0.13895  0.26404  0.60858  1.0000
  H   H630      1.0  0.13170  0.31127  0.64783  1.0000
  H   H631      1.0  0.17632  0.10456  0.64300  1.0000
  H   H632      1.0  0.17098  0.19835  0.62450  1.0000
  C   C549      1.0  0.10743  0.30278  0.65893  1.0000
  C   C550      1.0  0.20199  0.12583  0.70270  1.0000
  S   S153      1.0  0.13085  0.98823  0.72411  1.0000
  C   C551      1.0  0.10240  0.28195  0.62053  1.0000
  H   H633      1.0  0.21447  0.34203  0.70395  1.0000
  C   C552      1.0  0.15109  0.06350  0.65631  1.0000
  C   C553      1.0  0.17638  0.06254  0.64742  1.0000
  H   H634      1.0  0.11724  0.24074  0.61640  1.0000
  H   H635      1.0  0.20787  0.19349  0.57988  1.0000
  H   H636      1.0  0.06871  0.31103  0.76747  1.0000
  H   H637      1.0  0.15814  0.98633  0.72884  1.0000
  H   H638      1.0  0.13218  0.18617  0.70042  1.0000
  H   H639      1.0  0.19771  0.08596  0.75300  1.0000
  C   C554      1.0  0.11928  0.14788  0.67500  1.0000
  C   C555      1.0  0.19355  0.08050  0.62219  1.0000
  H   H640      1.0  0.20119  0.33074  0.77025  1.0000
  H   H641      1.0  0.12071  0.34257  0.71839  1.0000
  C   C556      1.0  0.17037  0.08042  0.71220  1.0000
  N   N41       1.0  0.02468  0.09711  0.74276  1.0000
  C   C557      1.0  0.01894  0.09379  0.75854  1.0000
  C   C558      1.0  0.03517  0.08432  0.73863  1.0000
  C   C559      1.0  0.03241  0.10873  0.73958  1.0000
  C   C560      1.0  0.01301  0.10094  0.73501  1.0000
  C   C561      1.0  0.00324  0.09193  0.73836  1.0000
  C   C562      1.0  0.01100  0.11352  0.72396  1.0000
  H   H642      1.0  0.20376  0.27536  0.64351  1.0000
  H   H643      1.0  0.00917  0.21435  0.77373  1.0000
  S   S154      1.0  0.13900  0.02289  0.76419  1.0000
  H   H644      1.0  0.01484  0.08381  0.76231  1.0000
  H   H645      1.0  0.21699  0.39895  0.73283  1.0000
  H   H646      1.0  0.01005  0.10264  0.76186  1.0000
  H   H647      1.0  0.22695  0.18443  0.67837  1.0000
  C   C563      1.0  0.22978  0.10856  0.77342  1.0000
  H   H648      1.0  0.01357  0.17252  0.76407  1.0000
  H   H649      1.0  0.02499  0.11888  0.74186  1.0000
  H   H650      1.0  0.03627  0.20037  0.73390  1.0000
  H   H651      1.0  0.03834  0.11081  0.72819  1.0000
  C   C564      1.0  0.22917  0.31890  0.58468  1.0000
  H   H652      1.0  0.01783  0.12108  0.72057  1.0000
  C   C565      1.0  0.18186  0.10067  0.63297  1.0000
  H   H653      1.0  0.21568  0.38534  0.68351  1.0000
  H   H654      1.0  0.19000  0.16645  0.69286  1.0000
  N   N42       1.0  0.11622  0.09753  0.73277  1.0000
  C   C566      1.0  0.11605  0.08332  0.74275  1.0000
  C   C567      1.0  0.10372  0.10819  0.73834  1.0000
  C   C568      1.0  0.11464  0.09622  0.71881  1.0000
  C   C569      1.0  0.12941  0.10209  0.73172  1.0000
  C   C570      1.0  0.13356  0.10171  0.74437  1.0000
  C   C571      1.0  0.13815  0.10747  0.71837  1.0000
  C   C572      1.0  0.14597  0.10589  0.74373  1.0000
  C   C573      1.0  0.15034  0.11200  0.71787  1.0000
  C   C574      1.0  0.15429  0.11110  0.73050  1.0000
  H   H655      1.0  0.10729  0.07871  0.74236  1.0000
  H   H656      1.0  0.12626  0.07552  0.73999  1.0000
  H   H657      1.0  0.11428  0.08376  0.75416  1.0000
  H   H658      1.0  0.10362  0.11908  0.73131  1.0000
  H   H659      1.0  0.10354  0.10890  0.74935  1.0000
  H   H660      1.0  0.09351  0.10543  0.73897  1.0000
  H   H661      1.0  0.12394  0.08850  0.71406  1.0000
  H   H662      1.0  0.10495  0.09219  0.72002  1.0000
  H   H663      1.0  0.11343  0.10671  0.71099  1.0000
  H   H664      1.0  0.12723  0.09820  0.75491  1.0000
  H   H665      1.0  0.13586  0.10830  0.70814  1.0000
  H   H666      1.0  0.14909  0.10512  0.75357  1.0000
  S   S155      1.0  0.15791  0.30515  0.60502  1.0000
  H   H667      1.0  0.23083  0.46106  0.60939  1.0000
  H   H668      1.0  0.18609  0.08335  0.61487  1.0000
  C   C575      1.0  0.98724  0.22785  0.75062  1.0000
  C   C576      1.0  0.20920  0.26710  0.63711  1.0000
  H   H669      1.0  0.10222  0.16863  0.65987  1.0000
  C   C577      1.0  0.07641  0.18377  0.76738  1.0000
  C   C578      1.0  0.11772  0.16671  0.68691  1.0000
  C   C579      1.0  0.21934  0.13724  0.62182  1.0000
  H   H670      1.0  0.18319  0.31253  0.63322  1.0000
  C   C580      1.0  0.22761  0.14443  0.60936  1.0000
  H   H671      1.0  0.19333  0.18921  0.64004  1.0000
  C   C581      1.0  0.12383  0.24696  0.63215  1.0000
  H   H672      1.0  0.15688  0.11610  0.70762  1.0000
  C   C582      1.0  0.14531  0.03671  0.76652  1.0000
  N   N43       1.0  0.19413  0.32804  0.75269  1.0000
  C   C583      1.0  0.18859  0.31680  0.75020  1.0000
  H   H673      1.0  0.13615  0.07261  0.76471  1.0000
  C   C584      1.0  0.18259  0.34106  0.75354  1.0000
  C   C585      1.0  0.20624  0.33156  0.74076  1.0000
  C   C586      1.0  0.20466  0.33568  0.72633  1.0000
  C   C587      1.0  0.21972  0.33131  0.74300  1.0000
  C   C588      1.0  0.21601  0.33877  0.71487  1.0000
  S   S156      1.0  0.19123  0.29829  0.60855  1.0000
  H   H674      1.0  0.00599  0.17414  0.74909  1.0000
  H   H675      1.0  0.15895  0.24255  0.59428  1.0000
  H   H676      1.0  0.23450  0.28463  0.73819  1.0000
  H   H677      1.0  0.18395  0.32045  0.74057  1.0000
  C   C589      1.0  0.19165  0.24334  0.67802  1.0000
  H   H678      1.0  0.00290  0.18930  0.75672  1.0000
  C   C590      1.0  0.23305  0.20160  0.73722  1.0000
  H   H679      1.0  0.17884  0.34563  0.74337  1.0000
  Fe  Fe75      1.0  0.17932  0.30784  0.59088  1.0000
  H   H680      1.0  0.18619  0.34955  0.75594  1.0000
  H   H681      1.0  0.19458  0.33666  0.72380  1.0000
  C   C591      1.0  0.99950  0.11711  0.71733  1.0000
  C   C592      1.0  0.22077  0.16290  0.65023  1.0000
  H   H682      1.0  0.21213  0.14308  0.62966  1.0000
  H   H683      1.0  0.17482  0.10493  0.62516  1.0000
  H   H684      1.0  0.19127  0.08310  0.65612  1.0000
  H   H685      1.0  0.19931  0.16682  0.70583  1.0000
  Fe  Fe76      1.0  0.18020  0.13008  0.68312  1.0000
  H   H686      1.0  0.18063  0.05834  0.74798  1.0000
  C   C593      1.0  0.16788  0.06120  0.73312  1.0000
  H   H687      1.0  0.13901  0.31140  0.68737  1.0000
  C   C594      1.0  0.17397  0.07769  0.64282  1.0000
  H   H688      1.0  0.10371  0.27257  0.73145  1.0000
  H   H689      1.0  0.18568  0.07441  0.75730  1.0000
  H   H690      1.0  0.18503  0.09298  0.71004  1.0000
  C   C595      1.0  0.11690  0.17354  0.71303  1.0000
  H   H691      1.0  0.16720  0.08665  0.70233  1.0000
  H   H692      1.0  0.18046  0.99805  0.75647  1.0000
  C   C596      1.0  0.15950  0.08540  0.64491  1.0000
  H   H693      1.0  0.07328  0.22385  0.74751  1.0000
  C   C597      1.0  0.05377  0.17629  0.77666  1.0000
  C   C598      1.0  0.19528  0.27254  0.76672  1.0000
  N   N44       1.0  0.20697  0.17783  0.68413  1.0000
  H   H694      1.0  0.19446  0.10127  0.72401  1.0000
  H   H695      1.0  0.10194  0.27744  0.65558  1.0000
  H   H696      1.0  0.03975  0.08637  0.72685  1.0000
  H   H697      1.0  0.20122  0.26999  0.75650  1.0000
  H   H698      1.0  0.20259  0.08592  0.61655  1.0000
  H   H699      1.0  0.22000  0.17959  0.69738  1.0000
  H   H700      1.0  0.09423  0.16722  0.67860  1.0000
  H   H701      1.0  0.14521  0.27057  0.62432  1.0000
  H   H702      1.0  0.21472  0.27274  0.62655  1.0000
  S   S157      1.0  0.21821  0.28215  0.76641  1.0000
  C   C599      1.0  0.12912  0.34429  0.70885  1.0000
  H   H703      1.0  0.22174  0.22149  0.68766  1.0000
  H   H704      1.0  0.20106  0.26299  0.63475  1.0000
  C   C600      1.0  0.20034  0.23293  0.68639  1.0000
  H   H705      1.0  0.03687  0.23395  0.74185  1.0000
  H   H706      1.0  0.21641  0.38225  0.74582  1.0000
  H   H707      1.0  0.21211  0.06229  0.72642  1.0000
  H   H708      1.0  0.18616  0.03430  0.72207  1.0000
  H   H709      1.0  0.19717  0.30702  0.74893  1.0000
  C   C601      1.0  0.10315  0.17080  0.66991  1.0000
  H   H710      1.0  0.03029  0.07488  0.74141  1.0000
  C   C602      1.0  0.19919  0.18478  0.66037  1.0000
  C   C603      1.0  0.20696  0.12811  0.71348  1.0000
  C   C604      1.0  0.99716  0.22777  0.73761  1.0000
  C   C605      1.0  0.14830  0.07833  0.65156  1.0000
  H   H711      1.0  0.01898  0.22270  0.72703  1.0000
  S   S158      1.0  0.21097  0.11267  0.63960  1.0000
  H   H712      1.0  0.12116  0.31754  0.63446  1.0000
  H   H713      1.0  0.04884  0.25109  0.77644  1.0000
  C   C606      1.0  0.08095  0.27294  0.72162  1.0000
  S   S159      1.0  0.04028  0.16908  0.77480  1.0000
  C   C607      1.0  0.19646  0.08039  0.64548  1.0000
  C   C608      1.0  0.15423  0.05842  0.77248  1.0000
  H   H714      1.0  0.22461  0.13221  0.71876  1.0000
  C   C609      1.0  0.18498  0.07602  0.72976  1.0000
  H   H715      1.0  0.16382  0.11450  0.73002  1.0000
  H   H716      1.0  0.12814  0.36571  0.71017  1.0000
  C   C610      1.0  0.12874  0.28426  0.65525  1.0000
  H   H717      1.0  0.20692  0.36996  0.73654  1.0000
  C   C611      1.0  0.01175  0.22298  0.73738  1.0000
  H   H718      1.0  0.05226  0.21954  0.73946  1.0000
  C   C612      1.0  0.12618  0.17581  0.68741  1.0000
  H   H719      1.0  0.13921  0.16374  0.66303  1.0000
  C   C613      1.0  0.99337  0.13226  0.74880  1.0000
  C   C614      1.0  0.12346  0.24713  0.61815  1.0000
  H   H720      1.0  0.08656  0.26383  0.71631  1.0000
  H   H721      1.0  0.08585  0.28209  0.71499  1.0000
  C   C615      1.0  0.23227  0.46335  0.59754  1.0000
  C   C616      1.0  0.22834  0.23131  0.72736  1.0000
  H   H722      1.0  0.10130  0.18262  0.66846  1.0000
  H   H723      1.0  0.22544  0.23124  0.60704  1.0000
  C   C617      1.0  0.08824  0.29525  0.76909  1.0000
  H   H724      1.0  0.19037  0.19314  0.66374  1.0000
  H   H725      1.0  0.23235  0.38806  0.69560  1.0000
  C   C618      1.0  0.19797  0.32255  0.76692  1.0000
  H   H726      1.0  0.00426  0.08201  0.74633  1.0000
  C   C619      1.0  0.07342  0.30000  0.77173  1.0000
  H   H727      1.0  0.19023  0.23579  0.59336  1.0000
  H   H728      1.0  0.21880  0.22816  0.71189  1.0000
  C   C620      1.0  0.22918  0.09140  0.76057  1.0000
  C   C621      1.0  0.22946  0.13045  0.69674  1.0000
  H   H729      1.0  0.20154  0.20093  0.67879  1.0000
  H   H730      1.0  0.21824  0.24035  0.63325  1.0000
  H   H731      1.0  0.18971  0.22939  0.61218  1.0000
  H   H732      1.0  0.16331  0.02243  0.77457  1.0000
  C   C622      1.0  0.21589  0.24917  0.59229  1.0000
  C   C623      1.0  0.20130  0.27836  0.77421  1.0000
  C   C624      1.0  0.23039  0.26193  0.64595  1.0000
  H   H733      1.0  0.17238  0.23249  0.58278  1.0000
  C   C625      1.0  0.23009  0.40527  0.61245  1.0000
  H   H734      1.0  0.23068  0.36006  0.74015  1.0000
  C   C626      1.0  0.15750  0.03341  0.77216  1.0000
  S   S160      1.0  0.23223  0.42238  0.61174  1.0000
  H   H735      1.0  0.04771  0.20702  0.76309  1.0000
  C   C627      1.0  0.23562  0.22465  0.73846  1.0000
  C   C628      1.0  0.10820  0.98315  0.71647  1.0000
  H   H736      1.0  0.22792  0.16596  0.68768  1.0000
  C   C629      1.0  0.99381  0.15738  0.77330  1.0000
  H   H737      1.0  0.22673  0.15580  0.60759  1.0000
  H   H738      1.0  0.18900  0.00711  0.77358  1.0000
  H   H739      1.0  0.21411  0.32374  0.60378  1.0000
  H   H740      1.0  0.22654  0.24280  0.72350  1.0000
  C   C630      1.0  0.23173  0.36642  0.77259  1.0000
  H   H741      1.0  0.22868  0.21385  0.59230  1.0000
  C   C631      1.0  0.23475  0.35193  0.77231  1.0000
  S   S161      1.0  0.22876  0.15571  0.72515  1.0000
  C   C632      1.0  0.21987  0.34280  0.58917  1.0000
  H   H742      1.0  0.22434  0.25017  0.77657  1.0000
  C   C633      1.0  0.21126  0.25372  0.57939  1.0000
  H   H743      1.0  0.23433  0.23617  0.63962  1.0000
  H   H744      1.0  0.23081  0.45367  0.59511  1.0000
  Fe  Fe77      1.0  0.23509  0.33661  0.66825  1.0000
  H   H745      1.0  0.23517  0.26837  0.63548  1.0000
  H   H746      1.0  0.23112  0.10349  0.61583  1.0000
  H   H747      1.0  0.23441  0.19023  0.74144  1.0000
  S   S162      1.0  0.15900  0.07222  0.77674  1.0000
  S   S163      1.0  0.23552  0.18289  0.59305  1.0000
  C   C634      1.0  0.23544  0.11722  0.76048  1.0000
  C   C635      1.0  0.23492  0.10001  0.74765  1.0000
  N   N45       1.0  0.17325  0.98213  0.74205  1.0000
  H   H748      1.0  0.16651  0.98279  0.76463  1.0000
  C   C636      1.0  0.10180  0.98155  0.75741  1.0000
  H   H749      1.0  0.10575  0.98179  0.74578  1.0000
  H   H750      1.0  0.09024  0.98152  0.76037  1.0000
  Fe  Fe78      1.0  0.19138  0.07202  0.80854  1.0000
  H   H751      1.0  0.15163  0.27360  0.84161  1.0000
  S   S164      1.0  0.18597  0.08397  0.82645  1.0000
  C   C637      1.0  0.22847  0.13581  0.91935  1.0000
  C   C638      1.0  0.16507  0.21662  0.84297  1.0000
  H   H752      1.0  0.15267  0.98265  0.79277  1.0000
  C   C639      1.0  0.11489  0.28363  0.80735  1.0000
  H   H753      1.0  0.11972  0.30344  0.83856  1.0000
  H   H754      1.0  0.22206  0.08913  0.78349  1.0000
  S   S165      1.0  0.17813  0.05654  0.80994  1.0000
  H   H755      1.0  0.19956  0.11057  0.85330  1.0000
  Fe  Fe79      1.0  0.05515  0.21710  0.82395  1.0000
  S   S166      1.0  0.07643  0.20157  0.82127  1.0000
  H   H756      1.0  0.16322  0.99580  0.78848  1.0000
  C   C640      1.0  0.19326  0.04703  0.84182  1.0000
  C   C641      1.0  0.16475  0.20251  0.94480  1.0000
  S   S167      1.0  0.23336  0.16537  0.94524  1.0000
  C   C642      1.0  0.12328  0.28508  0.81574  1.0000
  Fe  Fe80      1.0  0.08557  0.21940  0.82260  1.0000
  S   S168      1.0  0.10397  0.21445  0.83395  1.0000
  C   C643      1.0  0.19022  0.22691  0.96051  1.0000
  S   S169      1.0  0.06399  0.23402  0.82741  1.0000
  H   H757      1.0  0.15148  0.04713  0.81064  1.0000
  S   S170      1.0  0.21595  0.14619  0.84796  1.0000
  C   C644      1.0  0.02275  0.20882  0.82852  1.0000
  Fe  Fe81      1.0  0.22394  0.12327  0.85824  1.0000
  C   C645      1.0  0.17202  0.22716  0.84231  1.0000
  S   S171      1.0  0.19808  0.05142  0.77840  1.0000
  Fe  Fe82      1.0  0.20091  0.14723  0.86917  1.0000
  S   S172      1.0  0.17812  0.15923  0.87074  1.0000
  H   H758      1.0  0.19820  0.14912  0.79119  1.0000
  S   S173      1.0  0.20761  0.12396  0.87911  1.0000
  C   C646      1.0  0.19367  0.09916  0.84106  1.0000
  Fe  Fe83      1.0  0.13096  0.24431  0.88657  1.0000
  S   S174      1.0  0.15121  0.24652  0.87015  1.0000
  S   S175      1.0  0.11082  0.24452  0.87981  1.0000
  Fe  Fe84      1.0  0.14349  0.24660  0.91116  1.0000
  S   S176      1.0  0.16442  0.24944  0.89606  1.0000
  S   S177      1.0  0.14140  0.24154  0.93564  1.0000
  Fe  Fe85      1.0  0.15158  0.26380  0.88019  1.0000
  S   S178      1.0  0.15689  0.28358  0.86401  1.0000
  Fe  Fe86      1.0  0.16231  0.23206  0.88723  1.0000
  S   S179      1.0  0.18260  0.21639  0.88121  1.0000
  S   S180      1.0  0.13051  0.26270  0.89590  1.0000
  S   S181      1.0  0.14216  0.22803  0.90303  1.0000
  C   C647      1.0  0.05119  0.18270  0.78829  1.0000
  C   C648      1.0  0.00870  0.20758  0.83563  1.0000
  N   N46       1.0  0.14923  0.99399  0.80940  1.0000
  H   H759      1.0  0.20719  0.16066  0.82080  1.0000
  H   H760      1.0  0.16793  0.16318  0.92198  1.0000
  C   C649      1.0  0.00383  0.25974  0.80399  1.0000
  Fe  Fe87      1.0  0.19886  0.04239  0.80156  1.0000
  S   S182      1.0  0.22173  0.27633  0.83054  1.0000
  H   H761      1.0  0.17198  0.19734  0.91111  1.0000
  C   C650      1.0  0.12070  0.27954  0.83082  1.0000
  H   H762      1.0  0.18547  0.05430  0.84849  1.0000
  H   H763      1.0  0.17793  0.22586  0.85039  1.0000
  C   C651      1.0  0.15620  0.23605  0.79609  1.0000
  H   H764      1.0  0.02152  0.20692  0.79530  1.0000
  H   H765      1.0  0.19425  0.18506  0.90100  1.0000
  H   H766      1.0  0.17010  0.02630  0.81856  1.0000
  H   H767      1.0  0.14426  0.26100  0.83776  1.0000
  H   H768      1.0  0.00725  0.23777  0.81551  1.0000
  S   S183      1.0  0.15502  0.27512  0.78976  1.0000
  H   H769      1.0  0.00512  0.20775  0.84691  1.0000
  C   C652      1.0  0.14002  0.03438  0.80593  1.0000
  C   C653      1.0  0.14391  0.25105  0.94717  1.0000
  C   C654      1.0  0.14395  0.24417  0.96163  1.0000
  C   C655      1.0  0.23155  0.17317  0.78409  1.0000
  C   C656      1.0  0.14696  0.26560  0.96663  1.0000
  C   C657      1.0  0.14701  0.27243  0.95217  1.0000
  C   C658      1.0  0.14559  0.26519  0.94247  1.0000
  H   H770      1.0  0.14270  0.23321  0.96539  1.0000
  C   C659      1.0  0.19969  0.03019  0.86291  1.0000
  H   H771      1.0  0.14811  0.28344  0.94840  1.0000
  H   H772      1.0  0.14557  0.27066  0.93141  1.0000
  C   C660      1.0  0.17476  0.28124  0.85420  1.0000
  C   C661      1.0  0.17913  0.29231  0.84291  1.0000
  C   C662      1.0  0.19345  0.29080  0.83531  1.0000
  C   C663      1.0  0.20349  0.27826  0.83909  1.0000
  C   C664      1.0  0.19904  0.26708  0.85018  1.0000
  C   C665      1.0  0.18470  0.26851  0.85763  1.0000
  H   H773      1.0  0.17151  0.30219  0.84022  1.0000
  H   H774      1.0  0.19679  0.29953  0.82689  1.0000
  H   H775      1.0  0.20675  0.25737  0.85317  1.0000
  H   H776      1.0  0.18145  0.25989  0.86627  1.0000
  H   H777      1.0  0.09256  0.26495  0.83324  1.0000
  C   C666      1.0  0.13057  0.29642  0.83665  1.0000
  Fe  Fe88      1.0  0.22843  0.31879  0.78625  1.0000
  C   C667      1.0  0.14438  0.27255  0.83545  1.0000
  H   H778      1.0  0.12494  0.26474  0.85840  1.0000
  C   C668      1.0  0.00002  0.24659  0.81012  1.0000
  C   C669      1.0  0.17127  0.23943  0.83133  1.0000
  H   H779      1.0  0.22092  0.21967  0.88041  1.0000
  C   C670      1.0  0.21280  0.08873  0.82341  1.0000
  C   C671      1.0  0.18240  0.23660  0.95043  1.0000
  H   H780      1.0  0.22302  0.02066  0.84404  1.0000
  N   N47       1.0  0.23303  0.20003  0.87373  1.0000
  H   H781      1.0  0.14469  0.00128  0.78824  1.0000
  N   N48       1.0  0.14731  0.23332  0.81088  1.0000
  H   H782      1.0  0.21656  0.08255  0.81519  1.0000
  H   H783      1.0  0.19376  0.02252  0.86230  1.0000
  C   C672      1.0  0.10947  0.27202  0.83687  1.0000
  H   H784      1.0  0.10682  0.26720  0.84818  1.0000
  H   H785      1.0  0.13624  0.30042  0.82552  1.0000
  H   H786      1.0  0.04142  0.18234  0.79644  1.0000
  C   C673      1.0  0.12452  0.27643  0.85519  1.0000
  H   H787      1.0  0.13136  0.01980  0.80083  1.0000
  S   S184      1.0  0.03453  0.21101  0.83777  1.0000
  C   C674      1.0  0.17802  0.17660  0.87120  1.0000
  C   C675      1.0  0.19053  0.18170  0.86517  1.0000
  C   C676      1.0  0.19159  0.19433  0.86782  1.0000
  C   C677      1.0  0.18007  0.20202  0.87627  1.0000
  C   C678      1.0  0.16711  0.19764  0.88131  1.0000
  C   C679      1.0  0.16609  0.18484  0.87878  1.0000
  H   H788      1.0  0.19954  0.17567  0.85877  1.0000
  H   H789      1.0  0.20140  0.19804  0.86350  1.0000
  H   H790      1.0  0.15811  0.20370  0.88770  1.0000
  H   H791      1.0  0.15636  0.18094  0.88333  1.0000
  H   H792      1.0  0.13115  0.27837  0.86146  1.0000
  C   C680      1.0  0.10582  0.22343  0.84625  1.0000
  C   C681      1.0  0.11856  0.21931  0.85120  1.0000
  C   C682      1.0  0.12054  0.22608  0.86096  1.0000
  C   C683      1.0  0.10952  0.23669  0.86636  1.0000
  C   C684      1.0  0.09674  0.24074  0.86151  1.0000
  C   C685      1.0  0.09496  0.23430  0.85137  1.0000
  H   H793      1.0  0.12684  0.21056  0.84777  1.0000
  H   H794      1.0  0.13033  0.22266  0.86477  1.0000
  H   H795      1.0  0.08810  0.24885  0.86571  1.0000
  H   H796      1.0  0.08507  0.23759  0.84774  1.0000
  H   H797      1.0  0.15913  0.21080  0.95077  1.0000
  H   H798      1.0  0.13192  0.29051  0.81025  1.0000
  C   C686      1.0  0.10379  0.27647  0.81366  1.0000
  H   H799      1.0  0.16064  0.24570  0.79357  1.0000
  C   C687      1.0  0.17935  0.17874  0.94374  1.0000
  C   C688      1.0  0.20801  0.14050  0.79171  1.0000
  H   H800      1.0  0.13661  0.29802  0.84375  1.0000
  H   H801      1.0  0.11340  0.28224  0.85889  1.0000
  N   N49       1.0  0.12978  0.28119  0.83946  1.0000
  H   H802      1.0  0.18254  0.10108  0.84649  1.0000
  C   C689      1.0  0.16089  0.01085  0.81499  1.0000
  H   H803      1.0  0.18230  0.15867  0.90723  1.0000
  C   C690      1.0  0.22244  0.09405  0.82736  1.0000
  H   H804      1.0  0.16566  0.20709  0.85156  1.0000
  C   C691      1.0  0.19838  0.09113  0.83038  1.0000
  C   C692      1.0  0.19477  0.01225  0.79049  1.0000
  C   C693      1.0  0.21369  0.04795  0.84976  1.0000
  Fe  Fe89      1.0  0.22338  0.13119  0.88648  1.0000
  C   C694      1.0  0.20329  0.10458  0.84492  1.0000
  H   H805      1.0  0.21790  0.03324  0.82825  1.0000
  C   C695      1.0  0.19247  0.00286  0.78360  1.0000
  H   H806      1.0  0.21517  0.18268  0.81586  1.0000
  H   H807      1.0  0.12654  0.99832  0.81034  1.0000
  H   H808      1.0  0.14929  0.27589  0.82386  1.0000
  C   C696      1.0  0.10117  0.27058  0.82836  1.0000
  C   C697      1.0  0.19817  0.21026  0.94425  1.0000
  S   S185      1.0  0.21262  0.30463  0.79562  1.0000
  C   C698      1.0  0.22955  0.18722  0.87187  1.0000
  N   N50       1.0  0.07240  0.19710  0.86894  1.0000
  C   C699      1.0  0.06083  0.19082  0.87959  1.0000
  C   C700      1.0  0.06590  0.21012  0.85937  1.0000
  C   C701      1.0  0.08064  0.18660  0.85992  1.0000
  C   C702      1.0  0.08116  0.20097  0.87644  1.0000
  C   C703      1.0  0.07488  0.21125  0.88511  1.0000
  C   C704      1.0  0.09601  0.19495  0.87530  1.0000
  C   C705      1.0  0.08298  0.21539  0.89198  1.0000
  C   C706      1.0  0.10396  0.19905  0.88237  1.0000
  C   C707      1.0  0.09748  0.20931  0.89062  1.0000
  H   H809      1.0  0.05339  0.19850  0.88599  1.0000
  H   H810      1.0  0.05418  0.18756  0.87427  1.0000
  H   H811      1.0  0.06527  0.18118  0.88724  1.0000
  H   H812      1.0  0.05824  0.21807  0.86531  1.0000
  H   H813      1.0  0.05978  0.20759  0.85294  1.0000
  H   H814      1.0  0.07432  0.21552  0.85178  1.0000
  H   H815      1.0  0.08925  0.19090  0.85133  1.0000
  H   H816      1.0  0.08547  0.17627  0.86646  1.0000
  H   H817      1.0  0.07377  0.18404  0.85432  1.0000
  H   H818      1.0  0.06369  0.21636  0.88643  1.0000
  H   H819      1.0  0.10184  0.18729  0.86874  1.0000
  H   H820      1.0  0.07808  0.22358  0.89819  1.0000
  H   H821      1.0  0.11533  0.19459  0.88110  1.0000
  H   H822      1.0  0.10379  0.21285  0.89565  1.0000
  S   S186      1.0  0.22557  0.12460  0.90981  1.0000
  N   N51       1.0  0.22606  0.24070  0.79862  1.0000
  H   H823      1.0  0.17648  0.24073  0.93017  1.0000
  Fe  Fe90      1.0  0.22616  0.29225  0.77918  1.0000
  C   C708      1.0  0.08542  0.27138  0.78267  1.0000
  H   H824      1.0  0.20135  0.23078  0.80961  1.0000
  N   N52       1.0  0.18968  0.23000  0.97440  1.0000
  N   N53       1.0  0.21488  0.14093  0.80295  1.0000
  C   C709      1.0  0.19850  0.17548  0.90881  1.0000
  C   C710      1.0  0.22385  0.22749  0.80958  1.0000
  H   H825      1.0  0.22774  0.23101  0.78121  1.0000
  C   C711      1.0  0.06109  0.18971  0.78941  1.0000
  C   C712      1.0  0.22840  0.04706  0.84312  1.0000
  H   H826      1.0  0.09001  0.26030  0.78683  1.0000
  C   C713      1.0  0.14981  0.00840  0.81026  1.0000
  H   H827      1.0  0.12862  0.24433  0.82375  1.0000
  C   C714      1.0  0.16136  0.02467  0.81523  1.0000
  C   C715      1.0  0.99925  0.20617  0.82815  1.0000
  N   N54       1.0  0.20539  0.03838  0.84846  1.0000
  H   H828      1.0  0.98847  0.20524  0.83369  1.0000
  C   C716      1.0  0.18487  0.24553  0.97449  1.0000
  H   H829      1.0  0.13142  0.99276  0.82748  1.0000
  C   C717      1.0  0.19942  0.00699  0.80336  1.0000
  C   C718      1.0  0.13954  0.02065  0.80549  1.0000
  C   C719      1.0  0.23267  0.15828  0.92067  1.0000
  H   H830      1.0  0.21180  0.20544  0.88680  1.0000
  H   H831      1.0  0.23093  0.19094  0.79262  1.0000
  H   H832      1.0  0.21380  0.21444  0.86832  1.0000
  H   H833      1.0  0.17213  0.18743  0.96277  1.0000
  S   S187      1.0  0.08957  0.22834  0.79865  1.0000
  C   C720      1.0  0.16488  0.20516  0.93028  1.0000
  H   H834      1.0  0.21513  0.14184  0.78086  1.0000
  H   H835      1.0  0.23380  0.12997  0.81094  1.0000
  C   C721      1.0  0.14557  0.25134  0.97128  1.0000
  H   H836      1.0  0.16293  0.25111  0.81295  1.0000
  H   H837      1.0  0.20417  0.19995  0.94194  1.0000
  H   H838      1.0  0.05905  0.19447  0.79849  1.0000
  C   C722      1.0  0.17942  0.18100  0.92894  1.0000
  H   H839      1.0  0.99755  0.28133  0.79245  1.0000
  C   C723      1.0  0.19459  0.98811  0.78955  1.0000
  C   C724      1.0  0.21472  0.06749  0.85972  1.0000
  C   C725      1.0  0.17206  0.18937  0.95150  1.0000
  Fe  Fe91      1.0  0.22806  0.29123  0.80923  1.0000
  C   C726      1.0  0.17694  0.16700  0.91368  1.0000
  C   C727      1.0  0.21775  0.10189  0.83820  1.0000
  C   C728      1.0  0.15718  0.21835  0.83279  1.0000
  Fe  Fe92      1.0  0.07860  0.21182  0.79778  1.0000
  H   H840      1.0  0.20595  0.17842  0.91340  1.0000
  C   C729      1.0  0.17333  0.27445  0.78495  1.0000
  H   H841      1.0  0.19483  0.14539  0.81810  1.0000
  H   H842      1.0  0.17231  0.17655  0.90616  1.0000
  S   S188      1.0  0.20247  0.01870  0.81214  1.0000
  C   C730      1.0  0.22189  0.24083  0.78537  1.0000
  H   H843      1.0  0.20201  0.15736  0.93347  1.0000
  C   C731      1.0  0.15605  0.23081  0.82152  1.0000
  H   H844      1.0  0.20938  0.07573  0.86580  1.0000
  C   C732      1.0  0.21024  0.22394  0.81408  1.0000
  Fe  Fe93      1.0  0.06749  0.24181  0.80354  1.0000
  C   C733      1.0  0.15091  0.03639  0.81079  1.0000
  H   H845      1.0  0.13328  0.21898  0.82274  1.0000
  C   C734      1.0  0.14092  0.22109  0.81228  1.0000
  S   S189      1.0  0.05694  0.22626  0.80047  1.0000
  H   H846      1.0  0.03801  0.20893  0.80848  1.0000
  C   C735      1.0  0.19362  0.28142  0.78752  1.0000
  H   H847      1.0  0.14922  0.21113  0.81110  1.0000
  C   C736      1.0  0.98693  0.24473  0.80942  1.0000
  H   H848      1.0  0.19090  0.21765  0.92447  1.0000
  H   H849      1.0  0.01399  0.26113  0.80462  1.0000
  Fe  Fe94      1.0  0.17812  0.06641  0.78673  1.0000
  C   C737      1.0  0.23101  0.14949  0.91260  1.0000
  H   H850      1.0  0.16954  0.00233  0.81823  1.0000
  C   C738      1.0  0.17211  0.19464  0.92241  1.0000
  H   H851      1.0  0.21998  0.25368  0.81434  1.0000
  S   S190      1.0  0.21228  0.05705  0.80196  1.0000
  H   H852      1.0  0.20847  0.02396  0.86848  1.0000
  H   H853      1.0  0.20333  0.20517  0.96463  1.0000
  C   C739      1.0  0.99454  0.27109  0.79714  1.0000
  H   H854      1.0  0.17660  0.24767  0.83095  1.0000
  H   H855      1.0  0.18489  0.16888  0.94959  1.0000
  H   H856      1.0  0.15194  0.20982  0.83411  1.0000
  H   H857      1.0  0.18722  0.04022  0.83982  1.0000
  C   C740      1.0  0.13544  0.24596  0.81268  1.0000
  H   H858      1.0  0.13931  0.25588  0.81078  1.0000
  C   C741      1.0  0.02721  0.20846  0.81398  1.0000
  C   C742      1.0  0.19073  0.22018  0.93443  1.0000
  H   H859      1.0  0.21229  0.22908  0.96898  1.0000
  N   N55       1.0  0.18699  0.17004  0.92035  1.0000
  H   H860      1.0  0.18551  0.15140  0.93773  1.0000
  C   C743      1.0  0.20706  0.05857  0.85799  1.0000
  C   C744      1.0  0.19359  0.15617  0.92887  1.0000
  H   H861      1.0  0.20487  0.16725  0.90256  1.0000
  C   C745      1.0  0.20148  0.99221  0.80942  1.0000
  C   C746      1.0  0.13474  0.99122  0.81625  1.0000
  H   H862      1.0  0.11699  0.28811  0.79587  1.0000
  Fe  Fe95      1.0  0.20926  0.06752  0.77956  1.0000
  H   H863      1.0  0.19296  0.02355  0.78579  1.0000
  C   C747      1.0  0.01782  0.20719  0.80652  1.0000
  H   H864      1.0  0.20733  0.02077  0.83883  1.0000
  C   C748      1.0  0.22914  0.06622  0.85324  1.0000
  C   C749      1.0  0.07055  0.27623  0.78515  1.0000
  H   H865      1.0  0.22635  0.18943  0.86149  1.0000
  H   H866      1.0  0.19582  0.06022  0.86298  1.0000
  C   C750      1.0  0.20503  0.13724  0.81705  1.0000
  S   S191      1.0  0.18922  0.08336  0.78607  1.0000
  H   H867      1.0  0.13228  0.04361  0.80187  1.0000
  C   C751      1.0  0.21935  0.21037  0.87741  1.0000
  H   H868      1.0  0.12843  0.24820  0.80502  1.0000
  C   C752      1.0  0.22713  0.18126  0.79453  1.0000
  H   H869      1.0  0.19744  0.20896  0.82764  1.0000
  C   C753      1.0  0.20785  0.21155  0.82446  1.0000
  C   C754      1.0  0.98869  0.17824  0.78277  1.0000
  H   H870      1.0  0.19210  0.03728  0.86989  1.0000
  H   H871      1.0  0.17349  0.28245  0.80289  1.0000
  H   H872      1.0  0.22073  0.18358  0.88059  1.0000
  H   H873      1.0  0.16539  0.22686  0.79444  1.0000
  S   S192      1.0  0.05885  0.26480  0.79424  1.0000
  H   H874      1.0  0.14995  0.23795  0.78782  1.0000
  H   H875      1.0  0.21712  0.19274  0.83867  1.0000
  C   C755      1.0  0.22773  0.13104  0.93421  1.0000
  H   H876      1.0  0.99732  0.17261  0.78872  1.0000
  C   C756      1.0  0.00382  0.20603  0.81351  1.0000
  S   S193      1.0  0.08586  0.19983  0.77978  1.0000
  H   H877      1.0  0.19828  0.28560  0.79355  1.0000
  H   H878      1.0  0.13460  0.22326  0.80400  1.0000
  H   H879      1.0  0.19891  0.14806  0.92215  1.0000
  H   H880      1.0  0.20503  0.13004  0.79372  1.0000
  S   S194      1.0  0.99252  0.20507  0.80312  1.0000
  C   C757      1.0  0.19777  0.21345  0.95720  1.0000
  H   H881      1.0  0.17124  0.04158  0.77966  1.0000
  S   S195      1.0  0.21546  0.15442  0.87783  1.0000
  C   C758      1.0  0.16342  0.24126  0.82107  1.0000
  C   C759      1.0  0.21386  0.02784  0.83954  1.0000
  H   H882      1.0  0.15938  0.21552  0.92510  1.0000
  C   C760      1.0  0.21715  0.25333  0.80438  1.0000
  H   H883      1.0  0.23156  0.15413  0.77852  1.0000
  C   C761      1.0  0.15257  0.99337  0.79408  1.0000
  H   H884      1.0  0.19137  0.25200  0.96535  1.0000
  H   H885      1.0  0.20558  0.25349  0.80699  1.0000
  H   H886      1.0  0.98862  0.18977  0.78081  1.0000
  C   C762      1.0  0.21886  0.20246  0.83077  1.0000
  H   H887      1.0  0.17345  0.24971  0.97403  1.0000
  H   H888      1.0  0.09719  0.27552  0.80714  1.0000
  H   H889      1.0  0.21860  0.26349  0.79650  1.0000
  H   H890      1.0  0.20506  0.98803  0.81939  1.0000
  H   H891      1.0  0.21029  0.24166  0.78701  1.0000
  C   C763      1.0  0.17963  0.27940  0.79295  1.0000
  H   H892      1.0  0.17582  0.24683  0.95225  1.0000
  S   S196      1.0  0.22091  0.34258  0.77953  1.0000
  C   C764      1.0  0.18269  0.23322  0.93761  1.0000
  H   H893      1.0  0.19712  0.05396  0.83135  1.0000
  H   H894      1.0  0.23181  0.15324  0.90116  1.0000
  H   H895      1.0  0.20222  0.12677  0.81858  1.0000
  C   C765      1.0  0.21845  0.15507  0.80006  1.0000
  H   H896      1.0  0.22791  0.11172  0.78343  1.0000
  H   H897      1.0  0.22579  0.12048  0.93954  1.0000
  C   C766      1.0  0.21389  0.16373  0.81039  1.0000
  H   H898      1.0  0.21001  0.13600  0.82614  1.0000
  H   H899      1.0  0.22874  0.13600  0.95372  1.0000
  C   C767      1.0  0.22940  0.13982  0.94229  1.0000
  S   S197      1.0  0.23037  0.10772  0.84332  1.0000
  H   H900      1.0  0.23296  0.19133  0.89620  1.0000
  C   C768      1.0  0.21828  0.17656  0.80763  1.0000
  C   C769      1.0  0.22737  0.16025  0.78679  1.0000
  Fe  Fe96      1.0  0.23131  0.15100  0.85747  1.0000
  C   C770      1.0  0.23185  0.15352  0.93556  1.0000
  C   C771      1.0  0.22820  0.12968  0.80283  1.0000
  H   H901      1.0  0.22604  0.11878  0.80544  1.0000
  H   H902      1.0  0.23362  0.09185  0.82216  1.0000
  Fe  Fe97      1.0  0.23436  0.16057  0.96893  1.0000
  C   C772      1.0  0.23222  0.20579  0.82682  1.0000
  C   C773      1.0  0.23480  0.21804  0.81636  1.0000
  C   C774      1.0  0.06462  0.29054  0.77974  1.0000
  C   C775      1.0  0.07366  0.19042  0.77888  1.0000
  H   H903      1.0  0.05315  0.29433  0.78166  1.0000
  H   H904      1.0  0.00245  0.15268  0.77937  1.0000
  H   H905      1.0  0.23432  0.03959  0.83638  1.0000
  H   H906      1.0  0.23471  0.16878  0.91537  1.0000
  H   H907      1.0  0.23576  0.13091  0.79218  1.0000
  H   H908      1.0  0.23493  0.07342  0.85436  1.0000
  H   H909      1.0  0.23141  0.22866  0.85786  1.0000
  C   C776      1.0  0.19906  0.98278  0.80255  1.0000
  C   C777      1.0  0.23595  0.05610  0.84489  1.0000
  H   H910      1.0  0.17068  0.98248  0.81099  1.0000
  H   H911      1.0  0.15799  0.98255  0.82801  1.0000
  H   H912      1.0  0.22119  0.37149  0.77773  1.0000
  C   C778      1.0  0.15946  0.98218  0.81660  1.0000
  H   H913      1.0  0.10578  0.98164  0.78200  1.0000
  Fe  Fe98      1.0  0.05256  0.85299  0.14846  1.0000
  S   S198      1.0  0.06434  0.86381  0.12729  1.0000
  S   S199      1.0  0.09396  0.84347  0.13601  1.0000
  Fe  Fe99      1.0  0.07975  0.86460  0.13978  1.0000
  S   S200      1.0  0.08842  0.88472  0.13501  1.0000
  Fe  Fe100     1.0  0.07726  0.84167  0.12595  1.0000
  S   S201      1.0  0.08269  0.83152  0.10694  1.0000
  S   S202      1.0  0.06464  0.83077  0.14641  1.0000
  Fe  Fe101     1.0  0.03549  0.80355  0.05156  1.0000
  S   S203      1.0  0.03341  0.78079  0.05573  1.0000
  S   S204      1.0  0.03996  0.81673  0.02909  1.0000
  Fe  Fe102     1.0  0.03037  0.80333  0.08307  1.0000
  S   S205      1.0  0.02745  0.78075  0.09004  1.0000
  S   S206      1.0  0.02834  0.81648  0.09892  1.0000
  Fe  Fe103     1.0  0.04651  0.77668  0.07212  1.0000
  S   S207      1.0  0.06608  0.75897  0.07428  1.0000
  Fe  Fe104     1.0  0.01447  0.78691  0.07316  1.0000
  H   H914      1.0  0.15527  0.71917  0.14657  1.0000
  S   S208      1.0  0.05019  0.79889  0.06630  1.0000
  S   S209      1.0  0.01571  0.81003  0.06779  1.0000
  H   H915      1.0  0.02482  0.80899  0.14459  1.0000
  C   C779      1.0  0.21911  0.91927  0.04259  1.0000
  S   S210      1.0  0.12790  0.69417  0.10991  1.0000
  C   C780      1.0  0.18787  0.66516  0.11273  1.0000
  S   S211      1.0  0.07971  0.74731  0.13550  1.0000
  Fe  Fe105     1.0  0.21971  0.72273  0.05590  1.0000
  H   H916      1.0  0.15228  0.88700  0.00638  1.0000
  S   S212      1.0  0.14216  0.92068  0.15138  1.0000
  C   C781      1.0  0.09742  0.89001  0.17068  1.0000
  C   C782      1.0  0.11257  0.77584  0.11849  1.0000
  C   C783      1.0  0.16354  0.66208  0.13550  1.0000
  C   C784      1.0  0.11922  0.78379  0.14091  1.0000
  C   C785      1.0  0.20197  0.74986  0.09705  1.0000
  C   C786      1.0  0.18032  0.91921  0.12828  1.0000
  C   C787      1.0  0.20279  0.76066  0.10301  1.0000
  S   S213      1.0  0.21404  0.95367  0.09509  1.0000
  S   S214      1.0  0.02836  0.85856  0.15557  1.0000
  H   H917      1.0  0.19712  0.79664  0.98510  1.0000
  H   H918      1.0  0.20725  0.68761  0.11678  1.0000
  S   S215      1.0  0.11175  0.81569  0.98731  1.0000
  S   S216      1.0  0.13101  0.82114  0.00688  1.0000
  S   S217      1.0  0.13527  0.78156  0.00835  1.0000
  Fe  Fe106     1.0  0.11237  0.83327  0.99697  1.0000
  S   S218      1.0  0.09392  0.84401  0.01202  1.0000
  C   C788      1.0  0.20203  0.93413  0.99368  1.0000
  Fe  Fe107     1.0  0.14438  0.83054  0.98616  1.0000
  N   N56       1.0  0.21582  0.93764  0.98510  1.0000
  S   S219      1.0  0.18947  0.89844  0.00985  1.0000
  Fe  Fe108     1.0  0.19032  0.71962  0.05741  1.0000
  S   S220      1.0  0.20847  0.72397  0.03885  1.0000
  S   S221      1.0  0.17842  0.70410  0.05676  1.0000
  Fe  Fe109     1.0  0.19925  0.74688  0.04009  1.0000
  S   S222      1.0  0.19688  0.76534  0.02118  1.0000
  S   S223      1.0  0.18009  0.74269  0.05742  1.0000
  H   H919      1.0  0.19189  0.94864  0.04269  1.0000
  C   C789      1.0  0.15228  0.77702  0.01221  1.0000
  C   C790      1.0  0.15761  0.76312  0.01939  1.0000
  C   C791      1.0  0.17132  0.75943  0.02222  1.0000
  C   C792      1.0  0.17976  0.76962  0.01772  1.0000
  C   C793      1.0  0.17445  0.78346  0.01045  1.0000
  C   C794      1.0  0.16074  0.78717  0.00774  1.0000
  H   H920      1.0  0.15126  0.75513  0.02258  1.0000
  H   H921      1.0  0.17547  0.74863  0.02762  1.0000
  H   H922      1.0  0.18082  0.79143  0.00722  1.0000
  C   C795      1.0  0.22546  0.74679  0.10855  1.0000
  C   C796      1.0  0.15949  0.85054  0.02055  1.0000
  C   C797      1.0  0.15730  0.84461  0.01026  1.0000
  H   H923      1.0  0.15190  0.85055  0.03074  1.0000
  H   H924      1.0  0.14804  0.84014  0.01251  1.0000
  N   N57       1.0  0.17928  0.93208  0.08843  1.0000
  C   C798      1.0  0.21054  0.94557  0.05101  1.0000
  Fe  Fe110     1.0  0.15429  0.92424  0.16540  1.0000
  H   H925      1.0  0.20730  0.95586  0.05393  1.0000
  C   C799      1.0  0.10952  0.77131  0.10781  1.0000
  N   N58       1.0  0.18965  0.70556  0.12109  1.0000
  S   S224      1.0  0.11804  0.94893  0.16024  1.0000
  H   H926      1.0  0.19344  0.94679  0.07899  1.0000
  C   C800      1.0  0.18438  0.92681  0.10199  1.0000
  C   C801      1.0  0.19904  0.92494  0.10175  1.0000
  H   H927      1.0  0.17449  0.70921  0.10796  1.0000
  S   S225      1.0  0.22253  0.97846  0.10499  1.0000
  H   H928      1.0  0.22431  0.95495  0.02028  1.0000
  C   C802      1.0  0.17328  0.98024  0.10126  1.0000
  C   C803      1.0  0.13863  0.88048  0.17539  1.0000
  C   C804      1.0  0.14255  0.69648  0.09576  1.0000
  C   C805      1.0  0.15147  0.70518  0.09546  1.0000
  C   C806      1.0  0.16275  0.70747  0.08353  1.0000
  C   C807      1.0  0.16507  0.70090  0.07210  1.0000
  C   C808      1.0  0.15638  0.69189  0.07268  1.0000
  C   C809      1.0  0.14513  0.68968  0.08451  1.0000
  H   H929      1.0  0.14950  0.71032  0.10427  1.0000
  H   H930      1.0  0.16945  0.71450  0.08301  1.0000
  H   H931      1.0  0.15823  0.68678  0.06386  1.0000
  H   H932      1.0  0.13827  0.68288  0.08480  1.0000
  Fe  Fe111     1.0  0.13149  0.80434  0.99581  1.0000
  C   C810      1.0  0.99259  0.81118  0.11966  1.0000
  H   H933      1.0  0.15676  0.79792  0.00221  1.0000
  C   C811      1.0  0.18099  0.85672  0.00438  1.0000
  H   H934      1.0  0.18497  0.66259  0.16873  1.0000
  H   H935      1.0  0.11760  0.76378  0.10219  1.0000
  H   H936      1.0  0.13594  0.67841  0.13910  1.0000
  H   H937      1.0  0.08312  0.79239  0.15069  1.0000
  H   H938      1.0  0.99756  0.78039  0.04948  1.0000
  C   C812      1.0  0.05493  0.82434  0.02448  1.0000
  C   C813      1.0  0.06233  0.82712  0.01013  1.0000
  C   C814      1.0  0.07449  0.83290  0.00627  1.0000
  C   C815      1.0  0.07898  0.83640  0.01670  1.0000
  C   C816      1.0  0.07144  0.83386  0.03102  1.0000
  C   C817      1.0  0.05964  0.82753  0.03496  1.0000
  H   H939      1.0  0.05874  0.82465  0.00199  1.0000
  H   H940      1.0  0.08020  0.83497  0.99518  1.0000
  H   H941      1.0  0.07496  0.83647  0.03911  1.0000
  H   H942      1.0  0.05412  0.82530  0.04606  1.0000
  C   C818      1.0  0.06999  0.75581  0.09123  1.0000
  C   C819      1.0  0.08053  0.74395  0.09552  1.0000
  C   C820      1.0  0.08359  0.74128  0.10911  1.0000
  C   C821      1.0  0.07602  0.75038  0.11848  1.0000
  C   C822      1.0  0.06553  0.76226  0.11414  1.0000
  C   C823      1.0  0.06267  0.76508  0.10048  1.0000
  H   H943      1.0  0.08609  0.73663  0.08851  1.0000
  H   H944      1.0  0.09149  0.73192  0.11249  1.0000
  H   H945      1.0  0.05969  0.76935  0.12133  1.0000
  H   H946      1.0  0.05474  0.77441  0.09717  1.0000
  C   C824      1.0  0.09473  0.89064  0.14688  1.0000
  Fe  Fe112     1.0  0.12291  0.92506  0.16885  1.0000
  C   C825      1.0  0.18195  0.94662  0.08153  1.0000
  H   H947      1.0  0.21529  0.76766  0.11298  1.0000
  C   C826      1.0  0.10564  0.90813  0.15052  1.0000
  C   C827      1.0  0.10117  0.90250  0.14143  1.0000
  H   H948      1.0  0.20378  0.92356  0.00125  1.0000
  H   H949      1.0  0.01900  0.85995  0.10918  1.0000
  H   H950      1.0  0.11032  0.91743  0.14617  1.0000
  H   H951      1.0  0.10254  0.90749  0.13012  1.0000
  C   C828      1.0  0.06772  0.82715  0.10470  1.0000
  C   C829      1.0  0.06930  0.81891  0.09480  1.0000
  C   C830      1.0  0.05737  0.81522  0.09315  1.0000
  C   C831      1.0  0.04377  0.82002  0.10120  1.0000
  C   C832      1.0  0.04226  0.82831  0.11103  1.0000
  C   C833      1.0  0.05417  0.83180  0.11282  1.0000
  H   H952      1.0  0.07979  0.81524  0.08856  1.0000
  H   H953      1.0  0.05874  0.80873  0.08564  1.0000
  H   H954      1.0  0.03185  0.83213  0.11727  1.0000
  H   H955      1.0  0.05283  0.83823  0.12040  1.0000
  H   H956      1.0  0.19521  0.93359  0.98681  1.0000
  S   S226      1.0  0.21245  0.74627  0.05513  1.0000
  N   N59       1.0  0.12688  0.74634  0.06826  1.0000
  C   C834      1.0  0.13245  0.74703  0.05263  1.0000
  C   C835      1.0  0.12726  0.73103  0.07543  1.0000
  C   C836      1.0  0.11175  0.75415  0.07081  1.0000
  C   C837      1.0  0.13534  0.75305  0.07348  1.0000
  C   C838      1.0  0.14239  0.74576  0.08491  1.0000
  C   C839      1.0  0.13657  0.76746  0.06716  1.0000
  C   C840      1.0  0.15027  0.75244  0.08957  1.0000
  C   C841      1.0  0.14455  0.77401  0.07184  1.0000
  C   C842      1.0  0.15142  0.76649  0.08300  1.0000
  H   H957      1.0  0.14406  0.74194  0.05031  1.0000
  H   H958      1.0  0.12692  0.74133  0.04845  1.0000
  H   H959      1.0  0.13113  0.75818  0.04611  1.0000
  H   H960      1.0  0.12086  0.72627  0.07127  1.0000
  H   H961      1.0  0.12274  0.72956  0.08721  1.0000
  H   H962      1.0  0.13833  0.72446  0.07355  1.0000
  H   H963      1.0  0.10735  0.75396  0.08246  1.0000
  H   H964      1.0  0.11036  0.76554  0.06497  1.0000
  H   H965      1.0  0.10490  0.74925  0.06737  1.0000
  H   H966      1.0  0.14201  0.73488  0.09046  1.0000
  H   H967      1.0  0.13142  0.77376  0.05849  1.0000
  H   H968      1.0  0.15561  0.74671  0.09832  1.0000
  H   H969      1.0  0.14548  0.78495  0.06677  1.0000
  H   H970      1.0  0.15773  0.77148  0.08659  1.0000
  H   H971      1.0  0.15618  0.76916  0.98635  1.0000
  C   C843      1.0  0.20187  0.94149  0.04455  1.0000
  C   C844      1.0  0.17897  0.85055  0.99425  1.0000
  H   H972      1.0  0.22835  0.77124  0.17645  1.0000
  S   S227      1.0  0.11830  0.68968  0.17626  1.0000
  H   H973      1.0  0.05825  0.88479  0.14581  1.0000
  Fe  Fe113     1.0  0.20115  0.90298  0.02395  1.0000
  H   H974      1.0  0.09441  0.77489  0.15432  1.0000
  C   C845      1.0  0.21998  0.94728  0.00405  1.0000
  H   H975      1.0  0.18148  0.79378  0.14384  1.0000
  C   C846      1.0  0.03164  0.89029  0.16267  1.0000
  H   H976      1.0  0.17627  0.95422  0.08868  1.0000
  H   H977      1.0  0.17434  0.70110  0.14087  1.0000
  Fe  Fe114     1.0  0.19170  0.87615  0.02351  1.0000
  H   H978      1.0  0.16031  0.93687  0.08007  1.0000
  C   C847      1.0  0.17422  0.67053  0.11003  1.0000
  H   H979      1.0  0.17291  0.67573  0.09917  1.0000
  Fe  Fe115     1.0  0.19404  0.74014  0.07240  1.0000
  S   S228      1.0  0.13801  0.70697  0.13859  1.0000
  C   C848      1.0  0.01472  0.89236  0.04527  1.0000
  C   C849      1.0  0.16592  0.74685  0.15966  1.0000
  C   C850      1.0  0.06583  0.91079  0.17699  1.0000
  H   H980      1.0  0.16378  0.92499  0.11708  1.0000
  H   H981      1.0  0.16122  0.63879  0.15773  1.0000
  C   C851      1.0  0.16698  0.84476  0.99700  1.0000
  C   C852      1.0  0.18250  0.69544  0.13299  1.0000
  H   H982      1.0  0.19014  0.68749  0.13906  1.0000
  H   H983      1.0  0.17716  0.68941  0.12902  1.0000
  Fe  Fe116     1.0  0.22207  0.87454  0.02445  1.0000
  H   H984      1.0  0.18098  0.73408  0.12467  1.0000
  H   H985      1.0  0.21199  0.86633  0.98147  1.0000
  N   N60       1.0  0.19249  0.82146  0.05019  1.0000
  C   C853      1.0  0.19987  0.82827  0.03574  1.0000
  C   C854      1.0  0.18020  0.83227  0.05584  1.0000
  C   C855      1.0  0.20270  0.81723  0.05976  1.0000
  C   C856      1.0  0.18728  0.80932  0.04922  1.0000
  C   C857      1.0  0.19077  0.79522  0.05764  1.0000
  C   C858      1.0  0.17813  0.81150  0.03981  1.0000
  C   C859      1.0  0.18556  0.78406  0.05647  1.0000
  C   C860      1.0  0.17304  0.80025  0.03870  1.0000
  C   C861      1.0  0.17680  0.78654  0.04697  1.0000
  H   H986      1.0  0.19257  0.83329  0.02824  1.0000
  H   H987      1.0  0.20443  0.83708  0.03620  1.0000
  H   H988      1.0  0.20873  0.82030  0.03079  1.0000
  H   H989      1.0  0.17439  0.82765  0.06672  1.0000
  H   H990      1.0  0.21792  0.89904  0.16031  1.0000
  H   H991      1.0  0.18362  0.84174  0.05651  1.0000
  H   H992      1.0  0.21219  0.80901  0.05615  1.0000
  H   H993      1.0  0.20682  0.82648  0.05988  1.0000
  H   H994      1.0  0.19766  0.81294  0.07109  1.0000
  H   H995      1.0  0.19754  0.79246  0.06520  1.0000
  H   H996      1.0  0.17484  0.82195  0.03321  1.0000
  H   H997      1.0  0.14220  0.64241  0.16191  1.0000
  H   H998      1.0  0.16624  0.80213  0.03128  1.0000
  H   H999      1.0  0.17304  0.77777  0.04591  1.0000
  N   N61       1.0  0.08854  0.78493  0.03152  1.0000
  C   C862      1.0  0.09237  0.79110  0.01587  1.0000
  C   C863      1.0  0.09682  0.76995  0.03424  1.0000
  C   C864      1.0  0.07312  0.78483  0.03523  1.0000
  C   C865      1.0  0.09149  0.79293  0.04047  1.0000
  C   C866      1.0  0.09861  0.80447  0.03456  1.0000
  C   C867      1.0  0.08740  0.78908  0.05568  1.0000
  C   C868      1.0  0.10101  0.81191  0.04335  1.0000
  C   C869      1.0  0.08979  0.79662  0.06438  1.0000
  C   C870      1.0  0.09654  0.80805  0.05822  1.0000
  H   H1000     1.0  0.08653  0.80244  0.01314  1.0000
  H   H1001     1.0  0.10404  0.79058  0.01205  1.0000
  H   H1002     1.0  0.08965  0.78518  0.00940  1.0000
  H   H1003     1.0  0.10847  0.76962  0.03181  1.0000
  H   H1004     1.0  0.09516  0.76367  0.02742  1.0000
  H   H1005     1.0  0.09359  0.76423  0.04557  1.0000
  H   H1006     1.0  0.06648  0.79588  0.03457  1.0000
  H   H1007     1.0  0.07026  0.77999  0.02791  1.0000
  H   H1008     1.0  0.06966  0.77854  0.04623  1.0000
  H   H1009     1.0  0.10219  0.80823  0.02314  1.0000
  H   H1010     1.0  0.08208  0.78034  0.06096  1.0000
  H   H1011     1.0  0.10606  0.82097  0.03851  1.0000
  C   C871      1.0  0.21135  0.78671  0.15677  1.0000
  H   H1012     1.0  0.02251  0.79183  0.14500  1.0000
  N   N62       1.0  0.04068  0.90058  0.15388  1.0000
  N   N63       1.0  0.15110  0.65997  0.14755  1.0000
  N   N64       1.0  0.10476  0.79031  0.13792  1.0000
  C   C872      1.0  0.19468  0.91780  0.12768  1.0000
  C   C873      1.0  0.21510  0.89861  0.17206  1.0000
  H   H1013     1.0  0.13558  0.66190  0.13532  1.0000
  Fe  Fe117     1.0  0.20769  0.97750  0.09236  1.0000
  H   H1014     1.0  0.21395  0.69534  0.13201  1.0000
  C   C874      1.0  0.19940  0.77611  0.14083  1.0000
  C   C875      1.0  0.05853  0.91344  0.15502  1.0000
  S   S229      1.0  0.22261  0.89623  0.01002  1.0000
  H   H1015     1.0  0.08807  0.87519  0.16591  1.0000
  H   H1016     1.0  0.12613  0.98005  0.14628  1.0000
  C   C876      1.0  0.15859  0.88540  0.98419  1.0000
  C   C877      1.0  0.18956  0.65834  0.12662  1.0000
  C   C878      1.0  0.11737  0.81763  0.16122  1.0000
  H   H1017     1.0  0.18842  0.77337  0.06291  1.0000
  H   H1018     1.0  0.20020  0.65413  0.12874  1.0000
  H   H1019     1.0  0.99815  0.79490  0.15922  1.0000
  S   S230      1.0  0.16446  0.83808  0.98343  1.0000
  H   H1020     1.0  0.20525  0.70567  0.17220  1.0000
  C   C879      1.0  0.22461  0.73593  0.10268  1.0000
  H   H1021     1.0  0.05982  0.91815  0.14366  1.0000
  H   H1022     1.0  0.16310  0.83849  0.16622  1.0000
  S   S231      1.0  0.20225  0.71645  0.07443  1.0000
  C   C880      1.0  0.19637  0.71336  0.12710  1.0000
  H   H1023     1.0  0.18344  0.72349  0.10438  1.0000
  H   H1024     1.0  0.99981  0.81158  0.16135  1.0000
  N   N65       1.0  0.02933  0.85489  0.06604  1.0000
  C   C881      1.0  0.02540  0.84286  0.06319  1.0000
  C   C882      1.0  0.04463  0.85076  0.06666  1.0000
  C   C883      1.0  0.02091  0.85705  0.08048  1.0000
  C   C884      1.0  0.02689  0.86768  0.05434  1.0000
  C   C885      1.0  0.01677  0.88052  0.05664  1.0000
  C   C886      1.0  0.03466  0.86745  0.04002  1.0000
  H   H1025     1.0  0.14275  0.70230  0.17040  1.0000
  C   C887      1.0  0.03253  0.87934  0.02876  1.0000
  C   C888      1.0  0.22782  0.92339  0.04896  1.0000
  H   H1026     1.0  0.16099  0.92240  0.09549  1.0000
  H   H1027     1.0  0.17083  0.71093  0.16396  1.0000
  H   H1028     1.0  0.02763  0.83290  0.07147  1.0000
  H   H1029     1.0  0.05171  0.84719  0.05693  1.0000
  H   H1030     1.0  0.04670  0.84168  0.07587  1.0000
  H   H1031     1.0  0.04822  0.85984  0.06795  1.0000
  H   H1032     1.0  0.02348  0.86585  0.08343  1.0000
  H   H1033     1.0  0.00920  0.85937  0.08125  1.0000
  H   H1034     1.0  0.02314  0.84729  0.08905  1.0000
  H   H1035     1.0  0.19633  0.82096  0.97751  1.0000
  H   H1036     1.0  0.04245  0.85802  0.03739  1.0000
  H   H1037     1.0  0.20642  0.96038  0.98176  1.0000
  H   H1038     1.0  0.03865  0.87886  0.01793  1.0000
  C   C889      1.0  0.98997  0.78977  0.11466  1.0000
  C   C890      1.0  0.15832  0.72686  0.15011  1.0000
  C   C891      1.0  0.15188  0.83805  0.16705  1.0000
  Fe  Fe118     1.0  0.08038  0.83407  0.15671  1.0000
  C   C892      1.0  0.09306  0.88427  0.16155  1.0000
  C   C893      1.0  0.15167  0.64443  0.15315  1.0000
  C   C894      1.0  0.16220  0.66903  0.12120  1.0000
  H   H1039     1.0  0.21793  0.75949  0.13951  1.0000
  C   C895      1.0  0.14975  0.88385  0.99795  1.0000
  C   C896      1.0  0.20405  0.92065  0.11444  1.0000
  C   C897      1.0  0.09604  0.77611  0.10468  1.0000
  C   C898      1.0  0.17513  0.92373  0.11570  1.0000
  C   C899      1.0  0.21467  0.75925  0.10848  1.0000
  H   H1040     1.0  0.12947  0.74621  0.16851  1.0000
  C   C900      1.0  0.99669  0.80655  0.15434  1.0000
  C   C901      1.0  0.13515  0.87296  0.99054  1.0000
  S   S232      1.0  0.06699  0.85529  0.16118  1.0000
  C   C902      1.0  0.01440  0.85985  0.12038  1.0000
  H   H1041     1.0  0.02402  0.91927  0.15671  1.0000
  C   C903      1.0  0.15247  0.96391  0.11262  1.0000
  H   H1042     1.0  0.16938  0.72066  0.12018  1.0000
  C   C904      1.0  0.15062  0.97592  0.10141  1.0000
  S   S233      1.0  0.23545  0.94158  0.06030  1.0000
  H   H1043     1.0  0.15488  0.76279  0.14438  1.0000
  H   H1044     1.0  0.22440  0.91603  0.98197  1.0000
  H   H1045     1.0  0.17829  0.95099  0.07125  1.0000
  H   H1046     1.0  0.19006  0.86149  0.00192  1.0000
  S   S234      1.0  0.20106  0.88148  0.03895  1.0000
  H   H1047     1.0  0.07510  0.78936  0.10962  1.0000
  H   H1048     1.0  0.15198  0.63922  0.14449  1.0000
  H   H1049     1.0  0.23070  0.70331  0.08474  1.0000
  S   S235      1.0  0.19502  0.92381  0.03184  1.0000
  C   C905      1.0  0.09421  0.78658  0.15145  1.0000
  H   H1050     1.0  0.23496  0.81603  0.03419  1.0000
  C   C906      1.0  0.20942  0.72773  0.13907  1.0000
  H   H1051     1.0  0.12081  0.78758  0.14976  1.0000
  H   H1052     1.0  0.09626  0.78948  0.16060  1.0000
  Fe  Fe119     1.0  0.12330  0.70888  0.12462  1.0000
  C   C907      1.0  0.01752  0.85906  0.14398  1.0000
  H   H1053     1.0  0.14097  0.97911  0.09736  1.0000
  C   C908      1.0  0.17038  0.73219  0.16524  1.0000
  Fe  Fe120     1.0  0.10029  0.73141  0.13771  1.0000
  C   C909      1.0  0.02321  0.85930  0.12941  1.0000
  C   C910      1.0  0.16378  0.93302  0.09046  1.0000
  H   H1054     1.0  0.15128  0.97822  0.13567  1.0000
  H   H1055     1.0  0.99320  0.83612  0.05154  1.0000
  C   C911      1.0  0.98749  0.80463  0.11199  1.0000
  C   C912      1.0  0.21560  0.71367  0.13776  1.0000
  H   H1056     1.0  0.20975  0.95472  0.00443  1.0000
  S   S236      1.0  0.18706  0.75165  0.09028  1.0000
  H   H1057     1.0  0.21847  0.61508  0.17212  1.0000
  H   H1058     1.0  0.19209  0.74573  0.13534  1.0000
  C   C913      1.0  0.17554  0.96776  0.11190  1.0000
  H   H1059     1.0  0.15718  0.94075  0.09724  1.0000
  H   H1060     1.0  0.16093  0.66093  0.16405  1.0000
  C   C914      1.0  0.10354  0.90209  0.16525  1.0000
  H   H1061     1.0  0.03141  0.84026  0.05268  1.0000
  H   H1062     1.0  0.12627  0.86778  0.99318  1.0000
  C   C915      1.0  0.21281  0.76897  0.14375  1.0000
  H   H1063     1.0  0.19715  0.66616  0.10400  1.0000
  C   C916      1.0  0.19684  0.73473  0.13447  1.0000
  C   C917      1.0  0.16504  0.95966  0.11770  1.0000
  H   H1064     1.0  0.22561  0.70840  0.14094  1.0000
  C   C918      1.0  0.05029  0.89429  0.14181  1.0000
  C   C919      1.0  0.21092  0.62528  0.17105  1.0000
  C   C920      1.0  0.04879  0.89775  0.17685  1.0000
  S   S237      1.0  0.11856  0.73282  0.11866  1.0000
  C   C921      1.0  0.20900  0.70641  0.13227  1.0000
  H   H1065     1.0  0.12102  0.77188  0.14423  1.0000
  S   S238      1.0  0.17369  0.86441  0.03046  1.0000
  H   H1066     1.0  0.19863  0.92237  0.07492  1.0000
  C   C922      1.0  0.19046  0.72779  0.12840  1.0000
  H   H1067     1.0  0.00697  0.90206  0.04727  1.0000
  H   H1068     1.0  0.14801  0.84630  0.15801  1.0000
  C   C923      1.0  0.23634  0.83700  0.03491  1.0000
  C   C924      1.0  0.17124  0.85680  0.01755  1.0000
  H   H1069     1.0  0.02097  0.90098  0.02261  1.0000
  S   S239      1.0  0.15238  0.94777  0.15602  1.0000
  C   C925      1.0  0.20062  0.69731  0.11108  1.0000
  H   H1070     1.0  0.19582  0.69333  0.10456  1.0000
  Fe  Fe121     1.0  0.13831  0.94450  0.14373  1.0000
  C   C926      1.0  0.17880  0.71518  0.11307  1.0000
  H   H1071     1.0  0.18297  0.92555  0.06845  1.0000
  H   H1072     1.0  0.18604  0.91113  0.08361  1.0000
  C   C927      1.0  0.18707  0.92236  0.07848  1.0000
  H   H1073     1.0  0.20669  0.92717  0.09174  1.0000
  C   C928      1.0  0.02043  0.80325  0.13929  1.0000
  H   H1074     1.0  0.20794  0.70405  0.10350  1.0000
  S   S240      1.0  0.13865  0.95483  0.12056  1.0000
  C   C929      1.0  0.04926  0.90386  0.16201  1.0000
  H   H1075     1.0  0.21245  0.72926  0.09201  1.0000
  H   H1076     1.0  0.13937  0.81870  0.15201  1.0000
  H   H1077     1.0  0.23294  0.72627  0.10271  1.0000
  C   C930      1.0  0.10319  0.80607  0.13394  1.0000
  S   S241      1.0  0.23508  0.78693  0.10238  1.0000
  H   H1078     1.0  0.01029  0.88171  0.06713  1.0000
  C   C931      1.0  0.13711  0.66669  0.14348  1.0000
  H   H1079     1.0  0.18517  0.96459  0.11598  1.0000
  H   H1080     1.0  0.03441  0.85919  0.12504  1.0000
  Fe  Fe122     1.0  0.21105  0.88969  0.99721  1.0000
  C   C932      1.0  0.20552  0.65058  0.15984  1.0000
  H   H1081     1.0  0.19847  0.91464  0.13755  1.0000
  H   H1082     1.0  0.09349  0.77218  0.09683  1.0000
  C   C933      1.0  0.19798  0.79377  0.15376  1.0000
  N   N66       1.0  0.00508  0.80946  0.13937  1.0000
  S   S242      1.0  0.11248  0.73101  0.15367  1.0000
  H   H1083     1.0  0.04434  0.89078  0.13597  1.0000
  Fe  Fe123     1.0  0.22981  0.95798  0.07426  1.0000
  C   C934      1.0  0.13803  0.87772  0.00109  1.0000
  C   C935      1.0  0.15810  0.75147  0.14889  1.0000
  Fe  Fe124     1.0  0.23087  0.95499  0.10521  1.0000
  H   H1084     1.0  0.23384  0.74557  0.15345  1.0000
  H   H1085     1.0  0.17952  0.65102  0.14831  1.0000
  H   H1086     1.0  0.98872  0.82579  0.04212  1.0000
  C   C936      1.0  0.08564  0.78574  0.11196  1.0000
  H   H1087     1.0  0.20866  0.68972  0.16610  1.0000
  S   S243      1.0  0.21284  0.86715  0.01038  1.0000
  C   C937      1.0  0.10209  0.78549  0.12631  1.0000
  H   H1088     1.0  0.00787  0.82980  0.14061  1.0000
  H   H1089     1.0  0.15699  0.96715  0.17534  1.0000
  H   H1090     1.0  0.17236  0.83653  0.04883  1.0000
  H   H1091     1.0  0.13143  0.87623  0.01187  1.0000
  C   C938      1.0  0.98657  0.78006  0.05466  1.0000
  H   H1092     1.0  0.08019  0.79805  0.12776  1.0000
  H   H1093     1.0  0.19209  0.80327  0.15782  1.0000
  H   H1094     1.0  0.22072  0.87304  0.16621  1.0000
  C   C939      1.0  0.23170  0.76205  0.17112  1.0000
  H   H1095     1.0  0.22333  0.69675  0.16618  1.0000
  H   H1096     1.0  0.01385  0.84532  0.06322  1.0000
  S   S244      1.0  0.08936  0.81556  0.17324  1.0000
  C   C940      1.0  0.13772  0.86717  0.17413  1.0000
  C   C941      1.0  0.19200  0.78845  0.14585  1.0000
  H   H1097     1.0  0.99189  0.83084  0.13551  1.0000
  C   C942      1.0  0.15418  0.74143  0.14425  1.0000
  C   C943      1.0  0.99404  0.85984  0.14038  1.0000
  C   C944      1.0  0.00239  0.78779  0.13299  1.0000
  H   H1098     1.0  0.11052  0.80943  0.12353  1.0000
  C   C945      1.0  0.00332  0.82522  0.13436  1.0000
  H   H1099     1.0  0.07394  0.92386  0.15680  1.0000
  H   H1100     1.0  0.02689  0.80387  0.12812  1.0000
  H   H1101     1.0  0.22512  0.63581  0.15324  1.0000
  H   H1102     1.0  0.02419  0.91179  0.14215  1.0000
  H   H1103     1.0  0.17312  0.91699  0.13864  1.0000
  H   H1104     1.0  0.13264  0.86712  0.16589  1.0000
  S   S245      1.0  0.99267  0.78129  0.07999  1.0000
  C   C946      1.0  0.06664  0.91684  0.16245  1.0000
  H   H1105     1.0  0.99048  0.82273  0.11686  1.0000
  H   H1106     1.0  0.19428  0.77015  0.10329  1.0000
  C   C947      1.0  0.10790  0.81046  0.17214  1.0000
  H   H1107     1.0  0.10537  0.81011  0.14227  1.0000
  S   S246      1.0  0.14426  0.74692  0.13102  1.0000
  C   C948      1.0  0.21302  0.73762  0.09663  1.0000
  C   C949      1.0  0.21393  0.77889  0.98067  1.0000
  H   H1108     1.0  0.12797  0.66544  0.15288  1.0000
  C   C950      1.0  0.21918  0.77406  0.15191  1.0000
  C   C951      1.0  0.22467  0.93745  0.99488  1.0000
  H   H1109     1.0  0.16866  0.75465  0.16346  1.0000
  H   H1110     1.0  0.21244  0.77326  0.99187  1.0000
  C   C952      1.0  0.21260  0.69502  0.17225  1.0000
  H   H1111     1.0  0.05648  0.90182  0.13373  1.0000
  H   H1112     1.0  0.08614  0.79373  0.07595  1.0000
  H   H1113     1.0  0.22357  0.75538  0.17596  1.0000
  H   H1114     1.0  0.21518  0.91985  0.11403  1.0000
  C   C953      1.0  0.08861  0.79048  0.12252  1.0000
  C   C954      1.0  0.00017  0.80291  0.13049  1.0000
  C   C955      1.0  0.20613  0.92835  0.04024  1.0000
  H   H1115     1.0  0.12315  0.77147  0.12051  1.0000
  C   C956      1.0  0.17762  0.65672  0.13782  1.0000
  C   C957      1.0  0.22820  0.94747  0.01323  1.0000
  Fe  Fe125     1.0  0.13102  0.73095  0.13479  1.0000
  C   C958      1.0  0.03110  0.91395  0.14798  1.0000
  H   H1116     1.0  0.12773  0.78664  0.13136  1.0000
  S   S247      1.0  0.10391  0.70752  0.14229  1.0000
  C   C959      1.0  0.21477  0.63708  0.16051  1.0000
  S   S248      1.0  0.23546  0.93840  0.12511  1.0000
  C   C960      1.0  0.00286  0.85943  0.14941  1.0000
  C   C961      1.0  0.15144  0.66620  0.15932  1.0000
  S   S249      1.0  0.17467  0.90872  0.16895  1.0000
  C   C962      1.0  0.99980  0.86004  0.12578  1.0000
  H   H1117     1.0  0.16665  0.95021  0.12613  1.0000
  H   H1118     1.0  0.19464  0.77196  0.13476  1.0000
  C   C963      1.0  0.13211  0.81314  0.16053  1.0000
  H   H1119     1.0  0.21451  0.73333  0.14337  1.0000
  H   H1120     1.0  0.21547  0.79116  0.16310  1.0000
  H   H1121     1.0  0.09221  0.81183  0.13271  1.0000
  H   H1122     1.0  0.02528  0.88811  0.15625  1.0000
  C   C964      1.0  0.19206  0.65213  0.16910  1.0000
  C   C965      1.0  0.16690  0.72222  0.16016  1.0000
  H   H1123     1.0  0.15199  0.67323  0.11829  1.0000
  H   H1124     1.0  0.22257  0.90915  0.03928  1.0000
  Fe  Fe126     1.0  0.11828  0.70711  0.15616  1.0000
  S   S250      1.0  0.21129  0.66573  0.14845  1.0000
  C   C966      1.0  0.02259  0.89178  0.03138  1.0000
  H   H1125     1.0  0.00793  0.78081  0.14113  1.0000
  H   H1126     1.0  0.21765  0.90820  0.17354  1.0000
  H   H1127     1.0  0.00877  0.82823  0.12290  1.0000
  N   N67       1.0  0.23328  0.76677  0.15536  1.0000
  H   H1128     1.0  0.03712  0.92178  0.14018  1.0000
  H   H1129     1.0  0.09820  0.81403  0.06496  1.0000
  C   C967      1.0  0.22362  0.93656  0.05318  1.0000
  H   H1130     1.0  0.15214  0.82745  0.16526  1.0000
  H   H1131     1.0  0.99832  0.85932  0.16067  1.0000
  H   H1132     1.0  0.11339  0.82666  0.15335  1.0000
  S   S251      1.0  0.15586  0.79695  0.17029  1.0000
  H   H1133     1.0  0.19570  0.94201  0.00036  1.0000
  H   H1134     1.0  0.16768  0.88988  0.98268  1.0000
  H   H1135     1.0  0.15133  0.67783  0.15554  1.0000
  C   C968      1.0  0.99748  0.78136  0.12506  1.0000
  S   S252      1.0  0.98946  0.85985  0.11399  1.0000
  H   H1136     1.0  0.03821  0.87966  0.16685  1.0000
  H   H1137     1.0  0.20335  0.89959  0.17539  1.0000
  H   H1138     1.0  0.18668  0.85044  0.98420  1.0000
  C   C969      1.0  0.13744  0.80162  0.17088  1.0000
  Fe  Fe127     1.0  0.13253  0.95042  0.17329  1.0000
  H   H1139     1.0  0.18181  0.76204  0.98660  1.0000
  Fe  Fe128     1.0  0.23497  0.66102  0.14553  1.0000
  H   H1140     1.0  0.14200  0.66505  0.16839  1.0000
  H   H1141     1.0  0.23381  0.84206  0.02453  1.0000
  H   H1142     1.0  0.99953  0.76980  0.12696  1.0000
  H   H1143     1.0  0.12389  0.84736  0.17227  1.0000
  H   H1144     1.0  0.13426  0.89020  0.16833  1.0000
  H   H1145     1.0  0.23565  0.76208  0.05225  1.0000
  H   H1146     1.0  0.02383  0.89440  0.17181  1.0000
  S   S253      1.0  0.10756  0.90994  0.17722  1.0000
  H   H1147     1.0  0.11529  0.76798  0.17734  1.0000
  Fe  Fe129     1.0  0.18901  0.76208  0.19956  1.0000
  S   S254      1.0  0.16805  0.77670  0.20638  1.0000
  C   C970      1.0  0.14519  0.88135  0.18564  1.0000
  S   S255      1.0  0.22358  0.52782  0.30561  1.0000
  S   S256      1.0  0.15374  0.75768  0.19473  1.0000
  H   H1148     1.0  0.22476  0.82035  0.29129  1.0000
  C   C971      1.0  0.11325  0.79886  0.18240  1.0000
  H   H1149     1.0  0.23344  0.57624  0.23479  1.0000
  Fe  Fe130     1.0  0.16013  0.75647  0.21499  1.0000
  S   S257      1.0  0.14543  0.75285  0.23661  1.0000
  C   C972      1.0  0.18908  0.69854  0.23304  1.0000
  S   S258      1.0  0.18141  0.74178  0.20986  1.0000
  C   C973      1.0  0.18821  0.64034  0.17963  1.0000
  C   C974      1.0  0.21633  0.58334  0.21724  1.0000
  C   C975      1.0  0.20934  0.60059  0.30062  1.0000
  Fe  Fe131     1.0  0.21969  0.69695  0.29816  1.0000
  C   C976      1.0  0.23105  0.70646  0.20896  1.0000
  Fe  Fe132     1.0  0.19578  0.70156  0.28329  1.0000
  C   C977      1.0  0.23424  0.83012  0.20714  1.0000
  S   S259      1.0  0.17204  0.70937  0.28702  1.0000
  Fe  Fe133     1.0  0.21867  0.67409  0.28427  1.0000
  S   S260      1.0  0.22195  0.65055  0.28618  1.0000
  C   C978      1.0  0.22594  0.65757  0.35017  1.0000
  C   C979      1.0  0.12740  0.74622  0.17981  1.0000
  S   S261      1.0  0.20324  0.68452  0.30137  1.0000
  H   H1150     1.0  0.20896  0.68298  0.23092  1.0000
  C   C980      1.0  0.19715  0.58317  0.27574  1.0000
  H   H1151     1.0  0.11996  0.74718  0.21994  1.0000
  Fe  Fe134     1.0  0.18176  0.63073  0.24355  1.0000
  S   S262      1.0  0.20249  0.61976  0.23140  1.0000
  S   S263      1.0  0.17270  0.62344  0.26701  1.0000
  Fe  Fe135     1.0  0.17737  0.65621  0.21871  1.0000
  S   S264      1.0  0.19788  0.64761  0.20466  1.0000
  S   S265      1.0  0.16577  0.67856  0.21065  1.0000
  Fe  Fe136     1.0  0.19109  0.62669  0.21331  1.0000
  S   S266      1.0  0.19504  0.61397  0.19679  1.0000
  Fe  Fe137     1.0  0.20720  0.64161  0.22386  1.0000
  H   H1152     1.0  0.09573  0.88526  0.18205  1.0000
  S   S267      1.0  0.16971  0.63571  0.22608  1.0000
  S   S268      1.0  0.18736  0.65212  0.23727  1.0000
  C   C981      1.0  0.15387  0.69069  0.18738  1.0000
  H   H1153     1.0  0.16366  0.78978  0.26554  1.0000
  H   H1154     1.0  0.21479  0.74720  0.24075  1.0000
  H   H1155     1.0  0.22078  0.60265  0.34574  1.0000
  H   H1156     1.0  0.17231  0.80323  0.25267  1.0000
  H   H1157     1.0  0.19266  0.70605  0.22333  1.0000
  H   H1158     1.0  0.20267  0.90373  0.19678  1.0000
  Fe  Fe138     1.0  0.18994  0.83327  0.22275  1.0000
  S   S269      1.0  0.17189  0.84216  0.23928  1.0000
  S   S270      1.0  0.18529  0.82983  0.20331  1.0000
  S   S271      1.0  0.12631  0.96815  0.18574  1.0000
  S   S272      1.0  0.19643  0.84378  0.25475  1.0000
  C   C982      1.0  0.17398  0.59031  0.24254  1.0000
  Fe  Fe139     1.0  0.18452  0.82754  0.25527  1.0000
  S   S273      1.0  0.17371  0.81451  0.27569  1.0000
  Fe  Fe140     1.0  0.18517  0.85760  0.23726  1.0000
  S   S274      1.0  0.17502  0.88121  0.23438  1.0000
  S   S275      1.0  0.20126  0.81692  0.23895  1.0000
  S   S276      1.0  0.20244  0.84963  0.21965  1.0000
  C   C983      1.0  0.21327  0.62687  0.32602  1.0000
  H   H1159     1.0  0.16325  0.76744  0.25691  1.0000
  H   H1160     1.0  0.11845  0.71095  0.21864  1.0000
  H   H1161     1.0  0.23359  0.75503  0.21697  1.0000
  S   S277      1.0  0.21190  0.77278  0.31806  1.0000
  H   H1162     1.0  0.16179  0.68555  0.28336  1.0000
  H   H1163     1.0  0.17983  0.67932  0.28542  1.0000
  C   C984      1.0  0.19597  0.76428  0.24236  1.0000
  C   C985      1.0  0.23114  0.65795  0.33549  1.0000
  C   C986      1.0  0.18494  0.80406  0.28735  1.0000
  C   C987      1.0  0.19959  0.79935  0.28220  1.0000
  C   C988      1.0  0.20806  0.78988  0.29158  1.0000
  C   C989      1.0  0.20198  0.78549  0.30617  1.0000
  C   C990      1.0  0.18742  0.79062  0.31133  1.0000
  C   C991      1.0  0.17890  0.79969  0.30192  1.0000
  H   H1164     1.0  0.20430  0.80263  0.27093  1.0000
  C   C992      1.0  0.11793  0.90063  0.21419  1.0000
  H   H1165     1.0  0.18263  0.78729  0.32258  1.0000
  H   H1166     1.0  0.16758  0.80332  0.30595  1.0000
  H   H1167     1.0  0.12775  0.92733  0.24465  1.0000
  C   C993      1.0  0.21946  0.55882  0.22992  1.0000
  C   C994      1.0  0.17021  0.90383  0.21171  1.0000
  C   C995      1.0  0.17410  0.88892  0.21634  1.0000
  C   C996      1.0  0.17744  0.88026  0.20647  1.0000
  H   H1168     1.0  0.19045  0.59606  0.22500  1.0000
  C   C997      1.0  0.22415  0.87124  0.21963  1.0000
  H   H1169     1.0  0.16770  0.91058  0.21928  1.0000
  H   H1170     1.0  0.17979  0.86878  0.21001  1.0000
  N   N68       1.0  0.17453  0.66889  0.27206  1.0000
  C   C998      1.0  0.14798  0.82787  0.19234  1.0000
  C   C999      1.0  0.19587  0.79261  0.19108  1.0000
  H   H1171     1.0  0.10135  0.94172  0.22136  1.0000
  C   C1000     1.0  0.15409  0.67988  0.19988  1.0000
  H   H1172     1.0  0.23074  0.83387  0.18592  1.0000
  Fe  Fe141     1.0  0.23520  0.76549  0.30879  1.0000
  H   H1173     1.0  0.14160  0.82886  0.20329  1.0000
  C   C1001     1.0  0.13303  0.67453  0.19705  1.0000
  C   C1002     1.0  0.14388  0.67154  0.20452  1.0000
  C   C1003     1.0  0.21384  0.75883  0.25631  1.0000
  C   C1004     1.0  0.13285  0.73398  0.18935  1.0000
  H   H1174     1.0  0.12486  0.66834  0.20091  1.0000
  H   H1175     1.0  0.14394  0.66322  0.21423  1.0000
  C   C1005     1.0  0.21980  0.88435  0.19577  1.0000
  C   C1006     1.0  0.19858  0.57597  0.23933  1.0000
  H   H1176     1.0  0.22873  0.60714  0.24257  1.0000
  H   H1177     1.0  0.21747  0.58746  0.24300  1.0000
  H   H1178     1.0  0.20907  0.57877  0.30173  1.0000
  H   H1179     1.0  0.19471  0.71752  0.31292  1.0000
  C   C1007     1.0  0.19269  0.59777  0.26953  1.0000
  C   C1008     1.0  0.17876  0.60519  0.27435  1.0000
  C   C1009     1.0  0.16942  0.59805  0.28546  1.0000
  H   H1180     1.0  0.20328  0.62351  0.33261  1.0000
  S   S278      1.0  0.13544  0.92688  0.18361  1.0000
  H   H1181     1.0  0.20006  0.60332  0.26121  1.0000
  H   H1182     1.0  0.15869  0.60374  0.28931  1.0000
  C   C1010     1.0  0.17057  0.67586  0.28440  1.0000
  H   H1183     1.0  0.16838  0.71214  0.23813  1.0000
  H   H1184     1.0  0.20698  0.87341  0.18244  1.0000
  C   C1011     1.0  0.17076  0.69231  0.25401  1.0000
  C   C1012     1.0  0.16989  0.58062  0.25521  1.0000
  C   C1013     1.0  0.13245  0.68577  0.18487  1.0000
  H   H1185     1.0  0.13198  0.78565  0.18992  1.0000
  H   H1186     1.0  0.21625  0.62984  0.24984  1.0000
  C   C1014     1.0  0.19404  0.56641  0.25238  1.0000
  H   H1187     1.0  0.21285  0.55585  0.22437  1.0000
  C   C1015     1.0  0.15217  0.71660  0.20895  1.0000
  C   C1016     1.0  0.22544  0.64814  0.26869  1.0000
  C   C1017     1.0  0.22019  0.63778  0.26602  1.0000
  C   C1018     1.0  0.22109  0.63728  0.25186  1.0000
  S   S279      1.0  0.20978  0.69001  0.26628  1.0000
  H   H1188     1.0  0.16012  0.69552  0.26020  1.0000
  S   S280      1.0  0.21098  0.71501  0.28143  1.0000
  C   C1019     1.0  0.13498  0.90709  0.22833  1.0000
  H   H1189     1.0  0.14474  0.88454  0.23186  1.0000
  Fe  Fe142     1.0  0.22593  0.70181  0.26601  1.0000
  H   H1190     1.0  0.22969  0.86193  0.22628  1.0000
  C   C1020     1.0  0.22001  0.67037  0.35489  1.0000
  H   H1191     1.0  0.21921  0.78584  0.28742  1.0000
  H   H1192     1.0  0.13499  0.69833  0.22101  1.0000
  H   H1193     1.0  0.19443  0.48488  0.27925  1.0000
  H   H1194     1.0  0.14196  0.90898  0.23382  1.0000
  C   C1021     1.0  0.18806  0.58805  0.23463  1.0000
  H   H1195     1.0  0.21141  0.62100  0.30133  1.0000
  C   C1022     1.0  0.16472  0.77487  0.24619  1.0000
  H   H1196     1.0  0.15716  0.70703  0.21629  1.0000
  Fe  Fe143     1.0  0.16389  0.77659  0.18545  1.0000
  C   C1023     1.0  0.20584  0.78436  0.19923  1.0000
  C   C1024     1.0  0.21158  0.79094  0.20627  1.0000
  C   C1025     1.0  0.20637  0.80554  0.20619  1.0000
  C   C1026     1.0  0.19521  0.81338  0.19940  1.0000
  C   C1027     1.0  0.19057  0.80714  0.19112  1.0000
  C   C1028     1.0  0.21960  0.71416  0.20263  1.0000
  H   H1197     1.0  0.21912  0.78460  0.21273  1.0000
  H   H1198     1.0  0.21038  0.81048  0.21211  1.0000
  H   H1199     1.0  0.22475  0.82596  0.21228  1.0000
  H   H1200     1.0  0.18428  0.80001  0.22882  1.0000
  C   C1029     1.0  0.15336  0.74080  0.25031  1.0000
  C   C1030     1.0  0.16821  0.73691  0.24887  1.0000
  C   C1031     1.0  0.17416  0.72714  0.26004  1.0000
  C   C1032     1.0  0.16522  0.72133  0.27265  1.0000
  C   C1033     1.0  0.15043  0.72533  0.27409  1.0000
  C   C1034     1.0  0.14452  0.73505  0.26298  1.0000
  H   H1201     1.0  0.17513  0.74152  0.23928  1.0000
  H   H1202     1.0  0.18561  0.72415  0.25894  1.0000
  H   H1203     1.0  0.14350  0.72094  0.28387  1.0000
  H   H1204     1.0  0.13306  0.73810  0.26420  1.0000
  H   H1205     1.0  0.17819  0.64178  0.18742  1.0000
  C   C1035     1.0  0.18776  0.77572  0.24911  1.0000
  H   H1206     1.0  0.12959  0.87887  0.21930  1.0000
  C   C1036     1.0  0.15085  0.86888  0.19469  1.0000
  S   S281      1.0  0.22767  0.64702  0.22282  1.0000
  H   H1207     1.0  0.23180  0.61522  0.34217  1.0000
  C   C1037     1.0  0.19823  0.68557  0.23734  1.0000
  C   C1038     1.0  0.19784  0.62703  0.18093  1.0000
  S   S282      1.0  0.22359  0.70039  0.31787  1.0000
  H   H1208     1.0  0.11152  0.89815  0.20842  1.0000
  H   H1209     1.0  0.19137  0.69628  0.19562  1.0000
  C   C1039     1.0  0.20876  0.75593  0.24601  1.0000
  H   H1210     1.0  0.13842  0.71207  0.23609  1.0000
  H   H1211     1.0  0.16700  0.92152  0.19362  1.0000
  N   N69       1.0  0.12324  0.93332  0.22346  1.0000
  H   H1212     1.0  0.16693  0.66854  0.29473  1.0000
  C   C1040     1.0  0.21957  0.68356  0.34498  1.0000
  C   C1041     1.0  0.22730  0.48205  0.28486  1.0000
  C   C1042     1.0  0.22119  0.67165  0.18554  1.0000
  H   H1213     1.0  0.11157  0.95508  0.21706  1.0000
  H   H1214     1.0  0.11456  0.94416  0.20470  1.0000
  H   H1215     1.0  0.17991  0.72227  0.32739  1.0000
  C   C1043     1.0  0.22458  0.68393  0.33030  1.0000
  H   H1216     1.0  0.21506  0.69344  0.34868  1.0000
  C   C1044     1.0  0.22206  0.57671  0.24045  1.0000
  C   C1045     1.0  0.13048  0.73364  0.20421  1.0000
  C   C1046     1.0  0.21364  0.88149  0.22598  1.0000
  H   H1217     1.0  0.10932  0.93018  0.24439  1.0000
  H   H1218     1.0  0.16848  0.78111  0.28941  1.0000
  Fe  Fe144     1.0  0.21482  0.54554  0.28858  1.0000
  C   C1047     1.0  0.17753  0.88642  0.19195  1.0000
  H   H1219     1.0  0.15535  0.71386  0.19827  1.0000
  C   C1048     1.0  0.11604  0.91475  0.21533  1.0000
  N   N70       1.0  0.13646  0.72054  0.21405  1.0000
  C   C1049     1.0  0.17374  0.58346  0.29137  1.0000
  H   H1220     1.0  0.17676  0.56131  0.27014  1.0000
  H   H1221     1.0  0.14566  0.93132  0.22229  1.0000
  H   H1222     1.0  0.21094  0.88017  0.23755  1.0000
  H   H1223     1.0  0.13608  0.94924  0.21678  1.0000
  H   H1224     1.0  0.20143  0.66617  0.25273  1.0000
  C   C1050     1.0  0.17747  0.79247  0.23000  1.0000
  C   C1051     1.0  0.16988  0.76955  0.29276  1.0000
  N   N71       1.0  0.22504  0.61420  0.32368  1.0000
  H   H1225     1.0  0.16765  0.79890  0.22622  1.0000
  H   H1226     1.0  0.23246  0.67155  0.17972  1.0000
  C   C1052     1.0  0.16984  0.91001  0.19722  1.0000
  C   C1053     1.0  0.12469  0.91845  0.22230  1.0000
  H   H1227     1.0  0.19824  0.67926  0.20627  1.0000
  H   H1228     1.0  0.20784  0.57744  0.27204  1.0000
  C   C1054     1.0  0.20618  0.77009  0.26300  1.0000
  C   C1055     1.0  0.19336  0.77849  0.25946  1.0000
  Fe  Fe145     1.0  0.21239  0.83415  0.23716  1.0000
  C   C1056     1.0  0.22790  0.64664  0.24040  1.0000
  H   H1229     1.0  0.21392  0.59479  0.21775  1.0000
  C   C1057     1.0  0.13699  0.93784  0.21674  1.0000
  C   C1058     1.0  0.13364  0.72208  0.22908  1.0000
  H   H1230     1.0  0.14063  0.93696  0.20533  1.0000
  H   H1231     1.0  0.18631  0.76748  0.30329  1.0000
  Fe  Fe146     1.0  0.17588  0.74476  0.18883  1.0000
  H   H1232     1.0  0.19486  0.65759  0.27714  1.0000
  H   H1233     1.0  0.16892  0.76816  0.23806  1.0000
  H   H1234     1.0  0.18809  0.78715  0.26492  1.0000
  C   C1059     1.0  0.16623  0.79499  0.25399  1.0000
  H   H1235     1.0  0.10798  0.92257  0.21029  1.0000
  H   H1236     1.0  0.21514  0.72527  0.20328  1.0000
  S   S283      1.0  0.22682  0.64117  0.36269  1.0000
  C   C1060     1.0  0.11932  0.93402  0.23882  1.0000
  C   C1061     1.0  0.23023  0.67112  0.32554  1.0000
  H   H1237     1.0  0.22115  0.66417  0.19619  1.0000
  H   H1238     1.0  0.20484  0.71393  0.19100  1.0000
  C   C1062     1.0  0.19373  0.67593  0.25000  1.0000
  C   C1063     1.0  0.17976  0.67895  0.25869  1.0000
  C   C1064     1.0  0.23388  0.65645  0.24308  1.0000
  N   N72       1.0  0.19145  0.73892  0.31595  1.0000
  C   C1065     1.0  0.18781  0.74558  0.32851  1.0000
  C   C1066     1.0  0.19089  0.72358  0.32163  1.0000
  C   C1067     1.0  0.20629  0.73970  0.30818  1.0000
  C   C1068     1.0  0.18161  0.74670  0.30623  1.0000
  C   C1069     1.0  0.17341  0.73984  0.30181  1.0000
  C   C1070     1.0  0.17993  0.76170  0.30095  1.0000
  C   C1071     1.0  0.16354  0.74775  0.29339  1.0000
  C   C1072     1.0  0.16159  0.76259  0.28910  1.0000
  H   H1239     1.0  0.18943  0.75672  0.32544  1.0000
  H   H1240     1.0  0.17648  0.74592  0.33425  1.0000
  H   H1241     1.0  0.19469  0.73964  0.33630  1.0000
  H   H1242     1.0  0.22378  0.75239  0.25904  1.0000
  H   H1243     1.0  0.19788  0.71815  0.32941  1.0000
  H   H1244     1.0  0.21409  0.73339  0.31495  1.0000
  H   H1245     1.0  0.20930  0.73539  0.29832  1.0000
  H   H1246     1.0  0.20788  0.75087  0.30487  1.0000
  H   H1247     1.0  0.17434  0.72838  0.30471  1.0000
  H   H1248     1.0  0.15728  0.74229  0.29031  1.0000
  H   H1249     1.0  0.12201  0.72451  0.23392  1.0000
  H   H1250     1.0  0.16183  0.69703  0.18391  1.0000
  H   H1251     1.0  0.22701  0.81405  0.26833  1.0000
  H   H1252     1.0  0.23501  0.86406  0.20047  1.0000
  H   H1253     1.0  0.13188  0.70665  0.20351  1.0000
  H   H1254     1.0  0.20878  0.49929  0.28370  1.0000
  H   H1255     1.0  0.21469  0.63070  0.27483  1.0000
  H   H1256     1.0  0.21591  0.63367  0.33167  1.0000
  C   C1073     1.0  0.21233  0.58585  0.30610  1.0000
  H   H1257     1.0  0.16623  0.59977  0.23891  1.0000
  H   H1258     1.0  0.22236  0.56864  0.32109  1.0000
  H   H1259     1.0  0.13836  0.73070  0.22967  1.0000
  C   C1074     1.0  0.13019  0.70861  0.21435  1.0000
  H   H1260     1.0  0.15720  0.72554  0.20799  1.0000
  S   S284      1.0  0.19201  0.55739  0.29357  1.0000
  H   H1261     1.0  0.20376  0.60492  0.29189  1.0000
  H   H1262     1.0  0.18328  0.78530  0.22249  1.0000
  C   C1075     1.0  0.11674  0.75845  0.19929  1.0000
  H   H1263     1.0  0.19267  0.76178  0.23406  1.0000
  H   H1264     1.0  0.15904  0.58257  0.26149  1.0000
  H   H1265     1.0  0.15941  0.82681  0.19206  1.0000
  C   C1076     1.0  0.21968  0.58018  0.31714  1.0000
  H   H1266     1.0  0.15363  0.76867  0.28294  1.0000
  H   H1267     1.0  0.18030  0.87962  0.18436  1.0000
  C   C1077     1.0  0.17538  0.70192  0.24137  1.0000
  C   C1078     1.0  0.18755  0.57594  0.28650  1.0000
  H   H1268     1.0  0.16629  0.57794  0.29970  1.0000
  C   C1079     1.0  0.19842  0.68553  0.19505  1.0000
  H   H1269     1.0  0.23393  0.67133  0.31420  1.0000
  C   C1080     1.0  0.13666  0.89299  0.22728  1.0000
  C   C1081     1.0  0.21355  0.60972  0.30627  1.0000
  S   S285      1.0  0.20871  0.76573  0.20289  1.0000
  N   N73       1.0  0.17424  0.78438  0.24503  1.0000
  C   C1082     1.0  0.23113  0.68551  0.20115  1.0000
  H   H1270     1.0  0.15596  0.80102  0.25092  1.0000
  N   N74       1.0  0.21380  0.57381  0.23176  1.0000
  C   C1083     1.0  0.12219  0.74628  0.20892  1.0000
  H   H1271     1.0  0.11763  0.94515  0.24012  1.0000
  H   H1272     1.0  0.21027  0.77239  0.27092  1.0000
  H   H1273     1.0  0.20148  0.55744  0.25715  1.0000
  C   C1084     1.0  0.22057  0.60435  0.31791  1.0000
  C   C1085     1.0  0.23241  0.65739  0.25724  1.0000
  C   C1086     1.0  0.22936  0.60739  0.33760  1.0000
  C   C1087     1.0  0.12818  0.88978  0.22020  1.0000
  C   C1088     1.0  0.11216  0.94395  0.21637  1.0000
  H   H1274     1.0  0.05665  0.89630  0.19542  1.0000
  H   H1275     1.0  0.15398  0.78100  0.24438  1.0000
  H   H1276     1.0  0.14597  0.89170  0.18650  1.0000
  C   C1089     1.0  0.18521  0.65541  0.27546  1.0000
  C   C1090     1.0  0.16179  0.66492  0.27081  1.0000
  C   C1091     1.0  0.21853  0.87305  0.17781  1.0000
  S   S286      1.0  0.22355  0.53262  0.27158  1.0000
  H   H1277     1.0  0.23549  0.71153  0.21450  1.0000
  H   H1278     1.0  0.18094  0.64805  0.28547  1.0000
  H   H1279     1.0  0.18847  0.64928  0.26686  1.0000
  H   H1280     1.0  0.15795  0.65684  0.28039  1.0000
  H   H1281     1.0  0.15269  0.67425  0.26965  1.0000
  H   H1282     1.0  0.16424  0.66008  0.26133  1.0000
  H   H1283     1.0  0.22210  0.56873  0.25083  1.0000
  H   H1284     1.0  0.21586  0.67009  0.36623  1.0000
  H   H1285     1.0  0.20969  0.58228  0.21045  1.0000
  H   H1286     1.0  0.21989  0.55093  0.24029  1.0000
  C   C1092     1.0  0.22379  0.58922  0.32299  1.0000
  H   H1287     1.0  0.11057  0.76801  0.20309  1.0000
  H   H1288     1.0  0.15505  0.84633  0.20064  1.0000
  H   H1289     1.0  0.22966  0.58403  0.33133  1.0000
  H   H1290     1.0  0.21099  0.63417  0.31581  1.0000
  H   H1291     1.0  0.19777  0.90089  0.22255  1.0000
  H   H1292     1.0  0.23544  0.64809  0.33177  1.0000
  C   C1093     1.0  0.17986  0.56862  0.26003  1.0000
  H   H1293     1.0  0.10593  0.79340  0.19095  1.0000
  H   H1294     1.0  0.13903  0.72479  0.18494  1.0000
  C   C1094     1.0  0.20918  0.89466  0.20260  1.0000
  N   N75       1.0  0.22282  0.88514  0.18014  1.0000
  H   H1295     1.0  0.14728  0.81752  0.19063  1.0000
  H   H1296     1.0  0.23068  0.55718  0.22360  1.0000
  C   C1095     1.0  0.21953  0.69309  0.19443  1.0000
  C   C1096     1.0  0.13713  0.98020  0.18421  1.0000
  C   C1097     1.0  0.20626  0.89321  0.21748  1.0000
  N   N76       1.0  0.14282  0.84024  0.18121  1.0000
  H   H1297     1.0  0.19158  0.78764  0.18539  1.0000
  H   H1298     1.0  0.12690  0.82919  0.18160  1.0000
  C   C1098     1.0  0.12799  0.79445  0.18181  1.0000
  H   H1299     1.0  0.19329  0.68030  0.18992  1.0000
  C   C1099     1.0  0.17373  0.90127  0.18730  1.0000
  C   C1100     1.0  0.21386  0.70759  0.19553  1.0000
  C   C1101     1.0  0.22716  0.87258  0.20478  1.0000
  C   C1102     1.0  0.11939  0.75845  0.18477  1.0000
  H   H1300     1.0  0.18224  0.81322  0.18549  1.0000
  H   H1301     1.0  0.12052  0.84307  0.19155  1.0000
  N   N77       1.0  0.21315  0.68635  0.18697  1.0000
  H   H1302     1.0  0.23630  0.61762  0.21708  1.0000
  H   H1303     1.0  0.22436  0.86253  0.18299  1.0000
  C   C1103     1.0  0.21338  0.48824  0.28298  1.0000
  S   S287      1.0  0.17987  0.72626  0.17886  1.0000
  C   C1104     1.0  0.15188  0.97710  0.17878  1.0000
  C   C1105     1.0  0.12792  0.84001  0.18167  1.0000
  S   S288      1.0  0.18569  0.76361  0.17789  1.0000
  H   H1304     1.0  0.22767  0.58090  0.21140  1.0000
  C   C1106     1.0  0.14309  0.69366  0.17982  1.0000
  H   H1305     1.0  0.22924  0.48388  0.23613  1.0000
  S   S289      1.0  0.23281  0.55677  0.28247  1.0000
  Fe  Fe147     1.0  0.23401  0.51564  0.28795  1.0000
  H   H1306     1.0  0.21642  0.66702  0.17949  1.0000
  C   C1107     1.0  0.15010  0.85550  0.19348  1.0000
  C   C1108     1.0  0.23524  0.81731  0.28462  1.0000
  H   H1307     1.0  0.04233  0.89011  0.18302  1.0000
  H   H1308     1.0  0.23463  0.62494  0.30262  1.0000
  H   H1309     1.0  0.15604  0.86955  0.20260  1.0000
  C   C1109     1.0  0.14341  0.85424  0.18316  1.0000
  C   C1110     1.0  0.05698  0.90122  0.18417  1.0000
  H   H1310     1.0  0.07244  0.91320  0.18259  1.0000
  H   H1311     1.0  0.23615  0.67441  0.20103  1.0000
  H   H1312     1.0  0.23648  0.66543  0.25927  1.0000
  S   S290      1.0  0.23602  0.68489  0.28266  1.0000
  S   S291      1.0  0.23624  0.82931  0.23397  1.0000
  H   H1313     1.0  0.21400  0.78324  0.55479  1.0000
  H   H1314     1.0  0.21850  0.64836  0.57090  1.0000
  H   H1315     1.0  0.21670  0.48676  0.57144  1.0000
  H   H1316     1.0  0.19794  0.66600  0.56444  1.0000
  S   S292      1.0  0.20244  0.71776  0.55864  1.0000
  C   C1111     1.0  0.21776  0.68421  0.50343  1.0000
  Fe  Fe148     1.0  0.21277  0.69759  0.55065  1.0000
  Fe  Fe149     1.0  0.20459  0.70964  0.52218  1.0000
  Fe  Fe150     1.0  0.21199  0.72881  0.53659  1.0000
  S   S293      1.0  0.20963  0.70254  0.50135  1.0000
  H   H1317     1.0  0.22454  0.68500  0.48075  1.0000
  S   S294      1.0  0.19382  0.69738  0.54313  1.0000
  S   S295      1.0  0.22410  0.70854  0.52953  1.0000
  C   C1112     1.0  0.23584  0.75034  0.55390  1.0000
  C   C1113     1.0  0.22495  0.66109  0.51882  1.0000
  S   S296      1.0  0.19334  0.73131  0.52713  1.0000
  S   S297      1.0  0.16221  0.72384  0.56234  1.0000
  S   S298      1.0  0.22527  0.67778  0.56258  1.0000
  C   C1114     1.0  0.16718  0.74966  0.56218  1.0000
  C   C1115     1.0  0.21376  0.64634  0.56337  1.0000
  C   C1116     1.0  0.21310  0.78170  0.56651  1.0000
  C   C1117     1.0  0.23189  0.74045  0.54908  1.0000
  Fe  Fe151     1.0  0.18447  0.71881  0.54893  1.0000
  C   C1118     1.0  0.15801  0.74015  0.56774  1.0000
  H   H1318     1.0  0.17670  0.74729  0.55401  1.0000
  H   H1319     1.0  0.17108  0.76963  0.56277  1.0000
  H   H1320     1.0  0.22449  0.60549  0.55960  1.0000
  H   H1321     1.0  0.20152  0.76343  0.56040  1.0000
  S   S299      1.0  0.22238  0.74637  0.53545  1.0000
  C   C1119     1.0  0.16401  0.76229  0.56718  1.0000
  C   C1120     1.0  0.18770  0.78668  0.57033  1.0000
  C   C1121     1.0  0.23517  0.72589  0.55551  1.0000
  C   C1122     1.0  0.22476  0.67834  0.49137  1.0000
  H   H1322     1.0  0.21258  0.67981  0.52649  1.0000
  H   H1323     1.0  0.19491  0.64205  0.53621  1.0000
  C   C1123     1.0  0.21205  0.63277  0.54743  1.0000
  H   H1324     1.0  0.21577  0.62391  0.54211  1.0000
  H   H1325     1.0  0.23233  0.71816  0.55173  1.0000
  H   H1326     1.0  0.23240  0.66633  0.38689  1.0000
  H   H1327     1.0  0.22110  0.82202  0.56808  1.0000
  H   H1328     1.0  0.18596  0.66325  0.54710  1.0000
  H   H1329     1.0  0.23338  0.76159  0.54886  1.0000
  C   C1124     1.0  0.21779  0.67547  0.51713  1.0000
  H   H1330     1.0  0.21293  0.79217  0.56856  1.0000
  H   H1331     1.0  0.18825  0.78758  0.55878  1.0000
  C   C1125     1.0  0.19503  0.65506  0.55006  1.0000
  H   H1332     1.0  0.22313  0.77433  0.56899  1.0000
  C   C1126     1.0  0.21939  0.63416  0.55711  1.0000
  C   C1127     1.0  0.20181  0.65662  0.55979  1.0000
  H   H1333     1.0  0.19671  0.69068  0.57545  1.0000
  C   C1128     1.0  0.20007  0.64311  0.54396  1.0000
  H   H1334     1.0  0.18695  0.79763  0.57158  1.0000
  C   C1129     1.0  0.22891  0.60915  0.56666  1.0000
  H   H1335     1.0  0.22098  0.60927  0.57706  1.0000
  H   H1336     1.0  0.22521  0.65461  0.52948  1.0000
  H   H1337     1.0  0.23097  0.50098  0.57250  1.0000
  N   N78       1.0  0.23243  0.62340  0.56009  1.0000
  C   C1130     1.0  0.23210  0.66390  0.49307  1.0000
  C   C1131     1.0  0.20087  0.76241  0.57202  1.0000
  C   C1132     1.0  0.23228  0.65529  0.50686  1.0000
  H   H1338     1.0  0.21030  0.75407  0.57466  1.0000
  N   N79       1.0  0.20022  0.77630  0.57519  1.0000
  H   H1339     1.0  0.17759  0.78330  0.57641  1.0000
  Fe  Fe152     1.0  0.14606  0.72240  0.71035  1.0000
  S   S300      1.0  0.15304  0.70188  0.72542  1.0000
  Fe  Fe153     1.0  0.11552  0.72049  0.71764  1.0000
  S   S301      1.0  0.11904  0.69982  0.73403  1.0000
  S   S302      1.0  0.09442  0.73308  0.71214  1.0000
  Fe  Fe154     1.0  0.13299  0.70956  0.74077  1.0000
  Fe  Fe155     1.0  0.13884  0.69322  0.71781  1.0000
  S   S303      1.0  0.14391  0.67036  0.71598  1.0000
  S   S304      1.0  0.12728  0.73098  0.72640  1.0000
  S   S305      1.0  0.13422  0.71283  0.70076  1.0000
  Fe  Fe156     1.0  0.21661  0.65150  0.66794  1.0000
  S   S306      1.0  0.20927  0.67437  0.65728  1.0000
  S   S307      1.0  0.20771  0.64192  0.69086  1.0000
  C   C1133     1.0  0.21815  0.66742  0.75929  1.0000
  H   H1340     1.0  0.19321  0.90757  0.77301  1.0000
  C   C1134     1.0  0.18883  0.78077  0.61408  1.0000
  H   H1341     1.0  0.19794  0.73711  0.61995  1.0000
  S   S308      1.0  0.21692  0.80094  0.64506  1.0000
  Fe  Fe157     1.0  0.21068  0.66512  0.63878  1.0000
  S   S309      1.0  0.19319  0.67380  0.62688  1.0000
  H   H1342     1.0  0.09072  0.97815  0.71146  1.0000
  S   S310      1.0  0.21611  0.64215  0.65009  1.0000
  Fe  Fe158     1.0  0.11980  0.76175  0.63552  1.0000
  S   S311      1.0  0.11823  0.78378  0.62135  1.0000
  S   S312      1.0  0.10025  0.75244  0.64483  1.0000
  Fe  Fe159     1.0  0.15057  0.75868  0.63642  1.0000
  S   S313      1.0  0.15136  0.78085  0.62321  1.0000
  S   S314      1.0  0.16898  0.74213  0.64390  1.0000
  Fe  Fe160     1.0  0.12923  0.78758  0.63620  1.0000
  S   S315      1.0  0.11919  0.80662  0.64643  1.0000
  Fe  Fe161     1.0  0.14027  0.77507  0.60958  1.0000
  S   S316      1.0  0.14927  0.77986  0.58578  1.0000
  S   S317      1.0  0.12986  0.76602  0.65087  1.0000
  S   S318      1.0  0.14065  0.75252  0.62214  1.0000
  Fe  Fe162     1.0  0.02472  0.83151  0.71452  1.0000
  S   S319      1.0  0.01624  0.82191  0.73769  1.0000
  Fe  Fe163     1.0  0.04216  0.82291  0.68695  1.0000
  S   S320      1.0  0.03721  0.84524  0.67373  1.0000
  S   S321      1.0  0.05574  0.80312  0.67945  1.0000
  Fe  Fe164     1.0  0.04146  0.85192  0.69181  1.0000
  S   S322      1.0  0.05615  0.86751  0.68629  1.0000
  S   S323      1.0  0.04797  0.82938  0.70388  1.0000
  S   S324      1.0  0.01944  0.82301  0.69856  1.0000
  C   C1135     1.0  0.08147  0.78725  0.62670  1.0000
  H   H1343     1.0  0.15986  0.64159  0.72076  1.0000
  Fe  Fe165     1.0  0.12982  0.89844  0.70520  1.0000
  S   S325      1.0  0.12321  0.88292  0.72570  1.0000
  S   S326      1.0  0.14837  0.89204  0.68748  1.0000
  S   S327      1.0  0.10026  0.91004  0.73686  1.0000
  Fe  Fe166     1.0  0.12334  0.89985  0.73644  1.0000
  S   S328      1.0  0.13371  0.89393  0.75534  1.0000
  Fe  Fe167     1.0  0.10086  0.89460  0.72381  1.0000
  S   S329      1.0  0.08307  0.88237  0.72999  1.0000
  Fe  Fe168     1.0  0.18327  0.81845  0.66990  1.0000
  S   S330      1.0  0.20139  0.80288  0.67866  1.0000
  S   S331      1.0  0.16330  0.82682  0.68503  1.0000
  H   H1344     1.0  0.05071  0.83667  0.61750  1.0000
  C   C1136     1.0  0.04854  0.80232  0.64761  1.0000
  Fe  Fe169     1.0  0.20162  0.79032  0.66316  1.0000
  S   S332      1.0  0.20675  0.76636  0.66841  1.0000
  H   H1345     1.0  0.06377  0.92562  0.67994  1.0000
  C   C1137     1.0  0.17148  0.67892  0.75210  1.0000
  S   S333      1.0  0.18215  0.80478  0.65600  1.0000
  S   S334      1.0  0.19700  0.83152  0.65234  1.0000
  C   C1138     1.0  0.23150  0.51250  0.60107  1.0000
  H   H1346     1.0  0.22684  0.72956  0.59916  1.0000
  H   H1347     1.0  0.20591  0.71244  0.63333  1.0000
  C   C1139     1.0  0.20860  0.82325  0.58942  1.0000
  H   H1348     1.0  0.99371  0.77309  0.75467  1.0000
  Fe  Fe170     1.0  0.21514  0.81480  0.65991  1.0000
  H   H1349     1.0  0.08248  0.75634  0.73045  1.0000
  H   H1350     1.0  0.19463  0.97054  0.73514  1.0000
  H   H1351     1.0  0.04366  0.93667  0.72324  1.0000
  H   H1352     1.0  0.15705  0.67096  0.73780  1.0000
  H   H1353     1.0  0.05218  0.91023  0.67426  1.0000
  C   C1140     1.0  0.14132  0.90705  0.75732  1.0000
  H   H1354     1.0  0.20587  0.62031  0.74484  1.0000
  S   S335      1.0  0.20928  0.72152  0.76311  1.0000
  H   H1355     1.0  0.16369  0.68882  0.75462  1.0000
  C   C1141     1.0  0.14516  0.93126  0.75056  1.0000
  C   C1142     1.0  0.13977  0.92070  0.74833  1.0000
  H   H1356     1.0  0.18045  0.78716  0.62076  1.0000
  C   C1143     1.0  0.18857  0.78236  0.59973  1.0000
  S   S336      1.0  0.01842  0.85463  0.70379  1.0000
  H   H1357     1.0  0.13394  0.92335  0.73999  1.0000
  C   C1144     1.0  0.15223  0.87401  0.68657  1.0000
  C   C1145     1.0  0.14373  0.86474  0.69586  1.0000
  C   C1146     1.0  0.14731  0.85024  0.69536  1.0000
  C   C1147     1.0  0.15934  0.84496  0.68552  1.0000
  C   C1148     1.0  0.16777  0.85424  0.67612  1.0000
  C   C1149     1.0  0.16413  0.86878  0.67655  1.0000
  H   H1358     1.0  0.13426  0.86874  0.70326  1.0000
  H   H1359     1.0  0.14069  0.84314  0.70262  1.0000
  H   H1360     1.0  0.17696  0.85032  0.66839  1.0000
  H   H1361     1.0  0.17041  0.87603  0.66901  1.0000
  C   C1150     1.0  0.06400  0.87089  0.69860  1.0000
  C   C1151     1.0  0.07404  0.87961  0.69337  1.0000
  C   C1152     1.0  0.08014  0.88305  0.70279  1.0000
  C   C1153     1.0  0.07612  0.87790  0.71762  1.0000
  C   C1154     1.0  0.06608  0.86918  0.72286  1.0000
  C   C1155     1.0  0.06011  0.86561  0.71342  1.0000
  H   H1362     1.0  0.07694  0.88392  0.68194  1.0000
  H   H1363     1.0  0.08777  0.88984  0.69858  1.0000
  H   H1364     1.0  0.06280  0.86521  0.73429  1.0000
  H   H1365     1.0  0.05232  0.85898  0.71760  1.0000
  C   C1156     1.0  0.17944  0.74910  0.65045  1.0000
  C   C1157     1.0  0.19309  0.74123  0.65205  1.0000
  C   C1158     1.0  0.20151  0.74669  0.65740  1.0000
  C   C1159     1.0  0.19616  0.75982  0.66151  1.0000
  C   C1160     1.0  0.18249  0.76764  0.65993  1.0000
  C   C1161     1.0  0.17424  0.76242  0.65414  1.0000
  H   H1366     1.0  0.19718  0.73100  0.64901  1.0000
  S   S337      1.0  0.99433  0.85592  0.67839  1.0000
  H   H1367     1.0  0.17808  0.77748  0.66357  1.0000
  H   H1368     1.0  0.16375  0.76852  0.65280  1.0000
  C   C1162     1.0  0.23119  0.80915  0.68906  1.0000
  C   C1163     1.0  0.14273  0.75573  0.58359  1.0000
  H   H1369     1.0  0.19723  0.85655  0.68200  1.0000
  S   S338      1.0  0.13163  0.91448  0.71608  1.0000
  H   H1370     1.0  0.13333  0.75797  0.59192  1.0000
  H   H1371     1.0  0.21663  0.78726  0.77193  1.0000
  C   C1164     1.0  0.10131  0.80610  0.65517  1.0000
  C   C1165     1.0  0.09226  0.81753  0.66112  1.0000
  C   C1166     1.0  0.07817  0.81682  0.66849  1.0000
  C   C1167     1.0  0.07316  0.80457  0.67009  1.0000
  C   C1168     1.0  0.08227  0.79308  0.66440  1.0000
  C   C1169     1.0  0.09618  0.79394  0.65676  1.0000
  H   H1372     1.0  0.09603  0.82701  0.65996  1.0000
  H   H1373     1.0  0.07118  0.82574  0.67291  1.0000
  H   H1374     1.0  0.07858  0.78345  0.66589  1.0000
  H   H1375     1.0  0.10294  0.78503  0.65227  1.0000
  H   H1376     1.0  0.17750  0.90131  0.69071  1.0000
  H   H1377     1.0  0.22683  0.66918  0.75014  1.0000
  H   H1378     1.0  0.06475  0.81353  0.61257  1.0000
  C   C1170     1.0  0.05806  0.81371  0.62316  1.0000
  H   H1379     1.0  0.18734  0.88078  0.72294  1.0000
  H   H1380     1.0  0.19357  0.90916  0.70043  1.0000
  S   S339      1.0  0.15798  0.94220  0.76458  1.0000
  C   C1171     1.0  0.20094  0.67293  0.60900  1.0000
  H   H1381     1.0  0.15988  0.72832  0.72710  1.0000
  C   C1172     1.0  0.19994  0.77118  0.61985  1.0000
  C   C1173     1.0  0.20909  0.85440  0.67923  1.0000
  C   C1174     1.0  0.20172  0.68328  0.58378  1.0000
  C   C1175     1.0  0.19446  0.68229  0.59815  1.0000
  C   C1176     1.0  0.20891  0.68050  0.69913  1.0000
  H   H1382     1.0  0.06793  0.77351  0.61645  1.0000
  H   H1383     1.0  0.98673  0.84058  0.73383  1.0000
  H   H1384     1.0  0.18415  0.68926  0.60084  1.0000
  H   H1385     1.0  0.12576  0.94277  0.71927  1.0000
  C   C1177     1.0  0.23331  0.80754  0.70283  1.0000
  H   H1386     1.0  0.22146  0.69864  0.62981  1.0000
  H   H1387     1.0  0.08416  0.79553  0.61687  1.0000
  C   C1178     1.0  0.99394  0.78293  0.75778  1.0000
  H   H1388     1.0  0.19973  0.48516  0.59559  1.0000
  H   H1389     1.0  0.11047  0.80267  0.68228  1.0000
  H   H1390     1.0  0.17900  0.70600  0.69519  1.0000
  C   C1179     1.0  0.05411  0.79560  0.75721  1.0000
  C   C1180     1.0  0.03057  0.81228  0.74577  1.0000
  C   C1181     1.0  0.02898  0.80037  0.75709  1.0000
  H   H1391     1.0  0.01873  0.79747  0.76130  1.0000
  C   C1182     1.0  0.09587  0.73820  0.69344  1.0000
  C   C1183     1.0  0.08374  0.74190  0.68766  1.0000
  C   C1184     1.0  0.08503  0.74604  0.67269  1.0000
  C   C1185     1.0  0.09849  0.74625  0.66350  1.0000
  C   C1186     1.0  0.11056  0.74210  0.66932  1.0000
  C   C1187     1.0  0.10919  0.73869  0.68419  1.0000
  H   H1392     1.0  0.07338  0.74148  0.69473  1.0000
  H   H1393     1.0  0.07563  0.74906  0.66827  1.0000
  H   H1394     1.0  0.12103  0.74132  0.66236  1.0000
  H   H1395     1.0  0.11846  0.73673  0.68844  1.0000
  C   C1188     1.0  0.16168  0.66289  0.70882  1.0000
  C   C1189     1.0  0.17066  0.67133  0.69882  1.0000
  C   C1190     1.0  0.18469  0.66488  0.69287  1.0000
  C   C1191     1.0  0.18990  0.65013  0.69732  1.0000
  C   C1192     1.0  0.18094  0.64181  0.70750  1.0000
  C   C1193     1.0  0.16681  0.64814  0.71306  1.0000
  H   H1396     1.0  0.16667  0.68273  0.69546  1.0000
  H   H1397     1.0  0.19148  0.67131  0.68498  1.0000
  H   H1398     1.0  0.18487  0.63041  0.71098  1.0000
  C   C1194     1.0  0.10110  0.97392  0.71407  1.0000
  H   H1399     1.0  0.07260  0.77944  0.69664  1.0000
  H   H1400     1.0  0.08219  0.80476  0.77354  1.0000
  N   N80       1.0  0.20108  0.70706  0.69006  1.0000
  C   C1195     1.0  0.22743  0.50132  0.61216  1.0000
  H   H1401     1.0  0.07364  0.86033  0.75509  1.0000
  H   H1402     1.0  0.04766  0.79334  0.65665  1.0000
  H   H1403     1.0  0.08593  0.76530  0.70407  1.0000
  C   C1196     1.0  0.18171  0.74228  0.60836  1.0000
  H   H1404     1.0  0.22553  0.70757  0.59038  1.0000
  H   H1405     1.0  0.22295  0.73277  0.72534  1.0000
  H   H1406     1.0  0.22325  0.70668  0.68039  1.0000
  C   C1197     1.0  0.21079  0.76463  0.59694  1.0000
  C   C1198     1.0  0.21320  0.70709  0.67739  1.0000
  C   C1199     1.0  0.19036  0.62952  0.76157  1.0000
  C   C1200     1.0  0.04056  0.81569  0.65016  1.0000
  C   C1201     1.0  0.23035  0.86297  0.66680  1.0000
  H   H1407     1.0  0.21023  0.77176  0.70894  1.0000
  H   H1408     1.0  0.17874  0.72349  0.58614  1.0000
  C   C1202     1.0  0.10737  0.95925  0.71507  1.0000
  H   H1409     1.0  0.22888  0.82320  0.61603  1.0000
  H   H1410     1.0  0.98973  0.81143  0.75367  1.0000
  C   C1203     1.0  0.18314  0.74880  0.72384  1.0000
  H   H1411     1.0  0.04451  0.91202  0.72518  1.0000
  C   C1204     1.0  0.22995  0.77188  0.69299  1.0000
  C   C1205     1.0  0.22376  0.73768  0.70303  1.0000
  C   C1206     1.0  0.17575  0.65341  0.75404  1.0000
  H   H1412     1.0  0.20020  0.77019  0.63090  1.0000
  H   H1413     1.0  0.11623  0.78290  0.67326  1.0000
  S   S340      1.0  0.23346  0.85584  0.70851  1.0000
  H   H1414     1.0  0.18870  0.72187  0.70325  1.0000
  H   H1415     1.0  0.21307  0.74435  0.70423  1.0000
  H   H1416     1.0  0.21756  0.69384  0.60357  1.0000
  N   N81       1.0  0.06611  0.78696  0.63080  1.0000
  C   C1207     1.0  0.21084  0.76305  0.61135  1.0000
  H   H1417     1.0  0.06479  0.75518  0.73175  1.0000
  N   N82       1.0  0.16483  0.66632  0.75718  1.0000
  H   H1418     1.0  0.19004  0.69682  0.68139  1.0000
  N   N83       1.0  0.15711  0.70207  0.64293  1.0000
  C   C1208     1.0  0.16980  0.70825  0.63974  1.0000
  C   C1209     1.0  0.14422  0.71257  0.64820  1.0000
  C   C1210     1.0  0.15872  0.68920  0.65483  1.0000
  C   C1211     1.0  0.15587  0.69897  0.62966  1.0000
  C   C1212     1.0  0.15667  0.68492  0.62832  1.0000
  C   C1213     1.0  0.15419  0.71021  0.61737  1.0000
  C   C1214     1.0  0.15583  0.68238  0.61547  1.0000
  C   C1215     1.0  0.15347  0.70751  0.60457  1.0000
  C   C1216     1.0  0.15423  0.69366  0.60362  1.0000
  H   H1419     1.0  0.16894  0.71861  0.63175  1.0000
  H   H1420     1.0  0.17136  0.71044  0.64950  1.0000
  H   H1421     1.0  0.17959  0.70084  0.63531  1.0000
  H   H1422     1.0  0.13435  0.70864  0.65006  1.0000
  H   H1423     1.0  0.14304  0.72312  0.64053  1.0000
  H   H1424     1.0  0.14458  0.71476  0.65846  1.0000
  H   H1425     1.0  0.16864  0.68111  0.65185  1.0000
  H   H1426     1.0  0.15949  0.69189  0.66469  1.0000
  H   H1427     1.0  0.14940  0.68410  0.65796  1.0000
  H   H1428     1.0  0.15835  0.67561  0.63689  1.0000
  H   H1429     1.0  0.15361  0.72115  0.61750  1.0000
  H   H1430     1.0  0.15676  0.67155  0.61460  1.0000
  H   H1431     1.0  0.15253  0.71616  0.59521  1.0000
  H   H1432     1.0  0.15385  0.69167  0.59358  1.0000
  N   N84       1.0  0.14471  0.83558  0.64706  1.0000
  C   C1217     1.0  0.15894  0.83903  0.64389  1.0000
  C   C1218     1.0  0.14577  0.82061  0.65545  1.0000
  C   C1219     1.0  0.14148  0.83652  0.63308  1.0000
  C   C1220     1.0  0.13320  0.84512  0.65529  1.0000
  C   C1221     1.0  0.13590  0.85509  0.66146  1.0000
  C   C1222     1.0  0.11876  0.84426  0.65778  1.0000
  C   C1223     1.0  0.12478  0.86363  0.66953  1.0000
  C   C1224     1.0  0.10771  0.85288  0.66583  1.0000
  C   C1225     1.0  0.11074  0.86250  0.67174  1.0000
  H   H1433     1.0  0.16270  0.83736  0.65388  1.0000
  H   H1434     1.0  0.16725  0.83201  0.63725  1.0000
  H   H1435     1.0  0.15881  0.85026  0.63777  1.0000
  H   H1436     1.0  0.14891  0.81925  0.66573  1.0000
  H   H1437     1.0  0.15371  0.81293  0.64933  1.0000
  H   H1438     1.0  0.13549  0.81723  0.65826  1.0000
  H   H1439     1.0  0.13924  0.84783  0.62702  1.0000
  H   H1440     1.0  0.15051  0.83038  0.62616  1.0000
  H   H1441     1.0  0.13218  0.83191  0.63434  1.0000
  H   H1442     1.0  0.14649  0.85648  0.66029  1.0000
  H   H1443     1.0  0.11597  0.83675  0.65363  1.0000
  H   H1444     1.0  0.12708  0.87116  0.67414  1.0000
  H   H1445     1.0  0.09673  0.85208  0.66756  1.0000
  H   H1446     1.0  0.10219  0.86909  0.67806  1.0000
  H   H1447     1.0  0.21133  0.71681  0.66879  1.0000
  H   H1448     1.0  0.05046  0.78462  0.62111  1.0000
  H   H1449     1.0  0.22152  0.76646  0.72942  1.0000
  H   H1450     1.0  0.21353  0.76336  0.77240  1.0000
  H   H1451     1.0  0.23052  0.61436  0.60660  1.0000
  C   C1226     1.0  0.15222  0.92827  0.76173  1.0000
  S   S341      1.0  0.23331  0.66691  0.62839  1.0000
  C   C1227     1.0  0.04184  0.90277  0.69605  1.0000
  C   C1228     1.0  0.19781  0.90079  0.69440  1.0000
  C   C1229     1.0  0.21551  0.67503  0.58031  1.0000
  H   H1452     1.0  0.19348  0.62056  0.77004  1.0000
  C   C1230     1.0  0.05754  0.80092  0.63396  1.0000
  C   C1231     1.0  0.04379  0.81612  0.74059  1.0000
  H   H1453     1.0  0.14361  0.94187  0.74377  1.0000
  H   H1454     1.0  0.99560  0.80541  0.73195  1.0000
  Fe  Fe171     1.0  0.10856  0.92395  0.71578  1.0000
  S   S342      1.0  0.10747  0.90932  0.70259  1.0000
  H   H1455     1.0  0.13092  0.82647  0.69653  1.0000
  C   C1232     1.0  0.20901  0.87884  0.67858  1.0000
  C   C1233     1.0  0.05561  0.80765  0.74610  1.0000
  N   N85       1.0  0.06981  0.77555  0.71972  1.0000
  C   C1234     1.0  0.07127  0.76267  0.73161  1.0000
  C   C1235     1.0  0.05445  0.78273  0.72169  1.0000
  C   C1236     1.0  0.07829  0.78579  0.71913  1.0000
  C   C1237     1.0  0.07762  0.79886  0.70866  1.0000
  C   C1238     1.0  0.08722  0.78332  0.72884  1.0000
  C   C1239     1.0  0.08496  0.80904  0.70826  1.0000
  C   C1240     1.0  0.09463  0.79352  0.72828  1.0000
  C   C1241     1.0  0.09339  0.80640  0.71811  1.0000
  H   H1456     1.0  0.20105  0.70916  0.59205  1.0000
  H   H1457     1.0  0.06764  0.76561  0.74229  1.0000
  H   H1458     1.0  0.04764  0.77519  0.72286  1.0000
  H   H1459     1.0  0.05078  0.78733  0.73144  1.0000
  H   H1460     1.0  0.05211  0.79163  0.71242  1.0000
  H   H1461     1.0  0.07113  0.80144  0.70088  1.0000
  H   H1462     1.0  0.08388  0.81911  0.70039  1.0000
  H   H1463     1.0  0.10103  0.79155  0.73608  1.0000
  H   H1464     1.0  0.09889  0.81440  0.71794  1.0000
  H   H1465     1.0  0.06467  0.79216  0.60852  1.0000
  H   H1466     1.0  0.14841  0.65925  0.75267  1.0000
  H   H1467     1.0  0.05290  0.77349  0.64664  1.0000
  Fe  Fe172     1.0  0.23283  0.86672  0.72561  1.0000
  C   C1242     1.0  0.21204  0.66849  0.70999  1.0000
  N   N86       1.0  0.12834  0.77549  0.68969  1.0000
  C   C1243     1.0  0.14146  0.77053  0.67930  1.0000
  C   C1244     1.0  0.12778  0.76478  0.70350  1.0000
  C   C1245     1.0  0.11589  0.77590  0.68416  1.0000
  C   C1246     1.0  0.20617  0.68363  0.72682  1.0000
  C   C1247     1.0  0.13937  0.79070  0.69783  1.0000
  H   H1468     1.0  0.15130  0.76892  0.68317  1.0000
  H   H1469     1.0  0.14168  0.75998  0.67735  1.0000
  H   H1470     1.0  0.14235  0.77840  0.66881  1.0000
  H   H1471     1.0  0.12698  0.75431  0.70222  1.0000
  H   H1472     1.0  0.11846  0.76839  0.71187  1.0000
  H   H1473     1.0  0.13758  0.76240  0.70769  1.0000
  H   H1474     1.0  0.11571  0.76513  0.68310  1.0000
  H   H1475     1.0  0.10563  0.77974  0.69139  1.0000
  H   H1476     1.0  0.14747  0.78145  0.70107  1.0000
  Fe  Fe173     1.0  0.19176  0.73981  0.75629  1.0000
  H   H1477     1.0  0.09030  0.86283  0.76784  1.0000
  C   C1248     1.0  0.20211  0.72182  0.60643  1.0000
  C   C1249     1.0  0.19607  0.71825  0.59691  1.0000
  N   N87       1.0  0.21452  0.86726  0.67048  1.0000
  C   C1250     1.0  0.18320  0.72644  0.59339  1.0000
  H   H1478     1.0  0.21911  0.65630  0.61383  1.0000
  C   C1251     1.0  0.17604  0.73838  0.59915  1.0000
  H   H1479     1.0  0.07078  0.76428  0.64038  1.0000
  H   H1480     1.0  0.21970  0.75838  0.59065  1.0000
  C   C1252     1.0  0.17438  0.73896  0.73022  1.0000
  H   H1481     1.0  0.06768  0.77556  0.65242  1.0000
  C   C1253     1.0  0.18879  0.89627  0.68903  1.0000
  Fe  Fe174     1.0  0.19744  0.81650  0.63911  1.0000
  C   C1254     1.0  0.18599  0.97092  0.74501  1.0000
  C   C1255     1.0  0.21383  0.88737  0.74903  1.0000
  H   H1482     1.0  0.16602  0.74460  0.59652  1.0000
  N   N88       1.0  0.17124  0.86828  0.72914  1.0000
  C   C1256     1.0  0.17933  0.87688  0.73254  1.0000
  C   C1257     1.0  0.16219  0.87828  0.71935  1.0000
  C   C1258     1.0  0.16184  0.86242  0.74266  1.0000
  C   C1259     1.0  0.18051  0.85620  0.72268  1.0000
  C   C1260     1.0  0.17478  0.84865  0.71628  1.0000
  C   C1261     1.0  0.19501  0.85073  0.72373  1.0000
  C   C1262     1.0  0.18308  0.83659  0.71104  1.0000
  C   C1263     1.0  0.20313  0.83848  0.71871  1.0000
  C   C1264     1.0  0.19719  0.83146  0.71233  1.0000
  H   H1483     1.0  0.10903  0.72641  0.75960  1.0000
  H   H1484     1.0  0.16870  0.88169  0.70849  1.0000
  H   H1485     1.0  0.15608  0.88808  0.72345  1.0000
  H   H1486     1.0  0.15399  0.87354  0.71803  1.0000
  H   H1487     1.0  0.16818  0.85464  0.75025  1.0000
  S   S343      1.0  0.22426  0.63943  0.75639  1.0000
  H   H1488     1.0  0.15460  0.85683  0.74074  1.0000
  H   H1489     1.0  0.16373  0.85176  0.71553  1.0000
  H   H1490     1.0  0.20029  0.85562  0.72857  1.0000
  H   H1491     1.0  0.17843  0.83102  0.70618  1.0000
  S   S344      1.0  0.17400  0.72961  0.77087  1.0000
  H   H1492     1.0  0.20353  0.82198  0.70846  1.0000
  N   N89       1.0  0.06224  0.92958  0.70745  1.0000
  C   C1265     1.0  0.07241  0.93652  0.69529  1.0000
  C   C1266     1.0  0.05114  0.94105  0.71344  1.0000
  C   C1267     1.0  0.07031  0.92086  0.71857  1.0000
  C   C1268     1.0  0.05536  0.92045  0.70330  1.0000
  H   H1493     1.0  0.13187  0.96157  0.76834  1.0000
  H   H1494     1.0  0.23624  0.87795  0.74756  1.0000
  C   C1269     1.0  0.12865  0.78953  0.69172  1.0000
  H   H1495     1.0  0.06697  0.94411  0.68690  1.0000
  H   H1496     1.0  0.07776  0.94292  0.69884  1.0000
  H   H1497     1.0  0.08108  0.92841  0.69033  1.0000
  H   H1498     1.0  0.21003  0.67868  0.68865  1.0000
  H   H1499     1.0  0.05596  0.94826  0.71651  1.0000
  Fe  Fe175     1.0  0.23245  0.67388  0.64814  1.0000
  H   H1500     1.0  0.07770  0.91128  0.71498  1.0000
  H   H1501     1.0  0.07673  0.92704  0.72098  1.0000
  H   H1502     1.0  0.06335  0.91688  0.72897  1.0000
  H   H1503     1.0  0.17399  0.73322  0.74122  1.0000
  C   C1270     1.0  0.22950  0.50069  0.58374  1.0000
  Fe  Fe176     1.0  0.01468  0.84591  0.68685  1.0000
  C   C1271     1.0  0.06211  0.78423  0.61869  1.0000
  H   H1504     1.0  0.99065  0.81037  0.70815  1.0000
  H   H1505     1.0  0.20736  0.72221  0.69744  1.0000
  H   H1506     1.0  0.17220  0.88648  0.73643  1.0000
  H   H1507     1.0  0.21409  0.83432  0.71983  1.0000
  H   H1508     1.0  0.14844  0.80453  0.70420  1.0000
  H   H1509     1.0  0.22424  0.77405  0.68461  1.0000
  H   H1510     1.0  0.17659  0.75848  0.69027  1.0000
  S   S345      1.0  0.09821  0.94769  0.71233  1.0000
  H   H1511     1.0  0.04485  0.82581  0.73256  1.0000
  H   H1512     1.0  0.21507  0.69797  0.67228  1.0000
  C   C1272     1.0  0.22764  0.88955  0.76458  1.0000
  C   C1273     1.0  0.14005  0.80387  0.69965  1.0000
  C   C1274     1.0  0.05714  0.91971  0.68880  1.0000
  C   C1275     1.0  0.22167  0.66505  0.59111  1.0000
  H   H1513     1.0  0.18340  0.96013  0.74909  1.0000
  C   C1276     1.0  0.17571  0.75324  0.70148  1.0000
  H   H1514     1.0  0.17606  0.75162  0.61280  1.0000
  C   C1277     1.0  0.11884  0.80241  0.68728  1.0000
  H   H1515     1.0  0.18049  0.67724  0.75730  1.0000
  H   H1516     1.0  0.06844  0.76262  0.70624  1.0000
  H   H1517     1.0  0.01011  0.74332  0.76709  1.0000
  H   H1518     1.0  0.23392  0.69667  0.60470  1.0000
  C   C1278     1.0  0.21232  0.89451  0.69202  1.0000
  C   C1279     1.0  0.13019  0.81625  0.69532  1.0000
  C   C1280     1.0  0.21792  0.88384  0.68408  1.0000
  H   H1519     1.0  0.03703  0.89569  0.69330  1.0000
  C   C1281     1.0  0.11962  0.81552  0.68917  1.0000
  H   H1520     1.0  0.23597  0.72991  0.74055  1.0000
  C   C1282     1.0  0.18355  0.75616  0.70955  1.0000
  C   C1283     1.0  0.22341  0.70235  0.60197  1.0000
  H   H1521     1.0  0.19045  0.97283  0.75319  1.0000
  C   C1284     1.0  0.10153  0.95374  0.75502  1.0000
  H   H1522     1.0  0.18492  0.87075  0.74134  1.0000
  C   C1285     1.0  0.19441  0.73400  0.61220  1.0000
  C   C1286     1.0  0.07440  0.77058  0.70607  1.0000
  H   H1523     1.0  0.08830  0.77681  0.62451  1.0000
  H   H1524     1.0  0.21932  0.89795  0.69632  1.0000
  C   C1287     1.0  0.20308  0.69573  0.71604  1.0000
  C   C1288     1.0  0.19737  0.62934  0.74737  1.0000
  H   H1525     1.0  0.04468  0.94775  0.70548  1.0000
  H   H1526     1.0  0.21439  0.86372  0.65006  1.0000
  C   C1289     1.0  0.21551  0.89783  0.77190  1.0000
  S   S346      1.0  0.15982  0.73755  0.69683  1.0000
  H   H1527     1.0  0.20495  0.68482  0.73761  1.0000
  H   H1528     1.0  0.18668  0.88184  0.67806  1.0000
  C   C1290     1.0  0.11215  0.92897  0.77389  1.0000
  H   H1529     1.0  0.08832  0.77379  0.73731  1.0000
  H   H1530     1.0  0.23290  0.60521  0.67657  1.0000
  C   C1291     1.0  0.05007  0.82703  0.62587  1.0000
  C   C1292     1.0  0.04134  0.82801  0.63935  1.0000
  C   C1293     1.0  0.16636  0.73619  0.72219  1.0000
  H   H1531     1.0  0.21267  0.88211  0.65036  1.0000
  C   C1294     1.0  0.16732  0.74307  0.70771  1.0000
  S   S347      1.0  0.19434  0.75145  0.73316  1.0000
  C   C1295     1.0  0.12533  0.96942  0.76102  1.0000
  H   H1532     1.0  0.21252  0.85964  0.76773  1.0000
  H   H1533     1.0  0.17963  0.79000  0.59599  1.0000
  C   C1296     1.0  0.19422  0.88525  0.68154  1.0000
  H   H1534     1.0  0.15789  0.97248  0.75945  1.0000
  H   H1535     1.0  0.13834  0.95888  0.72314  1.0000
  H   H1536     1.0  0.20490  0.69764  0.62699  1.0000
  N   N90       1.0  0.21539  0.71301  0.61087  1.0000
  H   H1537     1.0  0.08484  0.78946  0.63546  1.0000
  C   C1297     1.0  0.11375  0.94225  0.77450  1.0000
  S   S348      1.0  0.19344  0.94003  0.77326  1.0000
  H   H1538     1.0  0.03944  0.78288  0.77158  1.0000
  H   H1539     1.0  0.03523  0.83833  0.64151  1.0000
  H   H1540     1.0  0.19790  0.87344  0.65846  1.0000
  H   H1541     1.0  0.19962  0.70588  0.71922  1.0000
  C   C1298     1.0  0.12790  0.96314  0.72068  1.0000
  H   H1542     1.0  0.18494  0.71600  0.67750  1.0000
  C   C1299     1.0  0.12079  0.95395  0.71842  1.0000
  H   H1543     1.0  0.22831  0.80026  0.71187  1.0000
  C   C1300     1.0  0.21916  0.81652  0.57927  1.0000
  C   C1301     1.0  0.20630  0.81640  0.60396  1.0000
  H   H1544     1.0  0.03340  0.89660  0.71865  1.0000
  C   C1302     1.0  0.18826  0.70639  0.68583  1.0000
  C   C1303     1.0  0.22480  0.79588  0.59808  1.0000
  C   C1304     1.0  0.22168  0.77056  0.70701  1.0000
  H   H1545     1.0  0.19025  0.76383  0.70452  1.0000
  H   H1546     1.0  0.21293  0.84542  0.67351  1.0000
  H   H1547     1.0  0.23223  0.65847  0.58844  1.0000
  H   H1548     1.0  0.21952  0.75574  0.61590  1.0000
  C   C1305     1.0  0.19364  0.64089  0.73643  1.0000
  C   C1306     1.0  0.20963  0.87187  0.65678  1.0000
  H   H1549     1.0  0.20245  0.83391  0.58604  1.0000
  H   H1550     1.0  0.03396  0.81653  0.66074  1.0000
  H   H1551     1.0  0.21211  0.79700  0.61934  1.0000
  H   H1552     1.0  0.14979  0.89342  0.77543  1.0000
  C   C1307     1.0  0.19812  0.72093  0.69423  1.0000
  C   C1308     1.0  0.22512  0.72224  0.60993  1.0000
  H   H1553     1.0  0.11198  0.82517  0.68580  1.0000
  H   H1554     1.0  0.21221  0.74084  0.65828  1.0000
  H   H1555     1.0  0.19169  0.89826  0.75306  1.0000
  C   C1309     1.0  0.22533  0.48908  0.59481  1.0000
  H   H1556     1.0  0.99665  0.77953  0.76854  1.0000
  H   H1557     1.0  0.22677  0.74065  0.68021  1.0000
  C   C1310     1.0  0.20262  0.90112  0.76753  1.0000
  C   C1311     1.0  0.21432  0.66395  0.60548  1.0000
  H   H1558     1.0  0.22489  0.80282  0.68751  1.0000
  S   S349      1.0  0.19154  0.75260  0.77162  1.0000
  C   C1312     1.0  0.06419  0.77460  0.64312  1.0000
  C   C1313     1.0  0.18297  0.65275  0.73965  1.0000
  H   H1559     1.0  0.21284  0.85049  0.68945  1.0000
  H   H1560     1.0  0.23177  0.62688  0.58076  1.0000
  C   C1314     1.0  0.10815  0.95511  0.76534  1.0000
  H   H1561     1.0  0.06584  0.81061  0.74192  1.0000
  C   C1315     1.0  0.23147  0.73561  0.68949  1.0000
  C   C1316     1.0  0.03984  0.90328  0.71033  1.0000
  C   C1317     1.0  0.21417  0.80257  0.60822  1.0000
  C   C1318     1.0  0.17968  0.64134  0.76494  1.0000
  C   C1319     1.0  0.22967  0.73115  0.71507  1.0000
  H   H1562     1.0  0.15497  0.87102  0.74822  1.0000
  C   C1320     1.0  0.20446  0.69453  0.70175  1.0000
  H   H1563     1.0  0.23420  0.85464  0.66028  1.0000
  H   H1564     1.0  0.19122  0.75819  0.57817  1.0000
  C   C1321     1.0  0.15323  0.66877  0.74963  1.0000
  S   S350      1.0  0.06883  0.78535  0.76435  1.0000
  S   S351      1.0  0.13469  0.70486  0.76366  1.0000
  C   C1322     1.0  0.20177  0.89583  0.75620  1.0000
  C   C1323     1.0  0.21073  0.67004  0.72380  1.0000
  C   C1324     1.0  0.22750  0.80294  0.58362  1.0000
  H   H1565     1.0  0.99643  0.82548  0.68079  1.0000
  H   H1566     1.0  0.19914  0.64068  0.72538  1.0000
  C   C1325     1.0  0.23243  0.51223  0.58692  1.0000
  S   S352      1.0  0.19409  0.82555  0.61669  1.0000
  C   C1326     1.0  0.04639  0.91204  0.71394  1.0000
  C   C1327     1.0  0.04074  0.79207  0.76286  1.0000
  H   H1567     1.0  0.14451  0.67811  0.75210  1.0000
  C   C1328     1.0  0.21173  0.70512  0.62593  1.0000
  C   C1329     1.0  0.21010  0.67875  0.76601  1.0000
  C   C1330     1.0  0.10022  0.94036  0.75433  1.0000
  C   C1331     1.0  0.15407  0.91453  0.77058  1.0000
  C   C1332     1.0  0.21469  0.65393  0.76431  1.0000
  C   C1333     1.0  0.22683  0.88435  0.75313  1.0000
  H   H1568     1.0  0.21553  0.65789  0.70764  1.0000
  H   H1569     1.0  0.12724  0.98018  0.75995  1.0000
  H   H1570     1.0  0.23442  0.62078  0.68099  1.0000
  H   H1571     1.0  0.22112  0.72879  0.61818  1.0000
  H   H1572     1.0  0.17548  0.97582  0.72225  1.0000
  S   S353      1.0  0.23471  0.82131  0.66012  1.0000
  N   N91       1.0  0.11002  0.96905  0.76617  1.0000
  C   C1334     1.0  0.14859  0.90395  0.76839  1.0000
  C   C1335     1.0  0.05044  0.91097  0.68532  1.0000
  S   S354      1.0  0.21223  0.87993  0.73561  1.0000
  H   H1573     1.0  0.21318  0.66068  0.73218  1.0000
  H   H1574     1.0  0.13829  0.73627  0.58228  1.0000
  C   C1336     1.0  0.19968  0.77439  0.59064  1.0000
  H   H1575     1.0  0.19549  0.73025  0.68538  1.0000
  C   C1337     1.0  0.12166  0.97772  0.71982  1.0000
  H   H1576     1.0  0.21269  0.68919  0.76215  1.0000
  H   H1577     1.0  0.00294  0.78740  0.75019  1.0000
  H   H1578     1.0  0.17568  0.68121  0.74030  1.0000
  C   C1338     1.0  0.10540  0.92802  0.76384  1.0000
  H   H1579     1.0  0.23491  0.67450  0.67454  1.0000
  C   C1339     1.0  0.22431  0.48980  0.60914  1.0000
  H   H1580     1.0  0.10471  0.91762  0.76307  1.0000
  H   H1581     1.0  0.22611  0.83617  0.77006  1.0000
  C   C1340     1.0  0.10709  0.71995  0.77040  1.0000
  C   C1341     1.0  0.14560  0.74341  0.57819  1.0000
  H   H1582     1.0  0.23486  0.85819  0.67655  1.0000
  H   H1583     1.0  0.12966  0.96665  0.75029  1.0000
  H   H1584     1.0  0.18048  0.66144  0.73074  1.0000
  H   H1585     1.0  0.16340  0.96785  0.73708  1.0000
  H   H1586     1.0  0.23086  0.70774  0.73873  1.0000
  H   H1587     1.0  0.23432  0.52122  0.60340  1.0000
  C   C1342     1.0  0.16734  0.97794  0.73208  1.0000
  H   H1588     1.0  0.23596  0.52080  0.57832  1.0000
  H   H1589     1.0  0.22928  0.87968  0.68246  1.0000
  C   C1343     1.0  0.22806  0.76752  0.71859  1.0000
  H   H1590     1.0  0.05916  0.81773  0.76813  1.0000
  H   H1591     1.0  0.09759  0.96276  0.74709  1.0000
  H   H1592     1.0  0.23582  0.71583  0.61170  1.0000
  C   C1344     1.0  0.08529  0.85371  0.77177  1.0000
  C   C1345     1.0  0.00390  0.74765  0.77634  1.0000
  C   C1346     1.0  0.15198  0.76516  0.57815  1.0000
  H   H1593     1.0  0.22694  0.50150  0.62314  1.0000
  H   H1594     1.0  0.23334  0.62896  0.62173  1.0000
  H   H1595     1.0  0.06220  0.84016  0.76332  1.0000
  H   H1596     1.0  0.23099  0.78537  0.60155  1.0000
  H   H1597     1.0  0.09548  0.93955  0.74612  1.0000
  H   H1598     1.0  0.23523  0.87223  0.66048  1.0000
  C   C1347     1.0  0.06932  0.84057  0.76950  1.0000
  C   C1348     1.0  0.07584  0.85228  0.76459  1.0000
  C   C1349     1.0  0.22219  0.76415  0.77630  1.0000
  C   C1350     1.0  0.22399  0.77770  0.77598  1.0000
  C   C1351     1.0  0.20344  0.65172  0.77612  1.0000
  H   H1599     1.0  0.22133  0.48133  0.61811  1.0000
  C   C1352     1.0  0.15816  0.66536  0.77269  1.0000
  H   H1600     1.0  0.17486  0.64085  0.77617  1.0000
  H   H1601     1.0  0.14996  0.67528  0.77455  1.0000
  C   C1353     1.0  0.11794  0.70872  0.77508  1.0000
  H   H1602     1.0  0.15258  0.65634  0.77720  1.0000
  H   H1603     1.0  0.08537  0.73161  0.77619  1.0000
  C   C1354     1.0  0.00600  0.70507  0.78811  1.0000
  H   H1604     1.0  0.14961  0.88039  0.88781  1.0000
  Fe  Fe177     1.0  0.05836  0.76480  0.81682  1.0000
  S   S355      1.0  0.07579  0.75723  0.79911  1.0000
  S   S356      1.0  0.06428  0.76737  0.83622  1.0000
  Fe  Fe178     1.0  0.03483  0.76100  0.80406  1.0000
  H   H1605     1.0  0.09570  0.84450  0.78946  1.0000
  Fe  Fe179     1.0  0.06377  0.74045  0.80204  1.0000
  N   N92       1.0  0.16488  0.88238  0.95834  1.0000
  H   H1606     1.0  0.14997  0.78934  0.92486  1.0000
  C   C1355     1.0  0.07710  0.80416  0.78514  1.0000
  S   S357      1.0  0.04707  0.74706  0.82066  1.0000
  S   S358      1.0  0.04424  0.77971  0.80224  1.0000
  H   H1607     1.0  0.04986  0.80805  0.78406  1.0000
  H   H1608     1.0  0.12569  0.87162  0.92251  1.0000
  H   H1609     1.0  0.13119  0.84277  0.86137  1.0000
  H   H1610     1.0  0.14747  0.84535  0.91275  1.0000
  S   S359      1.0  0.15730  0.93450  0.83397  1.0000
  S   S360      1.0  0.19507  0.93591  0.80677  1.0000
  Fe  Fe180     1.0  0.18536  0.87636  0.89630  1.0000
  H   H1611     1.0  0.09846  0.74939  0.83834  1.0000
  S   S361      1.0  0.16800  0.89622  0.89431  1.0000
  Fe  Fe181     1.0  0.18845  0.84415  0.90348  1.0000
  S   S362      1.0  0.21118  0.83980  0.90493  1.0000
  S   S363      1.0  0.17668  0.82661  0.90829  1.0000
  Fe  Fe182     1.0  0.20421  0.85765  0.91684  1.0000
  H   H1612     1.0  0.22433  0.64463  0.79242  1.0000
  H   H1613     1.0  0.09948  0.72168  0.82975  1.0000
  H   H1614     1.0  0.13431  0.98006  0.81665  1.0000
  S   S364      1.0  0.18117  0.86038  0.91707  1.0000
  S   S365      1.0  0.19044  0.86040  0.88273  1.0000
  Fe  Fe183     1.0  0.11778  0.79860  0.85640  1.0000
  S   S366      1.0  0.11781  0.77925  0.87470  1.0000
  S   S367      1.0  0.10604  0.80417  0.83829  1.0000
  Fe  Fe184     1.0  0.14336  0.80555  0.86227  1.0000
  S   S368      1.0  0.14565  0.78640  0.88046  1.0000
  S   S369      1.0  0.15972  0.81922  0.85457  1.0000
  Fe  Fe185     1.0  0.14148  0.77469  0.86644  1.0000
  S   S370      1.0  0.15540  0.75371  0.86211  1.0000
  Fe  Fe186     1.0  0.12187  0.79305  0.88715  1.0000
  S   S371      1.0  0.11304  0.79159  0.91113  1.0000
  S   S372      1.0  0.14139  0.79324  0.84763  1.0000
  S   S373      1.0  0.11969  0.81302  0.86950  1.0000
  H   H1615     1.0  0.15710  0.77222  0.93537  1.0000
  S   S374      1.0  0.19186  0.72286  0.79626  1.0000
  C   C1356     1.0  0.12416  0.72937  0.81593  1.0000
  H   H1616     1.0  0.23412  0.89580  0.84418  1.0000
  H   H1617     1.0  0.09749  0.73097  0.81196  1.0000
  C   C1357     1.0  0.13546  0.72485  0.82335  1.0000
  Fe  Fe187     1.0  0.17539  0.74069  0.78696  1.0000
  S   S375      1.0  0.15494  0.75222  0.79935  1.0000
  H   H1618     1.0  0.11204  0.96304  0.78836  1.0000
  S   S376      1.0  0.18869  0.68981  0.78708  1.0000
  C   C1358     1.0  0.15750  0.78880  0.80249  1.0000
  H   H1619     1.0  0.14976  0.90070  0.94995  1.0000
  C   C1359     1.0  0.02011  0.71247  0.80024  1.0000
  C   C1360     1.0  0.23433  0.85301  0.78156  1.0000
  H   H1620     1.0  0.11007  0.73253  0.84350  1.0000
  H   H1621     1.0  0.11221  0.84371  0.88345  1.0000
  H   H1622     1.0  0.17871  0.80999  0.97500  1.0000
  C   C1361     1.0  0.13469  0.85974  0.89101  1.0000
  S   S377      1.0  0.21427  0.89619  0.97287  1.0000
  H   H1623     1.0  0.20063  0.78871  0.79785  1.0000
  H   H1624     1.0  0.17415  0.80185  0.77859  1.0000
  S   S378      1.0  0.12686  0.83071  0.94409  1.0000
  C   C1362     1.0  0.21196  0.87007  0.97019  1.0000
  H   H1625     1.0  0.14014  0.88552  0.90412  1.0000
  Fe  Fe188     1.0  0.17230  0.93366  0.81250  1.0000
  H   H1626     1.0  0.21572  0.92760  0.96843  1.0000
  C   C1363     1.0  0.13201  0.84769  0.86946  1.0000
  S   S379      1.0  0.01101  0.76278  0.80730  1.0000
  C   C1364     1.0  0.21784  0.79347  0.95189  1.0000
  C   C1365     1.0  0.12253  0.85426  0.89252  1.0000
  C   C1366     1.0  0.14897  0.85651  0.90809  1.0000
  C   C1367     1.0  0.12402  0.86683  0.91442  1.0000
  C   C1368     1.0  0.15950  0.77873  0.96374  1.0000
  C   C1369     1.0  0.13933  0.88037  0.89587  1.0000
  C   C1370     1.0  0.20976  0.85879  0.77956  1.0000
  H   H1627     1.0  0.11715  0.74838  0.83428  1.0000
  H   H1628     1.0  0.15234  0.85239  0.85798  1.0000
  H   H1629     1.0  0.13072  0.88746  0.89045  1.0000
  C   C1371     1.0  0.11706  0.80234  0.92029  1.0000
  C   C1372     1.0  0.11413  0.79909  0.93540  1.0000
  C   C1373     1.0  0.11711  0.80759  0.94292  1.0000
  C   C1374     1.0  0.12292  0.81951  0.93536  1.0000
  C   C1375     1.0  0.12587  0.82268  0.92030  1.0000
  C   C1376     1.0  0.12301  0.81416  0.91279  1.0000
  H   H1630     1.0  0.10942  0.79001  0.94129  1.0000
  H   H1631     1.0  0.11470  0.80505  0.95454  1.0000
  H   H1632     1.0  0.13055  0.83170  0.91436  1.0000
  H   H1633     1.0  0.12516  0.81687  0.90119  1.0000
  C   C1377     1.0  0.15417  0.75185  0.84550  1.0000
  C   C1378     1.0  0.16478  0.74213  0.83835  1.0000
  C   C1379     1.0  0.16488  0.74186  0.82430  1.0000
  C   C1380     1.0  0.15418  0.75107  0.81749  1.0000
  C   C1381     1.0  0.14310  0.76017  0.82498  1.0000
  C   C1382     1.0  0.14314  0.76062  0.83892  1.0000
  H   H1634     1.0  0.17311  0.73506  0.84357  1.0000
  H   H1635     1.0  0.17328  0.73460  0.81875  1.0000
  H   H1636     1.0  0.13469  0.76723  0.81985  1.0000
  H   H1637     1.0  0.13463  0.76784  0.84455  1.0000
  C   C1383     1.0  0.10201  0.70304  0.79823  1.0000
  C   C1384     1.0  0.21095  0.86528  0.94774  1.0000
  H   H1638     1.0  0.21854  0.82328  0.80867  1.0000
  C   C1385     1.0  0.09835  0.73242  0.82234  1.0000
  H   H1639     1.0  0.09905  0.76053  0.81348  1.0000
  C   C1386     1.0  0.10906  0.74241  0.83484  1.0000
  H   H1640     1.0  0.21328  0.81075  0.87007  1.0000
  H   H1641     1.0  0.21268  0.86943  0.80185  1.0000
  H   H1642     1.0  0.15445  0.78136  0.79795  1.0000
  H   H1643     1.0  0.11426  0.87363  0.91075  1.0000
  C   C1387     1.0  0.17212  0.82486  0.89310  1.0000
  C   C1388     1.0  0.16050  0.81885  0.89498  1.0000
  C   C1389     1.0  0.15676  0.81711  0.88315  1.0000
  C   C1390     1.0  0.16465  0.82130  0.86931  1.0000
  C   C1391     1.0  0.17628  0.82738  0.86730  1.0000
  C   C1392     1.0  0.17997  0.82921  0.87920  1.0000
  H   H1644     1.0  0.15418  0.81570  0.90555  1.0000
  H   H1645     1.0  0.14753  0.81284  0.88474  1.0000
  H   H1646     1.0  0.18242  0.83069  0.85659  1.0000
  H   H1647     1.0  0.18903  0.83374  0.87761  1.0000
  H   H1648     1.0  0.15065  0.86048  0.91674  1.0000
  C   C1393     1.0  0.15816  0.80487  0.93861  1.0000
  N   N93       1.0  0.11043  0.73903  0.82081  1.0000
  C   C1394     1.0  0.16108  0.92326  0.85025  1.0000
  C   C1395     1.0  0.15143  0.92588  0.86296  1.0000
  C   C1396     1.0  0.15379  0.91748  0.87627  1.0000
  C   C1397     1.0  0.16577  0.90624  0.87710  1.0000
  C   C1398     1.0  0.17546  0.90338  0.86441  1.0000
  C   C1399     1.0  0.17315  0.91196  0.85094  1.0000
  H   H1649     1.0  0.14210  0.93455  0.86250  1.0000
  H   H1650     1.0  0.14628  0.91976  0.88600  1.0000
  H   H1651     1.0  0.18475  0.89468  0.86500  1.0000
  H   H1652     1.0  0.18061  0.90986  0.84114  1.0000
  C   C1400     1.0  0.07664  0.77700  0.83629  1.0000
  C   C1401     1.0  0.08270  0.78592  0.82385  1.0000
  C   C1402     1.0  0.09189  0.79403  0.82453  1.0000
  C   C1403     1.0  0.09534  0.79303  0.83760  1.0000
  C   C1404     1.0  0.08971  0.78366  0.84991  1.0000
  C   C1405     1.0  0.08031  0.77580  0.84927  1.0000
  H   H1653     1.0  0.08008  0.78669  0.81383  1.0000
  H   H1654     1.0  0.09631  0.80116  0.81495  1.0000
  H   H1655     1.0  0.09220  0.78284  0.86005  1.0000
  H   H1656     1.0  0.07568  0.76891  0.85896  1.0000
  H   H1657     1.0  0.11680  0.91925  0.78078  1.0000
  C   C1406     1.0  0.00287  0.75753  0.79649  1.0000
  H   H1658     1.0  0.11394  0.85413  0.90195  1.0000
  C   C1407     1.0  0.14540  0.85889  0.87823  1.0000
  H   H1659     1.0  0.17178  0.79523  0.91422  1.0000
  H   H1660     1.0  0.17147  0.90131  0.95807  1.0000
  H   H1661     1.0  0.15819  0.97142  0.81663  1.0000
  N   N94       1.0  0.13658  0.86576  0.90220  1.0000
  H   H1662     1.0  0.00656  0.72572  0.81552  1.0000
  C   C1408     1.0  0.22707  0.68635  0.78829  1.0000
  C   C1409     1.0  0.15599  0.89013  0.94764  1.0000
  H   H1663     1.0  0.19251  0.77941  0.94159  1.0000
  C   C1410     1.0  0.98904  0.74885  0.78014  1.0000
  H   H1664     1.0  0.04411  0.72176  0.81304  1.0000
  H   H1665     1.0  0.14156  0.71261  0.78794  1.0000
  H   H1666     1.0  0.14322  0.78532  0.94353  1.0000
  N   N95       1.0  0.16441  0.78986  0.93728  1.0000
  C   C1411     1.0  0.18850  0.77035  0.96388  1.0000
  H   H1667     1.0  0.12385  0.69178  0.79272  1.0000
  C   C1412     1.0  0.07210  0.82986  0.78192  1.0000
  H   H1668     1.0  0.16262  0.89207  0.93649  1.0000
  C   C1413     1.0  0.14394  0.85313  0.86757  1.0000
  S   S380      1.0  0.07441  0.71723  0.80523  1.0000
  C   C1414     1.0  0.22466  0.77280  0.97036  1.0000
  H   H1669     1.0  0.15198  0.79977  0.79783  1.0000
  C   C1415     1.0  0.12135  0.84823  0.88191  1.0000
  C   C1416     1.0  0.14845  0.71612  0.81812  1.0000
  S   S381      1.0  0.20948  0.85294  0.93872  1.0000
  C   C1417     1.0  0.22662  0.78007  0.95601  1.0000
  H   H1670     1.0  0.21206  0.88302  0.92947  1.0000
  C   C1418     1.0  0.16944  0.78170  0.95053  1.0000
  H   H1671     1.0  0.21064  0.82535  0.96254  1.0000
  H   H1672     1.0  0.15907  0.85591  0.89976  1.0000
  C   C1419     1.0  0.21195  0.83205  0.82709  1.0000
  H   H1673     1.0  0.20533  0.84330  0.84421  1.0000
  C   C1420     1.0  0.99392  0.71934  0.80574  1.0000
  C   C1421     1.0  0.98803  0.75874  0.80025  1.0000
  H   H1674     1.0  0.23295  0.92937  0.96868  1.0000
  C   C1422     1.0  0.22311  0.83456  0.78198  1.0000
  H   H1675     1.0  0.02862  0.69923  0.78429  1.0000
  C   C1423     1.0  0.21105  0.86068  0.96242  1.0000
  H   H1676     1.0  0.18252  0.89165  0.94473  1.0000
  H   H1677     1.0  0.23527  0.62905  0.80100  1.0000
  H   H1678     1.0  0.18385  0.88459  0.96294  1.0000
  C   C1424     1.0  0.03336  0.72181  0.81192  1.0000
  H   H1679     1.0  0.21045  0.84977  0.96785  1.0000
  H   H1680     1.0  0.15304  0.78627  0.81429  1.0000
  H   H1681     1.0  0.19974  0.76711  0.96404  1.0000
  H   H1682     1.0  0.22609  0.90895  0.80846  1.0000
  C   C1425     1.0  0.17258  0.81575  0.81842  1.0000
  H   H1683     1.0  0.07280  0.79425  0.78914  1.0000
  C   C1426     1.0  0.04145  0.69787  0.80820  1.0000
  H   H1684     1.0  0.10004  0.69640  0.80894  1.0000
  H   H1685     1.0  0.16612  0.81003  0.93983  1.0000
  H   H1686     1.0  0.15405  0.81155  0.92903  1.0000
  C   C1427     1.0  0.04328  0.71797  0.78806  1.0000
  H   H1687     1.0  0.14834  0.88403  0.94746  1.0000
  C   C1428     1.0  0.10903  0.75276  0.81002  1.0000
  C   C1429     1.0  0.99341  0.71228  0.79572  1.0000
  S   S382      1.0  0.23219  0.79662  0.84809  1.0000
  H   H1688     1.0  0.19139  0.76959  0.80205  1.0000
  H   H1689     1.0  0.16617  0.66418  0.77900  1.0000
  S   S383      1.0  0.05086  0.75292  0.78566  1.0000
  H   H1690     1.0  0.23292  0.73608  0.83318  1.0000
  Fe  Fe189     1.0  0.21287  0.85719  0.88492  1.0000
  H   H1691     1.0  0.16440  0.86150  0.95623  1.0000
  S   S384      1.0  0.23595  0.79568  0.78284  1.0000
  C   C1430     1.0  0.17775  0.79673  0.80530  1.0000
  C   C1431     1.0  0.14393  0.87443  0.97675  1.0000
  H   H1692     1.0  0.10873  0.75131  0.79944  1.0000
  C   C1432     1.0  0.09116  0.71427  0.79360  1.0000
  H   H1693     1.0  0.11989  0.94226  0.78186  1.0000
  S   S385      1.0  0.16548  0.95268  0.79559  1.0000
  C   C1433     1.0  0.09375  0.72291  0.77978  1.0000
  C   C1434     1.0  0.22096  0.82946  0.86833  1.0000
  Fe  Fe190     1.0  0.12670  0.82567  0.96792  1.0000
  H   H1694     1.0  0.21209  0.82164  0.83437  1.0000
  H   H1695     1.0  0.04615  0.71065  0.78061  1.0000
  H   H1696     1.0  0.17480  0.82310  0.95957  1.0000
  N   N96       1.0  0.17323  0.78723  0.79919  1.0000
  H   H1697     1.0  0.17887  0.86184  0.96320  1.0000
  H   H1698     1.0  0.02733  0.71801  0.82297  1.0000
  H   H1699     1.0  0.08788  0.73913  0.82666  1.0000
  Fe  Fe191     1.0  0.17093  0.93738  0.78126  1.0000
  N   N97       1.0  0.03422  0.71261  0.80214  1.0000
  H   H1700     1.0  0.21336  0.83009  0.78567  1.0000
  H   H1701     1.0  0.02212  0.75142  0.78119  1.0000
  Fe  Fe192     1.0  0.18835  0.95412  0.78893  1.0000
  C   C1435     1.0  0.18708  0.81458  0.81688  1.0000
  H   H1702     1.0  0.13468  0.72816  0.83303  1.0000
  H   H1703     1.0  0.21086  0.82265  0.93844  1.0000
  H   H1704     1.0  0.20837  0.80379  0.80817  1.0000
  H   H1705     1.0  0.17637  0.76465  0.80057  1.0000
  H   H1706     1.0  0.22844  0.64419  0.80918  1.0000
  N   N98       1.0  0.19184  0.77561  0.85420  1.0000
  C   C1436     1.0  0.19958  0.78581  0.85538  1.0000
  C   C1437     1.0  0.17753  0.78379  0.85201  1.0000
  C   C1438     1.0  0.19014  0.76504  0.86814  1.0000
  C   C1439     1.0  0.19904  0.76822  0.84223  1.0000
  C   C1440     1.0  0.21090  0.77222  0.83150  1.0000
  C   C1441     1.0  0.19375  0.75708  0.84062  1.0000
  C   C1442     1.0  0.21695  0.76545  0.81996  1.0000
  C   C1443     1.0  0.20009  0.75020  0.82919  1.0000
  C   C1444     1.0  0.21162  0.75443  0.81884  1.0000
  H   H1707     1.0  0.20026  0.79483  0.84580  1.0000
  H   H1708     1.0  0.19408  0.79096  0.86467  1.0000
  H   H1709     1.0  0.21056  0.78032  0.85690  1.0000
  H   H1710     1.0  0.17820  0.79179  0.84164  1.0000
  H   H1711     1.0  0.17185  0.78974  0.86063  1.0000
  H   H1712     1.0  0.17067  0.77673  0.85204  1.0000
  H   H1713     1.0  0.20057  0.75781  0.86967  1.0000
  H   H1714     1.0  0.18561  0.77040  0.87737  1.0000
  H   H1715     1.0  0.18259  0.75830  0.86912  1.0000
  H   H1716     1.0  0.21571  0.78055  0.83177  1.0000
  H   H1717     1.0  0.18456  0.75369  0.84814  1.0000
  C   C1445     1.0  0.08192  0.83159  0.78888  1.0000
  H   H1718     1.0  0.19590  0.74166  0.82826  1.0000
  N   N99       1.0  0.22074  0.84809  0.78669  1.0000
  H   H1719     1.0  0.18164  0.77879  0.92297  1.0000
  H   H1720     1.0  0.19007  0.78810  0.77996  1.0000
  H   H1721     1.0  0.17918  0.86868  0.94452  1.0000
  C   C1446     1.0  0.20677  0.79997  0.96216  1.0000
  C   C1447     1.0  0.19704  0.80476  0.80945  1.0000
  C   C1448     1.0  0.17611  0.89038  0.95597  1.0000
  H   H1722     1.0  0.08567  0.80271  0.79082  1.0000
  H   H1723     1.0  0.03778  0.72860  0.78265  1.0000
  C   C1449     1.0  0.15582  0.88087  0.97307  1.0000
  S   S386      1.0  0.22860  0.73461  0.78382  1.0000
  H   H1724     1.0  0.21111  0.89711  0.83750  1.0000
  H   H1725     1.0  0.22311  0.95546  0.96963  1.0000
  H   H1726     1.0  0.15514  0.86242  0.87648  1.0000
  C   C1450     1.0  0.21616  0.84661  0.80247  1.0000
  H   H1727     1.0  0.23206  0.82628  0.78591  1.0000
  C   C1451     1.0  0.21198  0.87938  0.94081  1.0000
  C   C1452     1.0  0.17824  0.79040  0.78334  1.0000
  C   C1453     1.0  0.17208  0.86800  0.95542  1.0000
  H   H1728     1.0  0.16485  0.82342  0.82421  1.0000
  C   C1454     1.0  0.01076  0.75211  0.78438  1.0000
  C   C1455     1.0  0.19935  0.82426  0.96561  1.0000
  C   C1456     1.0  0.21574  0.83316  0.81223  1.0000
  H   H1729     1.0  0.05345  0.80637  0.80690  1.0000
  C   C1457     1.0  0.21307  0.88414  0.96332  1.0000
  H   H1730     1.0  0.12193  0.85607  0.92037  1.0000
  H   H1731     1.0  0.15702  0.71301  0.82379  1.0000
  C   C1458     1.0  0.05893  0.81551  0.80278  1.0000
  H   H1732     1.0  0.20505  0.86708  0.82781  1.0000
  C   C1459     1.0  0.18415  0.77739  0.95100  1.0000
  N   N100      1.0  0.06572  0.81710  0.78723  1.0000
  C   C1460     1.0  0.23283  0.64097  0.79867  1.0000
  C   C1461     1.0  0.17844  0.76743  0.97659  1.0000
  S   S387      1.0  0.17543  0.91805  0.79881  1.0000
  C   C1462     1.0  0.00702  0.71956  0.80797  1.0000
  H   H1733     1.0  0.21643  0.74914  0.80994  1.0000
  C   C1463     1.0  0.13978  0.71593  0.79792  1.0000
  H   H1734     1.0  0.05361  0.71916  0.78924  1.0000
  H   H1735     1.0  0.17457  0.78375  0.77835  1.0000
  H   H1736     1.0  0.19050  0.82126  0.82157  1.0000
  H   H1737     1.0  0.21405  0.89958  0.94312  1.0000
  H   H1738     1.0  0.21651  0.69281  0.79154  1.0000
  C   C1464     1.0  0.22916  0.67142  0.79132  1.0000
  C   C1465     1.0  0.19990  0.82056  0.94265  1.0000
  H   H1739     1.0  0.16076  0.70509  0.80133  1.0000
  S   S388      1.0  0.21634  0.90341  0.78690  1.0000
  C   C1466     1.0  0.23157  0.75175  0.78170  1.0000
  H   H1740     1.0  0.06673  0.81329  0.80959  1.0000
  S   S389      1.0  0.19128  0.97698  0.78034  1.0000
  H   H1741     1.0  0.21266  0.83294  0.87703  1.0000
  H   H1742     1.0  0.05086  0.82537  0.80490  1.0000
  C   C1467     1.0  0.21750  0.88902  0.83105  1.0000
  H   H1743     1.0  0.20092  0.64126  0.78019  1.0000
  S   S390      1.0  0.23032  0.85376  0.86539  1.0000
  C   C1468     1.0  0.12674  0.72463  0.80304  1.0000
  S   S391      1.0  0.20806  0.87486  0.89682  1.0000
  H   H1744     1.0  0.20694  0.95240  0.96766  1.0000
  H   H1745     1.0  0.19255  0.83119  0.94018  1.0000
  H   H1746     1.0  0.04343  0.69046  0.80099  1.0000
  C   C1469     1.0  0.23177  0.90602  0.81737  1.0000
  N   N101      1.0  0.19729  0.81414  0.95832  1.0000
  H   H1747     1.0  0.14899  0.80564  0.94796  1.0000
  H   H1748     1.0  0.11822  0.75776  0.80825  1.0000
  C   C1470     1.0  0.11546  0.70042  0.78906  1.0000
  H   H1749     1.0  0.14813  0.78217  0.96445  1.0000
  C   C1471     1.0  0.19883  0.67642  0.77786  1.0000
  C   C1472     1.0  0.16400  0.77151  0.97647  1.0000
  H   H1750     1.0  0.20077  0.97141  0.80724  1.0000
  C   C1473     1.0  0.19248  0.79605  0.80363  1.0000
  C   C1474     1.0  0.15327  0.78386  0.93524  1.0000
  H   H1751     1.0  0.19824  0.81371  0.93644  1.0000
  H   H1752     1.0  0.18699  0.66103  0.79217  1.0000
  H   H1753     1.0  0.03493  0.69336  0.81872  1.0000
  H   H1754     1.0  0.15647  0.80827  0.81478  1.0000
  C   C1475     1.0  0.16789  0.80692  0.81287  1.0000
  H   H1755     1.0  0.18381  0.79602  0.92380  1.0000
  H   H1756     1.0  0.02825  0.73316  0.80785  1.0000
  H   H1757     1.0  0.21205  0.89028  0.82227  1.0000
  C   C1476     1.0  0.15061  0.71169  0.80544  1.0000
  C   C1477     1.0  0.10526  0.97087  0.78124  1.0000
  Fe  Fe193     1.0  0.19778  0.92166  0.79161  1.0000
  H   H1758     1.0  0.08482  0.82377  0.79819  1.0000
  H   H1759     1.0  0.11877  0.72777  0.79667  1.0000
  C   C1478     1.0  0.19559  0.66289  0.78292  1.0000
  Fe  Fe194     1.0  0.19153  0.71244  0.77917  1.0000
  C   C1479     1.0  0.21312  0.88874  0.94857  1.0000
  C   C1480     1.0  0.21235  0.85883  0.80854  1.0000
  H   H1760     1.0  0.14153  0.87013  0.96910  1.0000
  H   H1761     1.0  0.17608  0.76922  0.81688  1.0000
  C   C1481     1.0  0.22137  0.81685  0.86441  1.0000
  S   S392      1.0  0.12570  0.84434  0.97702  1.0000
  H   H1762     1.0  0.18043  0.80446  0.95882  1.0000
  H   H1763     1.0  0.05206  0.69764  0.80995  1.0000
  H   H1764     1.0  0.22005  0.79858  0.94062  1.0000
  C   C1482     1.0  0.01917  0.70501  0.79042  1.0000
  H   H1765     1.0  0.21982  0.66709  0.79684  1.0000
  C   C1483     1.0  0.18220  0.81281  0.96310  1.0000
  C   C1484     1.0  0.20820  0.85762  0.82341  1.0000
  C   C1485     1.0  0.08831  0.84338  0.78390  1.0000
  C   C1486     1.0  0.20818  0.84425  0.83267  1.0000
  C   C1487     1.0  0.17598  0.78988  0.92408  1.0000
  H   H1766     1.0  0.23509  0.77535  0.94804  1.0000
  H   H1767     1.0  0.23350  0.72280  0.81525  1.0000
  C   C1488     1.0  0.23128  0.83751  0.86102  1.0000
  H   H1768     1.0  0.23151  0.76246  0.97355  1.0000
  Fe  Fe195     1.0  0.20800  0.73371  0.77940  1.0000
  Fe  Fe196     1.0  0.06101  0.77061  0.78481  1.0000
  C   C1489     1.0  0.17957  0.77207  0.80497  1.0000
  C   C1490     1.0  0.22259  0.92725  0.97565  1.0000
  H   H1769     1.0  0.21697  0.87839  0.83844  1.0000
  H   H1770     1.0  0.19914  0.85597  0.78387  1.0000
  C   C1491     1.0  0.05462  0.81766  0.77971  1.0000
  H   H1771     1.0  0.04572  0.82720  0.78076  1.0000
  H   H1772     1.0  0.15950  0.91212  0.77923  1.0000
  H   H1773     1.0  0.09408  0.96958  0.78581  1.0000
  C   C1492     1.0  0.23216  0.81218  0.85319  1.0000
  H   H1774     1.0  0.23328  0.86343  0.78419  1.0000
  H   H1775     1.0  0.22587  0.76874  0.81183  1.0000
  H   H1776     1.0  0.20853  0.86976  0.78096  1.0000
  H   H1777     1.0  0.22587  0.91350  0.82461  1.0000
  H   H1778     1.0  0.19263  0.83516  0.96270  1.0000
  C   C1493     1.0  0.20515  0.79228  0.97668  1.0000
  C   C1494     1.0  0.23507  0.77889  0.78124  1.0000
  C   C1495     1.0  0.21296  0.95210  0.97565  1.0000
  S   S393      1.0  0.14645  0.81264  0.97566  1.0000
  H   H1779     1.0  0.00551  0.69971  0.78023  1.0000
  N   N102      1.0  0.23239  0.89081  0.82503  1.0000
  N   N103      1.0  0.33837  0.32232  0.14480  1.0000
  H   H1780     1.0  0.43521  0.36229  0.13300  1.0000
  Fe  Fe197     1.0  0.30440  0.16677  0.15640  1.0000
  C   C1496     1.0  0.28824  0.24242  0.10744  1.0000
  S   S394      1.0  0.30738  0.18650  0.13944  1.0000
  H   H1781     1.0  0.33598  0.18247  0.13993  1.0000
  C   C1497     1.0  0.34340  0.31568  0.13214  1.0000
  C   C1498     1.0  0.25208  0.36759  0.08614  1.0000
  H   H1782     1.0  0.24107  0.99914  0.10829  1.0000
  S   S395      1.0  0.28559  0.15643  0.16331  1.0000
  H   H1783     1.0  0.23673  0.07942  0.16592  1.0000
  Fe  Fe198     1.0  0.24925  0.06704  0.10736  1.0000
  H   H1784     1.0  0.24399  0.37404  0.08023  1.0000
  Fe  Fe199     1.0  0.24906  0.09264  0.11976  1.0000
  H   H1785     1.0  0.25489  0.38557  0.09215  1.0000
  S   S396      1.0  0.24876  0.10289  0.13785  1.0000
  C   C1499     1.0  0.25828  0.05469  0.14734  1.0000
  Fe  Fe200     1.0  0.25644  0.09457  0.08733  1.0000
  S   S397      1.0  0.26772  0.10828  0.06766  1.0000
  H   H1786     1.0  0.34486  0.34166  0.13152  1.0000
  S   S398      1.0  0.26600  0.07927  0.10554  1.0000
  H   H1787     1.0  0.32285  0.20734  0.13677  1.0000
  Fe  Fe201     1.0  0.40386  0.31861  0.16822  1.0000
  S   S399      1.0  0.45358  0.32914  0.16041  1.0000
  C   C1500     1.0  0.24606  0.24150  0.02688  1.0000
  H   H1788     1.0  0.35159  0.19371  0.10814  1.0000
  S   S400      1.0  0.39503  0.30008  0.16722  1.0000
  Fe  Fe202     1.0  0.40049  0.35076  0.16561  1.0000
  S   S401      1.0  0.38979  0.37256  0.15431  1.0000
  C   C1501     1.0  0.29319  0.13959  0.01367  1.0000
  S   S402      1.0  0.41513  0.33523  0.15227  1.0000
  H   H1789     1.0  0.34695  0.22615  0.10641  1.0000
  Fe  Fe203     1.0  0.27245  0.21289  0.08017  1.0000
  S   S403      1.0  0.29093  0.19653  0.07181  1.0000
  S   S404      1.0  0.26048  0.20768  0.10293  1.0000
  Fe  Fe204     1.0  0.27632  0.23451  0.05220  1.0000
  S   S405      1.0  0.29506  0.21979  0.04135  1.0000
  S   S406      1.0  0.26736  0.25688  0.04130  1.0000
  Fe  Fe205     1.0  0.28190  0.20307  0.05207  1.0000
  S   S407      1.0  0.27880  0.18446  0.04528  1.0000
  Fe  Fe206     1.0  0.30205  0.21476  0.06224  1.0000
  S   S408      1.0  0.32485  0.21213  0.06352  1.0000
  S   S409      1.0  0.26258  0.21834  0.06127  1.0000
  S   S410      1.0  0.28421  0.23061  0.07218  1.0000
  Fe  Fe207     1.0  0.24500  0.17206  0.98916  1.0000
  H   H1790     1.0  0.25421  0.02871  0.06915  1.0000
  H   H1791     1.0  0.26872  0.12082  0.10198  1.0000
  C   C1502     1.0  0.35100  0.19643  0.13416  1.0000
  C   C1503     1.0  0.42102  0.38422  0.16481  1.0000
  C   C1504     1.0  0.47856  0.33264  0.16413  1.0000
  C   C1505     1.0  0.27992  0.00767  0.10883  1.0000
  Fe  Fe208     1.0  0.34657  0.25021  0.13415  1.0000
  S   S411      1.0  0.36455  0.25444  0.11530  1.0000
  S   S412      1.0  0.35015  0.22933  0.14988  1.0000
  Fe  Fe209     1.0  0.32653  0.27709  0.12338  1.0000
  S   S413      1.0  0.34271  0.28363  0.10359  1.0000
  S   S414      1.0  0.30421  0.28973  0.12836  1.0000
  Fe  Fe210     1.0  0.34766  0.26049  0.10243  1.0000
  S   S415      1.0  0.35180  0.25289  0.08192  1.0000
  Fe  Fe211     1.0  0.35781  0.27702  0.11860  1.0000
  S   S416      1.0  0.37265  0.29145  0.11673  1.0000
  S   S417      1.0  0.33030  0.25455  0.12113  1.0000
  S   S418      1.0  0.34104  0.27220  0.13852  1.0000
  N   N104      1.0  0.38624  0.23785  0.17001  1.0000
  C   C1506     1.0  0.43549  0.37833  0.15901  1.0000
  H   H1792     1.0  0.45865  0.35897  0.14709  1.0000
  Fe  Fe212     1.0  0.42947  0.33107  0.16769  1.0000
  S   S419      1.0  0.30724  0.43912  0.15628  1.0000
  H   H1793     1.0  0.27598  0.32254  0.11770  1.0000
  H   H1794     1.0  0.26895  0.05237  0.14076  1.0000
  H   H1795     1.0  0.33998  0.26065  0.02790  1.0000
  H   H1796     1.0  0.28063  0.01805  0.10969  1.0000
  S   S420      1.0  0.33540  0.45268  0.16627  1.0000
  H   H1797     1.0  0.33873  0.37618  0.12732  1.0000
  Fe  Fe213     1.0  0.28026  0.36276  0.13592  1.0000
  S   S421      1.0  0.26710  0.38523  0.13473  1.0000
  S   S422      1.0  0.30065  0.35535  0.12082  1.0000
  Fe  Fe214     1.0  0.26140  0.35049  0.16328  1.0000
  C   C1507     1.0  0.33542  0.33810  0.13928  1.0000
  Fe  Fe215     1.0  0.24851  0.37442  0.14099  1.0000
  C   C1508     1.0  0.24760  0.01269  0.08771  1.0000
  Fe  Fe216     1.0  0.26618  0.38055  0.15844  1.0000
  H   H1798     1.0  0.24866  0.25224  0.02206  1.0000
  S   S423      1.0  0.26177  0.35247  0.14019  1.0000
  S   S424      1.0  0.28090  0.35897  0.15893  1.0000
  C   C1509     1.0  0.26516  0.17562  0.03018  1.0000
  H   H1799     1.0  0.36836  0.16766  0.16402  1.0000
  H   H1800     1.0  0.24928  0.23740  0.03738  1.0000
  C   C1510     1.0  0.29642  0.42649  0.16101  1.0000
  C   C1511     1.0  0.29434  0.42129  0.15017  1.0000
  C   C1512     1.0  0.28586  0.41116  0.15356  1.0000
  C   C1513     1.0  0.27938  0.40617  0.16785  1.0000
  C   C1514     1.0  0.32584  0.31702  0.15457  1.0000
  H   H1801     1.0  0.32653  0.34171  0.13350  1.0000
  H   H1802     1.0  0.29933  0.42512  0.13909  1.0000
  H   H1803     1.0  0.28432  0.40726  0.14512  1.0000
  C   C1515     1.0  0.25122  0.02598  0.08076  1.0000
  H   H1804     1.0  0.29013  0.32384  0.10172  1.0000
  C   C1516     1.0  0.30443  0.30757  0.12678  1.0000
  C   C1517     1.0  0.31321  0.31474  0.11498  1.0000
  C   C1518     1.0  0.31229  0.32943  0.11321  1.0000
  C   C1519     1.0  0.30283  0.33681  0.12341  1.0000
  C   C1520     1.0  0.29455  0.32944  0.13546  1.0000
  C   C1521     1.0  0.29516  0.31492  0.13703  1.0000
  H   H1805     1.0  0.32027  0.30915  0.10691  1.0000
  H   H1806     1.0  0.31871  0.33510  0.10385  1.0000
  H   H1807     1.0  0.28771  0.33484  0.14372  1.0000
  H   H1808     1.0  0.28848  0.30939  0.14626  1.0000
  C   C1522     1.0  0.26473  0.26889  0.05226  1.0000
  C   C1523     1.0  0.25277  0.28022  0.05270  1.0000
  C   C1524     1.0  0.25009  0.28928  0.06213  1.0000
  C   C1525     1.0  0.25947  0.28713  0.07102  1.0000
  C   C1526     1.0  0.27170  0.27611  0.07024  1.0000
  C   C1527     1.0  0.27434  0.26704  0.06083  1.0000
  H   H1809     1.0  0.24541  0.28191  0.04593  1.0000
  H   H1810     1.0  0.23826  0.17593  0.05098  1.0000
  H   H1811     1.0  0.27903  0.27443  0.07703  1.0000
  H   H1812     1.0  0.28397  0.25881  0.06007  1.0000
  C   C1528     1.0  0.27100  0.18666  0.03071  1.0000
  C   C1529     1.0  0.26072  0.18806  0.00654  1.0000
  C   C1530     1.0  0.26630  0.19926  0.00720  1.0000
  C   C1531     1.0  0.27127  0.19866  0.01932  1.0000
  H   H1813     1.0  0.26711  0.20827  0.99814  1.0000
  H   H1814     1.0  0.27588  0.20716  0.01957  1.0000
  C   C1532     1.0  0.33142  0.22277  0.07064  1.0000
  C   C1533     1.0  0.32263  0.23277  0.07873  1.0000
  C   C1534     1.0  0.32872  0.24158  0.08317  1.0000
  C   C1535     1.0  0.34354  0.24066  0.07913  1.0000
  C   C1536     1.0  0.35215  0.23056  0.07122  1.0000
  C   C1537     1.0  0.34618  0.22156  0.06723  1.0000
  H   H1815     1.0  0.31120  0.23391  0.08127  1.0000
  H   H1816     1.0  0.32195  0.24957  0.08901  1.0000
  H   H1817     1.0  0.36355  0.22983  0.06793  1.0000
  H   H1818     1.0  0.35306  0.21393  0.06096  1.0000
  C   C1538     1.0  0.38196  0.38595  0.16431  1.0000
  C   C1539     1.0  0.37536  0.39960  0.15756  1.0000
  C   C1540     1.0  0.36862  0.41036  0.16539  1.0000
  Fe  Fe217     1.0  0.31489  0.44489  0.17292  1.0000
  H   H1819     1.0  0.24025  0.32810  0.15393  1.0000
  C   C1541     1.0  0.24385  0.24143  0.11963  1.0000
  H   H1820     1.0  0.37545  0.40187  0.14625  1.0000
  H   H1821     1.0  0.36369  0.42090  0.16008  1.0000
  C   C1542     1.0  0.24823  0.03198  0.10370  1.0000
  H   H1822     1.0  0.25780  0.27614  0.11045  1.0000
  C   C1543     1.0  0.38851  0.29822  0.15312  1.0000
  C   C1544     1.0  0.39083  0.30698  0.13935  1.0000
  C   C1545     1.0  0.38595  0.30474  0.12833  1.0000
  C   C1546     1.0  0.37852  0.29387  0.13099  1.0000
  C   C1547     1.0  0.37590  0.28533  0.14484  1.0000
  C   C1548     1.0  0.38098  0.28741  0.15581  1.0000
  H   H1823     1.0  0.39667  0.31528  0.13709  1.0000
  H   H1824     1.0  0.38804  0.31141  0.11765  1.0000
  H   H1825     1.0  0.37006  0.27708  0.14702  1.0000
  H   H1826     1.0  0.24045  0.27536  0.09964  1.0000
  C   C1549     1.0  0.28990  0.42152  0.17529  1.0000
  H   H1827     1.0  0.24010  0.41755  0.16586  1.0000
  H   H1828     1.0  0.41282  0.38646  0.15885  1.0000
  Fe  Fe218     1.0  0.32148  0.14449  0.17633  1.0000
  H   H1829     1.0  0.39595  0.25583  0.15896  1.0000
  H   H1830     1.0  0.44097  0.39736  0.13454  1.0000
  C   C1550     1.0  0.43204  0.36506  0.14370  1.0000
  H   H1831     1.0  0.26680  0.32820  0.07670  1.0000
  H   H1832     1.0  0.32939  0.25144  0.16325  1.0000
  H   H1833     1.0  0.33268  0.34393  0.14806  1.0000
  C   C1551     1.0  0.26187  0.11141  0.05171  1.0000
  C   C1552     1.0  0.26082  0.12502  0.04250  1.0000
  C   C1553     1.0  0.25723  0.12749  0.02921  1.0000
  C   C1554     1.0  0.25497  0.11625  0.02490  1.0000
  C   C1555     1.0  0.25592  0.10266  0.03415  1.0000
  C   C1556     1.0  0.25917  0.10029  0.04761  1.0000
  H   H1834     1.0  0.26299  0.13365  0.04556  1.0000
  H   H1835     1.0  0.25660  0.13798  0.02218  1.0000
  C   C1557     1.0  0.29566  0.14836  0.03343  1.0000
  H   H1836     1.0  0.26009  0.08972  0.05458  1.0000
  C   C1558     1.0  0.29402  0.19267  0.12976  1.0000
  C   C1559     1.0  0.29742  0.19951  0.11534  1.0000
  C   C1560     1.0  0.28710  0.20396  0.10714  1.0000
  C   C1561     1.0  0.27321  0.20203  0.11342  1.0000
  C   C1562     1.0  0.26969  0.19545  0.12795  1.0000
  C   C1563     1.0  0.28016  0.19064  0.13612  1.0000
  H   H1837     1.0  0.30815  0.20105  0.11038  1.0000
  H   H1838     1.0  0.28999  0.20890  0.09594  1.0000
  H   H1839     1.0  0.25894  0.19397  0.13285  1.0000
  H   H1840     1.0  0.27745  0.18563  0.14737  1.0000
  C   C1564     1.0  0.28588  0.11532  0.14705  1.0000
  C   C1565     1.0  0.27174  0.12229  0.15161  1.0000
  C   C1566     1.0  0.26051  0.11849  0.14856  1.0000
  C   C1567     1.0  0.26330  0.10799  0.14057  1.0000
  C   C1568     1.0  0.27747  0.10135  0.13565  1.0000
  C   C1569     1.0  0.28865  0.10491  0.13898  1.0000
  H   H1841     1.0  0.26946  0.13048  0.15762  1.0000
  H   H1842     1.0  0.24959  0.12376  0.15235  1.0000
  H   H1843     1.0  0.27981  0.09322  0.12953  1.0000
  H   H1844     1.0  0.29956  0.09948  0.13534  1.0000
  C   C1570     1.0  0.34150  0.20055  0.11293  1.0000
  H   H1845     1.0  0.25602  0.23875  0.09266  1.0000
  H   H1846     1.0  0.28311  0.16507  0.99599  1.0000
  H   H1847     1.0  0.29216  0.11684  0.02013  1.0000
  C   C1571     1.0  0.46374  0.33426  0.16944  1.0000
  C   C1572     1.0  0.25816  0.37410  0.09287  1.0000
  H   H1848     1.0  0.37829  0.18904  0.15158  1.0000
  C   C1573     1.0  0.32228  0.27716  0.06298  1.0000
  H   H1849     1.0  0.40307  0.24048  0.15095  1.0000
  C   C1574     1.0  0.34171  0.22983  0.16775  1.0000
  S   S425      1.0  0.25613  0.18844  0.99048  1.0000
  H   H1850     1.0  0.29412  0.11332  0.04461  1.0000
  C   C1575     1.0  0.25134  0.03566  0.08868  1.0000
  H   H1851     1.0  0.33471  0.31771  0.12645  1.0000
  H   H1852     1.0  0.25442  0.04572  0.08315  1.0000
  N   N105      1.0  0.33404  0.39150  0.16904  1.0000
  H   H1853     1.0  0.27529  0.15711  0.06746  1.0000
  Fe  Fe219     1.0  0.24217  0.14127  0.99677  1.0000
  H   H1854     1.0  0.27789  0.31241  0.08463  1.0000
  H   H1855     1.0  0.30883  0.15439  0.99041  1.0000
  H   H1856     1.0  0.27892  0.12751  0.00190  1.0000
  C   C1576     1.0  0.30915  0.37942  0.15412  1.0000
  C   C1577     1.0  0.27556  0.98394  0.12007  1.0000
  H   H1857     1.0  0.33350  0.19378  0.11796  1.0000
  H   H1858     1.0  0.26497  0.16627  0.03892  1.0000
  H   H1859     1.0  0.33267  0.25748  0.01495  1.0000
  C   C1578     1.0  0.25978  0.17644  0.01829  1.0000
  H   H1860     1.0  0.25531  0.16785  0.01810  1.0000
  H   H1861     1.0  0.34679  0.32321  0.16212  1.0000
  H   H1862     1.0  0.25084  0.32618  0.11519  1.0000
  H   H1863     1.0  0.43435  0.35493  0.15174  1.0000
  H   H1864     1.0  0.24075  0.29795  0.06244  1.0000
  H   H1865     1.0  0.30387  0.27635  0.01995  1.0000
  H   H1866     1.0  0.25803  0.31086  0.10705  1.0000
  H   H1867     1.0  0.24792  0.32673  0.09801  1.0000
  C   C1579     1.0  0.31009  0.28802  0.06467  1.0000
  C   C1580     1.0  0.24879  0.04601  0.14927  1.0000
  C   C1581     1.0  0.45525  0.36946  0.13986  1.0000
  H   H1868     1.0  0.33728  0.20863  0.10394  1.0000
  S   S426      1.0  0.25560  0.29780  0.08353  1.0000
  C   C1582     1.0  0.25590  0.32276  0.10483  1.0000
  H   H1869     1.0  0.31378  0.37318  0.13400  1.0000
  H   H1870     1.0  0.25053  0.34818  0.08242  1.0000
  C   C1583     1.0  0.30626  0.14475  0.98910  1.0000
  S   S427      1.0  0.26857  0.39350  0.17276  1.0000
  H   H1871     1.0  0.25418  0.09393  0.03088  1.0000
  C   C1584     1.0  0.34538  0.18416  0.14187  1.0000
  H   H1872     1.0  0.45658  0.37089  0.16451  1.0000
  H   H1873     1.0  0.37904  0.28062  0.16644  1.0000
  C   C1585     1.0  0.25397  0.06659  0.15347  1.0000
  N   N106      1.0  0.24861  0.25293  0.10750  1.0000
  C   C1586     1.0  0.25586  0.35274  0.08753  1.0000
  H   H1874     1.0  0.29644  0.15711  0.03745  1.0000
  H   H1875     1.0  0.27322  0.23217  0.10534  1.0000
  C   C1587     1.0  0.23650  0.15391  0.05828  1.0000
  S   S428      1.0  0.32061  0.14659  0.15347  1.0000
  N   N107      1.0  0.28729  0.15490  0.11065  1.0000
  C   C1588     1.0  0.29971  0.14418  0.11530  1.0000
  C   C1589     1.0  0.29201  0.16854  0.10357  1.0000
  C   C1590     1.0  0.27596  0.15747  0.12354  1.0000
  C   C1591     1.0  0.28182  0.14949  0.10127  1.0000
  C   C1592     1.0  0.28091  0.15686  0.08694  1.0000
  C   C1593     1.0  0.27716  0.13639  0.10644  1.0000
  C   C1594     1.0  0.27586  0.15128  0.07837  1.0000
  C   C1595     1.0  0.27215  0.13090  0.09778  1.0000
  C   C1596     1.0  0.27155  0.13830  0.08375  1.0000
  H   H1876     1.0  0.30417  0.14792  0.12233  1.0000
  H   H1877     1.0  0.29694  0.13386  0.12165  1.0000
  H   H1878     1.0  0.30841  0.14181  0.10590  1.0000
  H   H1879     1.0  0.30074  0.16743  0.09387  1.0000
  H   H1880     1.0  0.29623  0.17219  0.11085  1.0000
  H   H1881     1.0  0.28298  0.17733  0.10047  1.0000
  H   H1882     1.0  0.27253  0.14752  0.13013  1.0000
  H   H1883     1.0  0.27963  0.16179  0.13073  1.0000
  H   H1884     1.0  0.26636  0.16536  0.12046  1.0000
  H   H1885     1.0  0.28400  0.16698  0.08204  1.0000
  H   H1886     1.0  0.27739  0.13026  0.11725  1.0000
  H   H1887     1.0  0.43959  0.38739  0.12261  1.0000
  C   C1597     1.0  0.29330  0.12594  0.02321  1.0000
  H   H1888     1.0  0.35249  0.31983  0.12425  1.0000
  H   H1889     1.0  0.28213  0.30869  0.10791  1.0000
  H   H1890     1.0  0.33005  0.27513  0.06945  1.0000
  H   H1891     1.0  0.30836  0.29437  0.07249  1.0000
  H   H1892     1.0  0.24208  0.01572  0.12224  1.0000
  N   N108      1.0  0.26912  0.32815  0.09773  1.0000
  C   C1598     1.0  0.27979  0.32053  0.10664  1.0000
  C   C1599     1.0  0.26585  0.34392  0.09582  1.0000
  H   H1893     1.0  0.27569  0.99928  0.13159  1.0000
  C   C1600     1.0  0.27480  0.32425  0.08353  1.0000
  H   H1894     1.0  0.28435  0.32874  0.07754  1.0000
  C   C1601     1.0  0.27210  0.35096  0.10229  1.0000
  H   H1895     1.0  0.33413  0.26041  0.05229  1.0000
  C   C1602     1.0  0.32453  0.26877  0.05307  1.0000
  C   C1603     1.0  0.33739  0.40558  0.16112  1.0000
  H   H1896     1.0  0.28155  0.27642  0.11168  1.0000
  H   H1897     1.0  0.27986  0.34528  0.10873  1.0000
  C   C1604     1.0  0.26825  0.36582  0.10080  1.0000
  C   C1605     1.0  0.30017  0.29066  0.05634  1.0000
  S   S429      1.0  0.25003  0.04291  0.11419  1.0000
  H   H1898     1.0  0.42028  0.36911  0.14589  1.0000
  C   C1606     1.0  0.27704  0.99712  0.12115  1.0000
  H   H1899     1.0  0.29057  0.29902  0.05779  1.0000
  H   H1900     1.0  0.32962  0.27541  0.01744  1.0000
  C   C1607     1.0  0.23764  0.26637  0.10868  1.0000
  C   C1608     1.0  0.24438  0.01878  0.11065  1.0000
  C   C1609     1.0  0.31457  0.27105  0.04450  1.0000
  C   C1610     1.0  0.30233  0.28239  0.04633  1.0000
  C   C1611     1.0  0.33197  0.37818  0.13749  1.0000
  S   S430      1.0  0.25106  0.11881  0.00803  1.0000
  H   H1901     1.0  0.27301  0.37092  0.10603  1.0000
  C   C1612     1.0  0.33043  0.26397  0.02312  1.0000
  H   H1902     1.0  0.39119  0.21895  0.16138  1.0000
  C   C1613     1.0  0.32648  0.30207  0.15948  1.0000
  H   H1903     1.0  0.25278  0.03719  0.14390  1.0000
  N   N109      1.0  0.31721  0.26195  0.03412  1.0000
  H   H1904     1.0  0.28778  0.13273  0.98365  1.0000
  H   H1905     1.0  0.29777  0.12033  0.99598  1.0000
  C   C1614     1.0  0.29549  0.13493  0.04254  1.0000
  C   C1615     1.0  0.35228  0.21836  0.11479  1.0000
  H   H1906     1.0  0.29409  0.28493  0.04040  1.0000
  C   C1616     1.0  0.30548  0.26520  0.02650  1.0000
  H   H1907     1.0  0.31132  0.33783  0.15668  1.0000
  C   C1617     1.0  0.31795  0.37649  0.14122  1.0000
  H   H1908     1.0  0.29525  0.26364  0.03416  1.0000
  H   H1909     1.0  0.30765  0.25800  0.01901  1.0000
  H   H1910     1.0  0.32899  0.24270  0.04586  1.0000
  C   C1618     1.0  0.31907  0.24667  0.04171  1.0000
  H   H1911     1.0  0.34734  0.30392  0.13500  1.0000
  H   H1912     1.0  0.36307  0.21339  0.10920  1.0000
  S   S431      1.0  0.24065  0.10840  0.10147  1.0000
  H   H1913     1.0  0.46178  0.37689  0.13972  1.0000
  H   H1914     1.0  0.34030  0.41087  0.16803  1.0000
  H   H1915     1.0  0.31987  0.23948  0.03461  1.0000
  S   S432      1.0  0.24914  0.00023  0.07726  1.0000
  H   H1916     1.0  0.30998  0.24489  0.05102  1.0000
  H   H1917     1.0  0.32804  0.41303  0.15713  1.0000
  H   H1918     1.0  0.36791  0.20703  0.13309  1.0000
  H   H1919     1.0  0.34643  0.40471  0.15166  1.0000
  H   H1920     1.0  0.30123  0.25514  0.10988  1.0000
  C   C1619     1.0  0.38187  0.22659  0.16622  1.0000
  N   N110      1.0  0.43974  0.37548  0.14437  1.0000
  H   H1921     1.0  0.25299  0.25748  0.08443  1.0000
  H   H1922     1.0  0.33608  0.29436  0.15634  1.0000
  C   C1620     1.0  0.26301  0.25395  0.10782  1.0000
  C   C1621     1.0  0.31424  0.38407  0.16335  1.0000
  H   H1923     1.0  0.31523  0.28535  0.17156  1.0000
  S   S433      1.0  0.24119  0.08145  0.08809  1.0000
  H   H1924     1.0  0.23830  0.24890  0.09308  1.0000
  C   C1622     1.0  0.39312  0.24681  0.15663  1.0000
  N   N111      1.0  0.34392  0.20738  0.12328  1.0000
  H   H1925     1.0  0.25081  0.23069  0.11881  1.0000
  C   C1623     1.0  0.31468  0.29679  0.16838  1.0000
  H   H1926     1.0  0.23789  0.35489  0.12353  1.0000
  C   C1624     1.0  0.43599  0.38898  0.13382  1.0000
  H   H1927     1.0  0.34800  0.38442  0.14309  1.0000
  C   C1625     1.0  0.24384  0.00930  0.10274  1.0000
  H   H1928     1.0  0.26774  0.13395  0.07706  1.0000
  H   H1929     1.0  0.28068  0.99096  0.08345  1.0000
  S   S434      1.0  0.30046  0.11901  0.15123  1.0000
  H   H1930     1.0  0.37495  0.23109  0.15831  1.0000
  C   C1626     1.0  0.29467  0.15067  0.01918  1.0000
  H   H1931     1.0  0.42427  0.39335  0.13555  1.0000
  H   H1932     1.0  0.35602  0.38020  0.16308  1.0000
  H   H1933     1.0  0.26128  0.07346  0.15169  1.0000
  C   C1627     1.0  0.27994  0.99195  0.09418  1.0000
  H   H1934     1.0  0.29137  0.32812  0.17253  1.0000
  Fe  Fe220     1.0  0.30188  0.13588  0.16209  1.0000
  H   H1935     1.0  0.29688  0.23304  0.10671  1.0000
  C   C1628     1.0  0.29447  0.12372  0.03740  1.0000
  H   H1936     1.0  0.38611  0.25156  0.14880  1.0000
  C   C1629     1.0  0.27957  0.26680  0.11028  1.0000
  C   C1630     1.0  0.33718  0.38288  0.14662  1.0000
  H   H1937     1.0  0.36242  0.25369  0.15990  1.0000
  C   C1631     1.0  0.32995  0.21485  0.13066  1.0000
  C   C1632     1.0  0.35006  0.31841  0.15254  1.0000
  H   H1938     1.0  0.30665  0.38649  0.17295  1.0000
  H   H1939     1.0  0.32418  0.22319  0.12292  1.0000
  H   H1940     1.0  0.28021  0.15724  0.98353  1.0000
  H   H1941     1.0  0.29811  0.37858  0.15683  1.0000
  N   N112      1.0  0.29239  0.14223  0.99846  1.0000
  C   C1633     1.0  0.29070  0.25481  0.10923  1.0000
  H   H1942     1.0  0.23718  0.25940  0.04301  1.0000
  C   C1634     1.0  0.32846  0.38596  0.15986  1.0000
  H   H1943     1.0  0.45810  0.36732  0.12889  1.0000
  H   H1944     1.0  0.35335  0.30663  0.15636  1.0000
  C   C1635     1.0  0.35165  0.17388  0.15243  1.0000
  S   S435      1.0  0.24641  0.37163  0.16473  1.0000
  H   H1945     1.0  0.31546  0.21759  0.16781  1.0000
  C   C1636     1.0  0.36356  0.17559  0.15579  1.0000
  C   C1637     1.0  0.24903  0.24937  0.09385  1.0000
  C   C1638     1.0  0.28139  0.00508  0.09540  1.0000
  H   H1946     1.0  0.24391  0.24339  0.13009  1.0000
  C   C1639     1.0  0.31290  0.32631  0.15976  1.0000
  H   H1947     1.0  0.28316  0.01351  0.08587  1.0000
  H   H1948     1.0  0.48363  0.32793  0.15488  1.0000
  H   H1949     1.0  0.34717  0.16457  0.15814  1.0000
  C   C1640     1.0  0.28110  0.15508  0.99488  1.0000
  C   C1641     1.0  0.28912  0.13014  0.99491  1.0000
  C   C1642     1.0  0.26589  0.26644  0.10962  1.0000
  H   H1950     1.0  0.27051  0.15375  0.00183  1.0000
  H   H1951     1.0  0.35979  0.32206  0.14554  1.0000
  C   C1643     1.0  0.27464  0.24200  0.10669  1.0000
  H   H1952     1.0  0.35343  0.22492  0.12159  1.0000
  C   C1644     1.0  0.36922  0.18761  0.14866  1.0000
  C   C1645     1.0  0.36312  0.19789  0.13797  1.0000
  H   H1953     1.0  0.25307  0.23426  0.01974  1.0000
  H   H1954     1.0  0.31510  0.13546  0.99165  1.0000
  H   H1955     1.0  0.33132  0.22015  0.13850  1.0000
  H   H1956     1.0  0.29499  0.16128  0.01258  1.0000
  H   H1957     1.0  0.29606  0.13320  0.05364  1.0000
  H   H1958     1.0  0.24518  0.15076  0.06381  1.0000
  C   C1646     1.0  0.30207  0.30620  0.17303  1.0000
  C   C1647     1.0  0.30126  0.32089  0.16890  1.0000
  C   C1648     1.0  0.34723  0.38143  0.17267  1.0000
  H   H1959     1.0  0.34130  0.26854  0.17201  1.0000
  H   H1960     1.0  0.27466  0.10042  0.17717  1.0000
  C   C1649     1.0  0.44538  0.37555  0.16782  1.0000
  C   C1650     1.0  0.24014  0.06989  0.16154  1.0000
  Fe  Fe221     1.0  0.23743  0.98203  0.08353  1.0000
  C   C1651     1.0  0.33226  0.24220  0.17151  1.0000
  C   C1652     1.0  0.36212  0.25453  0.17058  1.0000
  H   H1961     1.0  0.35201  0.20801  0.17557  1.0000
  H   H1962     1.0  0.23890  0.02045  0.15779  1.0000
  H   H1963     1.0  0.40662  0.22387  0.17283  1.0000
  H   H1964     1.0  0.37572  0.22027  0.17586  1.0000
  H   H1965     1.0  0.30628  0.14646  0.97753  1.0000
  C   C1653     1.0  0.34995  0.26308  0.17743  1.0000
  H   H1966     1.0  0.42657  0.25731  0.31515  1.0000
  N   N113      1.0  0.24496  0.34591  0.28506  1.0000
  H   H1967     1.0  0.39290  0.22325  0.18878  1.0000
  Fe  Fe222     1.0  0.34056  0.23374  0.35717  1.0000
  S   S436      1.0  0.36455  0.22732  0.35013  1.0000
  H   H1968     1.0  0.23966  0.20867  0.25390  1.0000
  C   C1654     1.0  0.29517  0.20599  0.34442  1.0000
  H   H1969     1.0  0.47644  0.29033  0.22561  1.0000
  H   H1970     1.0  0.36180  0.15108  0.23351  1.0000
  S   S437      1.0  0.32616  0.23722  0.34231  1.0000
  C   C1655     1.0  0.36484  0.14441  0.18884  1.0000
  Fe  Fe223     1.0  0.26159  0.19317  0.30749  1.0000
  S   S438      1.0  0.28080  0.19443  0.28952  1.0000
  C   C1656     1.0  0.42670  0.38430  0.18686  1.0000
  C   C1657     1.0  0.48226  0.29736  0.24786  1.0000
  S   S439      1.0  0.26679  0.18007  0.27223  1.0000
  H   H1971     1.0  0.37989  0.24292  0.19793  1.0000
  Fe  Fe224     1.0  0.27992  0.17249  0.28885  1.0000
  S   S440      1.0  0.29973  0.15536  0.28645  1.0000
  H   H1972     1.0  0.45154  0.26879  0.20915  1.0000
  S   S441      1.0  0.26171  0.17029  0.30806  1.0000
  C   C1658     1.0  0.25807  0.24693  0.37471  1.0000
  Fe  Fe225     1.0  0.45242  0.24611  0.28712  1.0000
  S   S442      1.0  0.44057  0.26899  0.28304  1.0000
  S   S443      1.0  0.47071  0.23846  0.29877  1.0000
  Fe  Fe226     1.0  0.43374  0.23695  0.27248  1.0000
  S   S444      1.0  0.42108  0.25935  0.26705  1.0000
  S   S445      1.0  0.42657  0.21847  0.26956  1.0000
  Fe  Fe227     1.0  0.44220  0.26571  0.26122  1.0000
  S   S446      1.0  0.45058  0.28127  0.24149  1.0000
  Fe  Fe228     1.0  0.42078  0.26012  0.28946  1.0000
  S   S447      1.0  0.40023  0.26957  0.30353  1.0000
  S   S448      1.0  0.45510  0.24314  0.26483  1.0000
  S   S449      1.0  0.43247  0.23738  0.29527  1.0000
  H   H1973     1.0  0.25172  0.45722  0.22892  1.0000
  Fe  Fe229     1.0  0.35737  0.19402  0.24650  1.0000
  S   S450      1.0  0.37929  0.18932  0.23256  1.0000
  S   S451      1.0  0.35383  0.18187  0.26935  1.0000
  Fe  Fe230     1.0  0.34557  0.21655  0.22311  1.0000
  S   S452      1.0  0.36666  0.21399  0.20747  1.0000
  Fe  Fe231     1.0  0.36752  0.19049  0.21581  1.0000
  S   S453      1.0  0.37508  0.17492  0.20101  1.0000
  Fe  Fe232     1.0  0.37607  0.21327  0.22571  1.0000
  S   S454      1.0  0.39180  0.22728  0.22190  1.0000
  S   S455      1.0  0.34593  0.19305  0.23049  1.0000
  S   S456      1.0  0.35474  0.21788  0.24069  1.0000
  Fe  Fe233     1.0  0.32413  0.46844  0.18061  1.0000
  S   S457      1.0  0.39899  0.32493  0.21740  1.0000
  C   C1659     1.0  0.24604  0.12529  0.30635  1.0000
  S   S458      1.0  0.29657  0.44444  0.22602  1.0000
  C   C1660     1.0  0.24998  0.09144  0.19332  1.0000
  Fe  Fe234     1.0  0.26549  0.20197  0.27502  1.0000
  C   C1661     1.0  0.28282  0.43652  0.22667  1.0000
  C   C1662     1.0  0.27964  0.43613  0.21398  1.0000
  C   C1663     1.0  0.26789  0.43079  0.21458  1.0000
  C   C1664     1.0  0.25938  0.42575  0.22787  1.0000
  C   C1665     1.0  0.26292  0.42565  0.24053  1.0000
  C   C1666     1.0  0.27456  0.43114  0.23994  1.0000
  H   H1974     1.0  0.28605  0.44019  0.20368  1.0000
  H   H1975     1.0  0.26531  0.43075  0.20474  1.0000
  H   H1976     1.0  0.25687  0.42117  0.25078  1.0000
  H   H1977     1.0  0.27720  0.43113  0.24976  1.0000
  C   C1667     1.0  0.36500  0.16573  0.19609  1.0000
  C   C1668     1.0  0.35048  0.17089  0.19569  1.0000
  C   C1669     1.0  0.34325  0.16278  0.19165  1.0000
  H   H1978     1.0  0.34497  0.18115  0.19829  1.0000
  H   H1979     1.0  0.33212  0.16667  0.19129  1.0000
  C   C1670     1.0  0.43642  0.29411  0.23514  1.0000
  C   C1671     1.0  0.43882  0.30250  0.22117  1.0000
  C   C1672     1.0  0.42737  0.31216  0.21574  1.0000
  C   C1673     1.0  0.41352  0.31349  0.22431  1.0000
  C   C1674     1.0  0.41121  0.30539  0.23840  1.0000
  C   C1675     1.0  0.42264  0.29569  0.24380  1.0000
  H   H1980     1.0  0.44945  0.30135  0.21443  1.0000
  H   H1981     1.0  0.42929  0.31861  0.20496  1.0000
  H   H1982     1.0  0.40055  0.30652  0.24510  1.0000
  H   H1983     1.0  0.42076  0.28950  0.25470  1.0000
  C   C1676     1.0  0.41696  0.22110  0.25622  1.0000
  C   C1677     1.0  0.41673  0.23313  0.24485  1.0000
  C   C1678     1.0  0.40919  0.23476  0.23428  1.0000
  C   C1679     1.0  0.40138  0.22469  0.23526  1.0000
  C   C1680     1.0  0.40150  0.21272  0.24671  1.0000
  C   C1681     1.0  0.40949  0.21081  0.25697  1.0000
  H   H1984     1.0  0.42270  0.24093  0.24401  1.0000
  H   H1985     1.0  0.40955  0.24378  0.22524  1.0000
  H   H1986     1.0  0.39571  0.20477  0.24747  1.0000
  H   H1987     1.0  0.40990  0.20130  0.26552  1.0000
  C   C1682     1.0  0.31435  0.16325  0.28218  1.0000
  C   C1683     1.0  0.31452  0.17640  0.27232  1.0000
  C   C1684     1.0  0.32663  0.18228  0.26836  1.0000
  C   C1685     1.0  0.33839  0.17512  0.27452  1.0000
  C   C1686     1.0  0.33803  0.16219  0.28464  1.0000
  C   C1687     1.0  0.32609  0.15615  0.28831  1.0000
  H   H1988     1.0  0.30544  0.18189  0.26756  1.0000
  H   H1989     1.0  0.32684  0.19237  0.26066  1.0000
  H   H1990     1.0  0.34710  0.15669  0.28944  1.0000
  H   H1991     1.0  0.32593  0.14603  0.29599  1.0000
  H   H1992     1.0  0.25397  0.15172  0.27784  1.0000
  H   H1993     1.0  0.25534  0.12895  0.30615  1.0000
  H   H1994     1.0  0.37470  0.27723  0.22870  1.0000
  H   H1995     1.0  0.29986  0.23464  0.18256  1.0000
  C   C1688     1.0  0.38578  0.21826  0.28715  1.0000
  N   N114      1.0  0.43285  0.24630  0.33513  1.0000
  C   C1689     1.0  0.30578  0.18471  0.23112  1.0000
  C   C1690     1.0  0.24098  0.25154  0.27669  1.0000
  H   H1996     1.0  0.44161  0.27763  0.18730  1.0000
  H   H1997     1.0  0.25576  0.13172  0.26668  1.0000
  C   C1691     1.0  0.37209  0.15256  0.19246  1.0000
  C   C1692     1.0  0.23806  0.39861  0.20485  1.0000
  H   H1998     1.0  0.35826  0.25701  0.20970  1.0000
  H   H1999     1.0  0.25830  0.10697  0.29775  1.0000
  C   C1693     1.0  0.28175  0.29884  0.34604  1.0000
  C   C1694     1.0  0.27576  0.31009  0.35325  1.0000
  C   C1695     1.0  0.28159  0.31085  0.36417  1.0000
  H   H2000     1.0  0.27749  0.29847  0.33734  1.0000
  H   H2001     1.0  0.26694  0.31842  0.35007  1.0000
  C   C1696     1.0  0.37411  0.23933  0.33718  1.0000
  C   C1697     1.0  0.38868  0.23439  0.33177  1.0000
  C   C1698     1.0  0.39660  0.24345  0.32108  1.0000
  C   C1699     1.0  0.39014  0.25768  0.31602  1.0000
  C   C1700     1.0  0.37558  0.26270  0.32155  1.0000
  C   C1701     1.0  0.36753  0.25350  0.33201  1.0000
  H   H2002     1.0  0.39386  0.22349  0.33589  1.0000
  H   H2003     1.0  0.40780  0.23954  0.31714  1.0000
  H   H2004     1.0  0.37053  0.27373  0.31773  1.0000
  H   H2005     1.0  0.35628  0.25740  0.33614  1.0000
  H   H2006     1.0  0.31424  0.14940  0.25807  1.0000
  C   C1702     1.0  0.28303  0.21719  0.34439  1.0000
  C   C1703     1.0  0.27195  0.21680  0.33840  1.0000
  H   H2007     1.0  0.24716  0.39258  0.19793  1.0000
  S   S459      1.0  0.30056  0.27411  0.34096  1.0000
  C   C1704     1.0  0.41818  0.24731  0.34413  1.0000
  C   C1705     1.0  0.45734  0.34036  0.18141  1.0000
  H   H2008     1.0  0.38410  0.26793  0.34637  1.0000
  S   S460      1.0  0.34209  0.13809  0.18409  1.0000
  H   H2009     1.0  0.44018  0.22315  0.34023  1.0000
  H   H2010     1.0  0.24924  0.47450  0.21717  1.0000
  C   C1706     1.0  0.24389  0.34664  0.30002  1.0000
  H   H2011     1.0  0.38694  0.37264  0.18421  1.0000
  H   H2012     1.0  0.48244  0.26101  0.24201  1.0000
  C   C1707     1.0  0.33961  0.21825  0.19288  1.0000
  S   S461      1.0  0.25881  0.20528  0.32480  1.0000
  C   C1708     1.0  0.26974  0.26398  0.35646  1.0000
  C   C1709     1.0  0.25208  0.15894  0.19178  1.0000
  C   C1710     1.0  0.47488  0.26482  0.29892  1.0000
  H   H2013     1.0  0.26213  0.35722  0.27585  1.0000
  H   H2014     1.0  0.26875  0.27388  0.34782  1.0000
  H   H2015     1.0  0.28199  0.22586  0.34938  1.0000
  H   H2016     1.0  0.46506  0.26958  0.29525  1.0000
  H   H2017     1.0  0.30562  0.18603  0.33794  1.0000
  H   H2018     1.0  0.28860  0.27815  0.31588  1.0000
  C   C1711     1.0  0.34057  0.19983  0.31495  1.0000
  H   H2019     1.0  0.29746  0.30066  0.37675  1.0000
  H   H2020     1.0  0.30029  0.20536  0.24465  1.0000
  H   H2021     1.0  0.43033  0.23000  0.32631  1.0000
  C   C1712     1.0  0.37352  0.24693  0.17750  1.0000
  H   H2022     1.0  0.45361  0.24705  0.33681  1.0000
  H   H2023     1.0  0.33150  0.19481  0.31848  1.0000
  C   C1713     1.0  0.26013  0.23726  0.26197  1.0000
  H   H2024     1.0  0.37810  0.29755  0.20883  1.0000
  H   H2025     1.0  0.40123  0.23844  0.18170  1.0000
  S   S462      1.0  0.36088  0.42099  0.18996  1.0000
  C   C1714     1.0  0.24797  0.25579  0.32959  1.0000
  C   C1715     1.0  0.47359  0.31851  0.22192  1.0000
  H   H2026     1.0  0.38156  0.23993  0.29913  1.0000
  S   S463      1.0  0.41969  0.31299  0.18226  1.0000
  H   H2027     1.0  0.25263  0.39975  0.31829  1.0000
  H   H2028     1.0  0.39585  0.25926  0.20767  1.0000
  H   H2029     1.0  0.38956  0.26329  0.23309  1.0000
  C   C1716     1.0  0.34936  0.19967  0.30134  1.0000
  H   H2030     1.0  0.31415  0.40192  0.18093  1.0000
  H   H2031     1.0  0.28378  0.09357  0.19162  1.0000
  H   H2032     1.0  0.30663  0.46130  0.24179  1.0000
  N   N115      1.0  0.34253  0.14273  0.24211  1.0000
  C   C1717     1.0  0.34976  0.12738  0.24465  1.0000
  C   C1718     1.0  0.35202  0.15089  0.23036  1.0000
  C   C1719     1.0  0.34072  0.14790  0.25527  1.0000
  C   C1720     1.0  0.32887  0.14439  0.23812  1.0000
  C   C1721     1.0  0.32884  0.14193  0.22475  1.0000
  C   C1722     1.0  0.31535  0.14773  0.24750  1.0000
  C   C1723     1.0  0.31612  0.14331  0.22076  1.0000
  C   C1724     1.0  0.30267  0.14883  0.24352  1.0000
  C   C1725     1.0  0.30305  0.14675  0.23012  1.0000
  H   H2033     1.0  0.35219  0.12301  0.23488  1.0000
  H   H2034     1.0  0.36007  0.12562  0.24778  1.0000
  H   H2035     1.0  0.34294  0.12086  0.25338  1.0000
  H   H2036     1.0  0.34646  0.16223  0.22700  1.0000
  H   H2037     1.0  0.35600  0.14616  0.22074  1.0000
  H   H2038     1.0  0.33496  0.15931  0.25408  1.0000
  H   H2039     1.0  0.33488  0.14140  0.26499  1.0000
  H   H2040     1.0  0.35113  0.14730  0.25765  1.0000
  H   H2041     1.0  0.33867  0.13870  0.21729  1.0000
  H   H2042     1.0  0.31645  0.14148  0.21039  1.0000
  H   H2043     1.0  0.29321  0.14765  0.22701  1.0000
  H   H2044     1.0  0.36759  0.20530  0.28621  1.0000
  H   H2045     1.0  0.26651  0.46559  0.22136  1.0000
  C   C1726     1.0  0.43814  0.23218  0.33103  1.0000
  C   C1727     1.0  0.37237  0.23461  0.30227  1.0000
  C   C1728     1.0  0.44246  0.24768  0.34334  1.0000
  H   H2046     1.0  0.24691  0.38732  0.34381  1.0000
  H   H2047     1.0  0.44292  0.23908  0.35324  1.0000
  H   H2048     1.0  0.47860  0.28903  0.27075  1.0000
  H   H2049     1.0  0.39020  0.20693  0.28619  1.0000
  H   H2050     1.0  0.44486  0.25611  0.31475  1.0000
  H   H2051     1.0  0.29250  0.15125  0.25093  1.0000
  H   H2052     1.0  0.28645  0.18578  0.32676  1.0000
  H   H2053     1.0  0.39234  0.30066  0.21444  1.0000
  H   H2054     1.0  0.39516  0.22327  0.28438  1.0000
  H   H2055     1.0  0.37951  0.22390  0.27877  1.0000
  H   H2056     1.0  0.24192  0.07421  0.23401  1.0000
  N   N116      1.0  0.29941  0.19991  0.22539  1.0000
  S   S464      1.0  0.30317  0.46201  0.18528  1.0000
  C   C1729     1.0  0.38995  0.24788  0.36082  1.0000
  C   C1730     1.0  0.29632  0.19477  0.33791  1.0000
  H   H2057     1.0  0.33679  0.20627  0.33480  1.0000
  H   H2058     1.0  0.24376  0.46272  0.28548  1.0000
  H   H2059     1.0  0.25936  0.13001  0.18560  1.0000
  C   C1731     1.0  0.32596  0.47508  0.22564  1.0000
  C   C1732     1.0  0.36120  0.20597  0.29685  1.0000
  C   C1733     1.0  0.41640  0.27058  0.22485  1.0000
  H   H2060     1.0  0.33199  0.47501  0.23350  1.0000
  N   N117      1.0  0.25091  0.47461  0.23832  1.0000
  C   C1734     1.0  0.34356  0.20630  0.32414  1.0000
  C   C1735     1.0  0.37191  0.24839  0.19172  1.0000
  C   C1736     1.0  0.24268  0.31165  0.18510  1.0000
  H   H2061     1.0  0.39595  0.27463  0.19291  1.0000
  H   H2062     1.0  0.24199  0.22977  0.27654  1.0000
  H   H2063     1.0  0.43128  0.26846  0.32378  1.0000
  H   H2064     1.0  0.33110  0.48042  0.21474  1.0000
  C   C1737     1.0  0.44097  0.37852  0.18153  1.0000
  C   C1738     1.0  0.25281  0.08914  0.21733  1.0000
  H   H2065     1.0  0.41602  0.28198  0.18914  1.0000
  C   C1739     1.0  0.35951  0.25663  0.19862  1.0000
  H   H2066     1.0  0.37547  0.39178  0.19793  1.0000
  H   H2067     1.0  0.27479  0.10342  0.21350  1.0000
  H   H2068     1.0  0.27806  0.21312  0.22681  1.0000
  H   H2069     1.0  0.25055  0.41688  0.18340  1.0000
  H   H2070     1.0  0.25314  0.25589  0.31843  1.0000
  C   C1740     1.0  0.28543  0.19458  0.33160  1.0000
  S   S465      1.0  0.29957  0.24008  0.37060  1.0000
  H   H2071     1.0  0.27363  0.28276  0.29830  1.0000
  C   C1741     1.0  0.31689  0.19972  0.18584  1.0000
  C   C1742     1.0  0.29876  0.28861  0.36133  1.0000
  C   C1743     1.0  0.43387  0.25754  0.32165  1.0000
  C   C1744     1.0  0.38631  0.27493  0.22837  1.0000
  H   H2072     1.0  0.25189  0.09594  0.18189  1.0000
  H   H2073     1.0  0.43885  0.25814  0.34665  1.0000
  N   N118      1.0  0.26336  0.10775  0.19671  1.0000
  H   H2074     1.0  0.47227  0.29546  0.24745  1.0000
  C   C1745     1.0  0.24544  0.13852  0.26989  1.0000
  C   C1746     1.0  0.25436  0.12056  0.18918  1.0000
  H   H2075     1.0  0.27639  0.24813  0.24791  1.0000
  S   S466      1.0  0.32729  0.23228  0.21465  1.0000
  H   H2076     1.0  0.25591  0.46875  0.25932  1.0000
  H   H2077     1.0  0.24738  0.36660  0.32033  1.0000
  C   C1747     1.0  0.35045  0.14945  0.18827  1.0000
  C   C1748     1.0  0.43113  0.26793  0.22350  1.0000
  H   H2078     1.0  0.38131  0.21305  0.32317  1.0000
  C   C1749     1.0  0.48045  0.34352  0.18240  1.0000
  C   C1750     1.0  0.27308  0.20547  0.33202  1.0000
  H   H2079     1.0  0.26553  0.27088  0.25618  1.0000
  H   H2080     1.0  0.39497  0.29812  0.19674  1.0000
  H   H2081     1.0  0.27758  0.25516  0.35182  1.0000
  C   C1751     1.0  0.48519  0.29495  0.21767  1.0000
  S   S467      1.0  0.33098  0.45332  0.20004  1.0000
  C   C1752     1.0  0.41988  0.27785  0.19896  1.0000
  H   H2082     1.0  0.23759  0.09879  0.29765  1.0000
  C   C1753     1.0  0.47996  0.24996  0.30144  1.0000
  N   N119      1.0  0.25570  0.26022  0.36351  1.0000
  C   C1754     1.0  0.39150  0.27100  0.20455  1.0000
  Fe  Fe235     1.0  0.31254  0.25443  0.35375  1.0000
  H   H2083     1.0  0.30845  0.47246  0.25233  1.0000
  Fe  Fe236     1.0  0.31071  0.44620  0.20396  1.0000
  H   H2084     1.0  0.27275  0.12137  0.20321  1.0000
  H   H2085     1.0  0.32067  0.38341  0.18924  1.0000
  H   H2086     1.0  0.30758  0.28030  0.36451  1.0000
  H   H2087     1.0  0.43555  0.26422  0.23302  1.0000
  H   H2088     1.0  0.27643  0.40763  0.18978  1.0000
  H   H2089     1.0  0.47031  0.32209  0.21144  1.0000
  H   H2090     1.0  0.29813  0.22029  0.23009  1.0000
  C   C1755     1.0  0.29325  0.28809  0.35008  1.0000
  H   H2091     1.0  0.28016  0.19577  0.22341  1.0000
  C   C1756     1.0  0.25477  0.46779  0.22585  1.0000
  H   H2092     1.0  0.47827  0.28503  0.29966  1.0000
  H   H2093     1.0  0.46055  0.34981  0.19697  1.0000
  C   C1757     1.0  0.26653  0.24904  0.25597  1.0000
  S   S468      1.0  0.32813  0.25256  0.36697  1.0000
  H   H2094     1.0  0.25230  0.14237  0.22668  1.0000
  C   C1758     1.0  0.30340  0.20877  0.23274  1.0000
  H   H2095     1.0  0.44869  0.37620  0.18809  1.0000
  Fe  Fe237     1.0  0.34039  0.43692  0.18637  1.0000
  C   C1759     1.0  0.25842  0.46464  0.24941  1.0000
  C   C1760     1.0  0.24850  0.25798  0.35345  1.0000
  H   H2096     1.0  0.26590  0.25932  0.33418  1.0000
  H   H2097     1.0  0.25661  0.33124  0.27127  1.0000
  S   S469      1.0  0.26849  0.22092  0.25674  1.0000
  C   C1761     1.0  0.33113  0.23094  0.19672  1.0000
  H   H2098     1.0  0.30257  0.17735  0.22665  1.0000
  C   C1762     1.0  0.40668  0.25903  0.34108  1.0000
  H   H2099     1.0  0.33881  0.27006  0.19701  1.0000
  S   S470      1.0  0.30447  0.13158  0.18484  1.0000
  H   H2100     1.0  0.44597  0.34167  0.18566  1.0000
  H   H2101     1.0  0.39876  0.22770  0.37339  1.0000
  H   H2102     1.0  0.27469  0.26610  0.36417  1.0000
  H   H2103     1.0  0.36505  0.24045  0.29490  1.0000
  S   S471      1.0  0.27472  0.32527  0.37270  1.0000
  C   C1763     1.0  0.25688  0.15367  0.20460  1.0000
  H   H2104     1.0  0.37051  0.13414  0.18630  1.0000
  C   C1764     1.0  0.25106  0.35797  0.27505  1.0000
  H   H2105     1.0  0.39636  0.21637  0.30902  1.0000
  C   C1765     1.0  0.40106  0.23651  0.36445  1.0000
  H   H2106     1.0  0.31702  0.18387  0.20505  1.0000
  N   N120      1.0  0.39474  0.27884  0.21351  1.0000
  Fe  Fe238     1.0  0.31414  0.22259  0.35993  1.0000
  C   C1766     1.0  0.34854  0.26396  0.19150  1.0000
  C   C1767     1.0  0.41032  0.27557  0.21254  1.0000
  H   H2107     1.0  0.34236  0.20888  0.20105  1.0000
  H   H2108     1.0  0.27021  0.46265  0.24530  1.0000
  H   H2109     1.0  0.34525  0.37059  0.17826  1.0000
  C   C1768     1.0  0.38980  0.29443  0.20816  1.0000
  C   C1769     1.0  0.36456  0.21266  0.30600  1.0000
  C   C1770     1.0  0.43458  0.27541  0.19777  1.0000
  H   H2110     1.0  0.35718  0.21746  0.32739  1.0000
  H   H2111     1.0  0.31510  0.20811  0.22970  1.0000
  C   C1771     1.0  0.28368  0.20168  0.22928  1.0000
  H   H2112     1.0  0.26600  0.33207  0.28378  1.0000
  S   S472      1.0  0.32054  0.42839  0.19221  1.0000
  H   H2113     1.0  0.25219  0.30315  0.18447  1.0000
  H   H2114     1.0  0.29136  0.42550  0.18371  1.0000
  H   H2115     1.0  0.30222  0.18161  0.24302  1.0000
  H   H2116     1.0  0.39015  0.20024  0.31220  1.0000
  C   C1772     1.0  0.25552  0.09603  0.20253  1.0000
  H   H2117     1.0  0.24492  0.36856  0.27729  1.0000
  S   S473      1.0  0.24611  0.20188  0.29284  1.0000
  C   C1773     1.0  0.44018  0.27046  0.21003  1.0000
  H   H2118     1.0  0.25833  0.16479  0.18246  1.0000
  C   C1774     1.0  0.24446  0.14987  0.27622  1.0000
  H   H2119     1.0  0.48224  0.29772  0.20707  1.0000
  C   C1775     1.0  0.38662  0.21191  0.31200  1.0000
  C   C1776     1.0  0.23866  0.07508  0.21336  1.0000
  C   C1777     1.0  0.30407  0.20455  0.20960  1.0000
  C   C1778     1.0  0.41500  0.23628  0.35636  1.0000
  H   H2120     1.0  0.24380  0.28201  0.36243  1.0000
  H   H2121     1.0  0.25767  0.11592  0.21598  1.0000
  C   C1779     1.0  0.26039  0.26190  0.26066  1.0000
  H   H2122     1.0  0.37982  0.27268  0.20564  1.0000
  N   N121      1.0  0.37712  0.21922  0.30181  1.0000
  C   C1780     1.0  0.29934  0.21895  0.20256  1.0000
  S   S474      1.0  0.41550  0.34768  0.17984  1.0000
  H   H2123     1.0  0.30249  0.25379  0.32362  1.0000
  C   C1781     1.0  0.34499  0.21772  0.17843  1.0000
  H   H2124     1.0  0.37907  0.24778  0.36676  1.0000
  H   H2125     1.0  0.32740  0.46372  0.22520  1.0000
  C   C1782     1.0  0.37535  0.39396  0.18666  1.0000
  C   C1783     1.0  0.39280  0.25921  0.34933  1.0000
  H   H2126     1.0  0.41007  0.26872  0.23566  1.0000
  C   C1784     1.0  0.32387  0.39354  0.18279  1.0000
  C   C1785     1.0  0.31210  0.21393  0.17932  1.0000
  C   C1786     1.0  0.26729  0.11222  0.20789  1.0000
  S   S475      1.0  0.30881  0.20504  0.35308  1.0000
  C   C1787     1.0  0.27670  0.10318  0.18637  1.0000
  Fe  Fe239     1.0  0.28954  0.15300  0.18532  1.0000
  C   C1788     1.0  0.30332  0.22352  0.18765  1.0000
  H   H2127     1.0  0.27977  0.19768  0.24100  1.0000
  C   C1789     1.0  0.24287  0.40401  0.32535  1.0000
  S   S476      1.0  0.27337  0.15545  0.20564  1.0000
  C   C1790     1.0  0.24728  0.23859  0.27223  1.0000
  H   H2128     1.0  0.34711  0.19446  0.29426  1.0000
  C   C1791     1.0  0.35532  0.21266  0.31978  1.0000
  H   H2129     1.0  0.38750  0.28120  0.23548  1.0000
  H   H2130     1.0  0.36662  0.23627  0.31318  1.0000
  H   H2131     1.0  0.44846  0.23162  0.32295  1.0000
  H   H2132     1.0  0.29262  0.22683  0.20856  1.0000
  H   H2133     1.0  0.25128  0.35830  0.26371  1.0000
  C   C1792     1.0  0.41675  0.38719  0.17850  1.0000
  N   N122      1.0  0.28738  0.23538  0.29312  1.0000
  C   C1793     1.0  0.29228  0.23934  0.27728  1.0000
  C   C1794     1.0  0.29664  0.22137  0.29821  1.0000
  C   C1795     1.0  0.27255  0.23340  0.29657  1.0000
  C   C1796     1.0  0.28772  0.24689  0.29965  1.0000
  C   C1797     1.0  0.29583  0.24454  0.31010  1.0000
  C   C1798     1.0  0.27959  0.26098  0.29570  1.0000
  C   C1799     1.0  0.29609  0.25576  0.31579  1.0000
  C   C1800     1.0  0.27988  0.27209  0.30154  1.0000
  C   C1801     1.0  0.28823  0.26952  0.31146  1.0000
  H   H2134     1.0  0.30340  0.24093  0.27421  1.0000
  H   H2135     1.0  0.29199  0.23092  0.27205  1.0000
  H   H2136     1.0  0.28549  0.24937  0.27239  1.0000
  H   H2137     1.0  0.30803  0.22203  0.29569  1.0000
  H   H2138     1.0  0.29629  0.21295  0.29308  1.0000
  H   H2139     1.0  0.29322  0.21737  0.30996  1.0000
  H   H2140     1.0  0.26519  0.24296  0.29169  1.0000
  H   H2141     1.0  0.27187  0.22433  0.29255  1.0000
  H   H2142     1.0  0.26820  0.23114  0.30838  1.0000
  H   H2143     1.0  0.30211  0.23416  0.31409  1.0000
  H   H2144     1.0  0.27290  0.26352  0.28806  1.0000
  C   C1802     1.0  0.25515  0.25787  0.33879  1.0000
  H   H2145     1.0  0.40795  0.26796  0.33203  1.0000
  C   C1803     1.0  0.24668  0.27206  0.37053  1.0000
  H   H2146     1.0  0.26241  0.22525  0.33884  1.0000
  H   H2147     1.0  0.31764  0.18270  0.22868  1.0000
  H   H2148     1.0  0.35150  0.38520  0.17983  1.0000
  H   H2149     1.0  0.42324  0.22724  0.35960  1.0000
  H   H2150     1.0  0.38327  0.14849  0.19267  1.0000
  S   S477      1.0  0.38834  0.33453  0.18047  1.0000
  H   H2151     1.0  0.24290  0.18233  0.25897  1.0000
  H   H2152     1.0  0.23707  0.07816  0.19162  1.0000
  C   C1804     1.0  0.29308  0.30012  0.36821  1.0000
  C   C1805     1.0  0.31294  0.19501  0.20075  1.0000
  Fe  Fe240     1.0  0.24842  0.17919  0.29130  1.0000
  C   C1806     1.0  0.46565  0.34501  0.18779  1.0000
  H   H2153     1.0  0.46458  0.31436  0.22993  1.0000
  Fe  Fe241     1.0  0.40482  0.32989  0.19338  1.0000
  C   C1807     1.0  0.24763  0.26316  0.27108  1.0000
  C   C1808     1.0  0.39718  0.23058  0.17873  1.0000
  H   H2154     1.0  0.24248  0.40125  0.21264  1.0000
  H   H2155     1.0  0.32024  0.25253  0.18902  1.0000
  C   C1809     1.0  0.24862  0.14646  0.21673  1.0000
  C   C1810     1.0  0.24030  0.42177  0.18988  1.0000
  H   H2156     1.0  0.25539  0.45406  0.25274  1.0000
  H   H2157     1.0  0.30532  0.47224  0.21579  1.0000
  C   C1811     1.0  0.23966  0.39698  0.33970  1.0000
  H   H2158     1.0  0.25446  0.34618  0.30195  1.0000
  H   H2159     1.0  0.32302  0.28960  0.37591  1.0000
  S   S478      1.0  0.24041  0.27915  0.27723  1.0000
  H   H2160     1.0  0.28287  0.11178  0.18169  1.0000
  C   C1812     1.0  0.23768  0.34209  0.21365  1.0000
  H   H2161     1.0  0.42331  0.38649  0.19753  1.0000
  H   H2162     1.0  0.32860  0.39724  0.18962  1.0000
  H   H2163     1.0  0.25663  0.09180  0.22516  1.0000
  H   H2164     1.0  0.29281  0.30217  0.17974  1.0000
  H   H2165     1.0  0.29246  0.47575  0.24591  1.0000
  C   C1813     1.0  0.30427  0.47257  0.24304  1.0000
  H   H2166     1.0  0.26459  0.23771  0.36983  1.0000
  S   S479      1.0  0.30662  0.16546  0.17850  1.0000
  H   H2167     1.0  0.25177  0.32285  0.29013  1.0000
  C   C1814     1.0  0.32697  0.24277  0.18606  1.0000
  C   C1815     1.0  0.48243  0.27358  0.30136  1.0000
  H   H2168     1.0  0.24374  0.12352  0.19632  1.0000
  C   C1816     1.0  0.36858  0.40756  0.17998  1.0000
  H   H2169     1.0  0.23685  0.35678  0.30264  1.0000
  H   H2170     1.0  0.40564  0.39168  0.18269  1.0000
  C   C1817     1.0  0.28142  0.41141  0.17868  1.0000
  H   H2171     1.0  0.24726  0.34189  0.20513  1.0000
  C   C1818     1.0  0.25522  0.33241  0.28243  1.0000
  H   H2172     1.0  0.32385  0.19235  0.17928  1.0000
  H   H2173     1.0  0.23945  0.33771  0.30789  1.0000
  S   S480      1.0  0.24408  0.42016  0.22844  1.0000
  H   H2174     1.0  0.25240  0.11886  0.17942  1.0000
  H   H2175     1.0  0.47455  0.32820  0.22473  1.0000
  S   S481      1.0  0.32962  0.21769  0.37431  1.0000
  H   H2176     1.0  0.48024  0.25919  0.26776  1.0000
  C   C1819     1.0  0.24159  0.08120  0.19873  1.0000
  H   H2177     1.0  0.23830  0.32013  0.21598  1.0000
  H   H2178     1.0  0.23729  0.35952  0.34632  1.0000
  C   C1820     1.0  0.24768  0.11294  0.30161  1.0000
  H   H2179     1.0  0.24325  0.42492  0.19838  1.0000
  C   C1821     1.0  0.38190  0.38314  0.17890  1.0000
  C   C1822     1.0  0.23900  0.15685  0.19111  1.0000
  C   C1823     1.0  0.24382  0.32579  0.18288  1.0000
  S   S482      1.0  0.26065  0.32956  0.17907  1.0000
  C   C1824     1.0  0.24440  0.07891  0.22260  1.0000
  C   C1825     1.0  0.48578  0.29364  0.26128  1.0000
  C   C1826     1.0  0.45962  0.29804  0.56329  1.0000
  H   H2180     1.0  0.26356  0.30686  0.41524  1.0000
  H   H2181     1.0  0.33606  0.46223  0.55562  1.0000
  Fe  Fe242     1.0  0.39554  0.28672  0.54758  1.0000
  S   S483      1.0  0.40595  0.26513  0.55910  1.0000
  S   S484      1.0  0.38592  0.29079  0.52814  1.0000
  H   H2182     1.0  0.24224  0.33534  0.46991  1.0000
  H   H2183     1.0  0.24297  0.34289  0.55645  1.0000
  Fe  Fe243     1.0  0.42170  0.27647  0.56097  1.0000
  S   S485      1.0  0.38108  0.29319  0.56763  1.0000
  S   S486      1.0  0.41255  0.29770  0.54773  1.0000
  Fe  Fe244     1.0  0.32863  0.27705  0.47502  1.0000
  S   S487      1.0  0.34971  0.26159  0.47121  1.0000
  S   S488      1.0  0.32768  0.29864  0.46013  1.0000
  Fe  Fe245     1.0  0.31431  0.25470  0.49726  1.0000
  S   S489      1.0  0.33426  0.23748  0.49461  1.0000
  S   S490      1.0  0.29320  0.25115  0.51192  1.0000
  Fe  Fe246     1.0  0.34526  0.25415  0.49528  1.0000
  S   S491      1.0  0.36022  0.24778  0.51069  1.0000
  Fe  Fe247     1.0  0.33647  0.24687  0.47085  1.0000
  S   S492      1.0  0.34334  0.23479  0.45279  1.0000
  S   S493      1.0  0.32508  0.27088  0.49904  1.0000
  S   S494      1.0  0.31567  0.26277  0.47353  1.0000
  H   H2184     1.0  0.25639  0.31266  0.43184  1.0000
  H   H2185     1.0  0.24177  0.24688  0.56130  1.0000
  H   H2186     1.0  0.31690  0.28259  0.56503  1.0000
  H   H2187     1.0  0.28562  0.31478  0.39857  1.0000
  H   H2188     1.0  0.31953  0.39473  0.49766  1.0000
  S   S495      1.0  0.25398  0.43755  0.57367  1.0000
  C   C1827     1.0  0.48308  0.29996  0.52896  1.0000
  S   S496      1.0  0.29319  0.18947  0.55209  1.0000
  C   C1828     1.0  0.47920  0.33888  0.57388  1.0000
  Fe  Fe248     1.0  0.24750  0.37177  0.51267  1.0000
  H   H2189     1.0  0.25438  0.33709  0.41639  1.0000
  S   S497      1.0  0.23980  0.38947  0.52518  1.0000
  C   C1829     1.0  0.28958  0.31850  0.45018  1.0000
  S   S498      1.0  0.25990  0.33972  0.49318  1.0000
  H   H2190     1.0  0.28254  0.24008  0.55088  1.0000
  C   C1830     1.0  0.27161  0.25038  0.56884  1.0000
  S   S499      1.0  0.26255  0.35147  0.52025  1.0000
  H   H2191     1.0  0.28534  0.33407  0.46293  1.0000
  Fe  Fe249     1.0  0.27272  0.35296  0.49689  1.0000
  S   S500      1.0  0.29613  0.35144  0.48841  1.0000
  C   C1831     1.0  0.23739  0.32441  0.57150  1.0000
  S   S501      1.0  0.25866  0.37408  0.48938  1.0000
  C   C1832     1.0  0.31566  0.38487  0.50394  1.0000
  Fe  Fe250     1.0  0.27404  0.42062  0.56991  1.0000
  S   S502      1.0  0.28043  0.40649  0.55370  1.0000
  Fe  Fe251     1.0  0.24490  0.36067  0.48724  1.0000
  H   H2192     1.0  0.29437  0.30674  0.41299  1.0000
  C   C1833     1.0  0.33178  0.29841  0.38809  1.0000
  H   H2193     1.0  0.45659  0.28492  0.52864  1.0000
  C   C1834     1.0  0.26648  0.30966  0.42396  1.0000
  N   N123      1.0  0.34246  0.27982  0.42405  1.0000
  S   S503      1.0  0.30805  0.23914  0.40666  1.0000
  H   H2194     1.0  0.33132  0.26223  0.41546  1.0000
  H   H2195     1.0  0.29530  0.37161  0.52159  1.0000
  C   C1835     1.0  0.29172  0.40736  0.51097  1.0000
  N   N124      1.0  0.31772  0.47020  0.57123  1.0000
  C   C1836     1.0  0.32246  0.27164  0.56336  1.0000
  H   H2196     1.0  0.34523  0.25192  0.55156  1.0000
  H   H2197     1.0  0.44118  0.29544  0.55795  1.0000
  H   H2198     1.0  0.30107  0.40623  0.51490  1.0000
  H   H2199     1.0  0.27295  0.29975  0.42947  1.0000
  H   H2200     1.0  0.31462  0.38405  0.51558  1.0000
  H   H2201     1.0  0.32422  0.37554  0.50112  1.0000
  H   H2202     1.0  0.33926  0.30157  0.42608  1.0000
  H   H2203     1.0  0.35634  0.24623  0.57081  1.0000
  C   C1837     1.0  0.25068  0.39329  0.53434  1.0000
  C   C1838     1.0  0.26439  0.38500  0.53496  1.0000
  C   C1839     1.0  0.27313  0.38887  0.54146  1.0000
  C   C1840     1.0  0.26825  0.40096  0.54757  1.0000
  C   C1841     1.0  0.25426  0.40883  0.54762  1.0000
  H   H2204     1.0  0.45665  0.30961  0.56058  1.0000
  H   H2205     1.0  0.26835  0.37581  0.53012  1.0000
  H   H2206     1.0  0.28387  0.38267  0.54155  1.0000
  H   H2207     1.0  0.32250  0.26668  0.39385  1.0000
  N   N125      1.0  0.27412  0.32154  0.41831  1.0000
  C   C1842     1.0  0.33684  0.29607  0.40052  1.0000
  C   C1843     1.0  0.28341  0.24234  0.56052  1.0000
  C   C1844     1.0  0.25973  0.26477  0.54962  1.0000
  C   C1845     1.0  0.26768  0.42087  0.50988  1.0000
  C   C1846     1.0  0.27042  0.33846  0.43474  1.0000
  H   H2208     1.0  0.35178  0.28899  0.43552  1.0000
  C   C1847     1.0  0.35434  0.26695  0.42431  1.0000
  H   H2209     1.0  0.35090  0.25715  0.42474  1.0000
  C   C1848     1.0  0.26521  0.33366  0.40987  1.0000
  C   C1849     1.0  0.24554  0.40503  0.54099  1.0000
  H   H2210     1.0  0.47956  0.34741  0.56388  1.0000
  H   H2211     1.0  0.29580  0.38213  0.48271  1.0000
  C   C1850     1.0  0.45081  0.29003  0.56182  1.0000
  C   C1851     1.0  0.33342  0.23650  0.43988  1.0000
  C   C1852     1.0  0.34044  0.23154  0.42722  1.0000
  C   C1853     1.0  0.33293  0.23253  0.41679  1.0000
  C   C1854     1.0  0.31822  0.23826  0.41904  1.0000
  C   C1855     1.0  0.31121  0.24319  0.43172  1.0000
  C   C1856     1.0  0.31875  0.24243  0.44203  1.0000
  H   H2212     1.0  0.35176  0.22685  0.42547  1.0000
  H   H2213     1.0  0.33845  0.22861  0.40713  1.0000
  H   H2214     1.0  0.29982  0.24755  0.43360  1.0000
  H   H2215     1.0  0.31315  0.24620  0.45172  1.0000
  C   C1857     1.0  0.31899  0.31289  0.46861  1.0000
  C   C1858     1.0  0.30770  0.31155  0.48064  1.0000
  C   C1859     1.0  0.30035  0.32348  0.48666  1.0000
  C   C1860     1.0  0.30470  0.33650  0.48094  1.0000
  C   C1861     1.0  0.31614  0.33769  0.46910  1.0000
  C   C1862     1.0  0.32308  0.32599  0.46277  1.0000
  H   H2216     1.0  0.30445  0.30144  0.48507  1.0000
  H   H2217     1.0  0.29149  0.32257  0.49582  1.0000
  H   H2218     1.0  0.31948  0.34775  0.46465  1.0000
  H   H2219     1.0  0.33177  0.32704  0.45344  1.0000
  C   C1863     1.0  0.29330  0.23396  0.52300  1.0000
  C   C1864     1.0  0.28036  0.22963  0.52944  1.0000
  C   C1865     1.0  0.28021  0.21600  0.53850  1.0000
  C   C1866     1.0  0.29302  0.20660  0.54095  1.0000
  C   C1867     1.0  0.30594  0.21091  0.53444  1.0000
  C   C1868     1.0  0.30607  0.22461  0.52561  1.0000
  H   H2220     1.0  0.27044  0.23680  0.52741  1.0000
  H   H2221     1.0  0.27020  0.21268  0.54339  1.0000
  H   H2222     1.0  0.31588  0.20368  0.53633  1.0000
  H   H2223     1.0  0.31604  0.22796  0.52099  1.0000
  Fe  Fe252     1.0  0.27169  0.18640  0.56576  1.0000
  H   H2224     1.0  0.26805  0.35159  0.44955  1.0000
  H   H2225     1.0  0.30735  0.17916  0.57504  1.0000
  C   C1869     1.0  0.37885  0.27862  0.52353  1.0000
  C   C1870     1.0  0.37228  0.28338  0.51173  1.0000
  C   C1871     1.0  0.36643  0.27413  0.50773  1.0000
  C   C1872     1.0  0.36729  0.25991  0.51537  1.0000
  C   C1873     1.0  0.37384  0.25515  0.52719  1.0000
  C   C1874     1.0  0.37950  0.26446  0.53132  1.0000
  H   H2226     1.0  0.37172  0.29429  0.50563  1.0000
  H   H2227     1.0  0.36144  0.27795  0.49862  1.0000
  H   H2228     1.0  0.37459  0.24417  0.53315  1.0000
  H   H2229     1.0  0.38452  0.26064  0.54040  1.0000
  C   C1875     1.0  0.45486  0.27510  0.56458  1.0000
  C   C1876     1.0  0.30495  0.38410  0.48556  1.0000
  H   H2230     1.0  0.29158  0.29663  0.51441  1.0000
  H   H2231     1.0  0.25053  0.23631  0.57551  1.0000
  C   C1877     1.0  0.31978  0.20164  0.57132  1.0000
  C   C1878     1.0  0.28661  0.31528  0.43867  1.0000
  C   C1879     1.0  0.34785  0.29171  0.42542  1.0000
  Fe  Fe253     1.0  0.39878  0.30218  0.56889  1.0000
  C   C1880     1.0  0.26612  0.41135  0.50283  1.0000
  C   C1881     1.0  0.27710  0.32525  0.43043  1.0000
  S   S504      1.0  0.44462  0.26501  0.56135  1.0000
  H   H2232     1.0  0.32838  0.24998  0.55090  1.0000
  S   S505      1.0  0.48322  0.30181  0.56911  1.0000
  H   H2233     1.0  0.26266  0.34655  0.42950  1.0000
  C   C1882     1.0  0.29813  0.27891  0.53113  1.0000
  H   H2234     1.0  0.24402  0.31729  0.56454  1.0000
  H   H2235     1.0  0.28741  0.37060  0.50792  1.0000
  H   H2236     1.0  0.25035  0.41818  0.55227  1.0000
  C   C1883     1.0  0.47227  0.29120  0.56803  1.0000
  H   H2237     1.0  0.30531  0.23080  0.55795  1.0000
  C   C1884     1.0  0.46752  0.26820  0.56936  1.0000
  C   C1885     1.0  0.29737  0.37167  0.51000  1.0000
  H   H2238     1.0  0.32675  0.26764  0.43725  1.0000
  H   H2239     1.0  0.33423  0.21221  0.55375  1.0000
  N   N126      1.0  0.30199  0.38482  0.50087  1.0000
  C   C1886     1.0  0.29911  0.29187  0.52133  1.0000
  H   H2240     1.0  0.32828  0.29794  0.52713  1.0000
  C   C1887     1.0  0.24142  0.36735  0.56748  1.0000
  H   H2241     1.0  0.32177  0.28641  0.43725  1.0000
  H   H2242     1.0  0.31419  0.20031  0.56408  1.0000
  H   H2243     1.0  0.25946  0.23663  0.55710  1.0000
  H   H2244     1.0  0.36312  0.26842  0.41463  1.0000
  C   C1888     1.0  0.29653  0.23693  0.56453  1.0000
  C   C1889     1.0  0.27730  0.39978  0.49985  1.0000
  C   C1890     1.0  0.27340  0.34152  0.44634  1.0000
  Fe  Fe254     1.0  0.25088  0.32965  0.37835  1.0000
  H   H2245     1.0  0.42202  0.23574  0.57491  1.0000
  H   H2246     1.0  0.33472  0.27450  0.44692  1.0000
  N   N127      1.0  0.32977  0.27198  0.54812  1.0000
  H   H2247     1.0  0.24789  0.24398  0.38124  1.0000
  C   C1891     1.0  0.23797  0.34062  0.46046  1.0000
  C   C1892     1.0  0.34171  0.27933  0.54482  1.0000
  C   C1893     1.0  0.31931  0.27906  0.53892  1.0000
  C   C1894     1.0  0.33609  0.25707  0.54625  1.0000
  H   H2248     1.0  0.31443  0.26487  0.56723  1.0000
  H   H2249     1.0  0.29171  0.30484  0.43639  1.0000
  H   H2250     1.0  0.26343  0.33062  0.40068  1.0000
  Fe  Fe255     1.0  0.24002  0.19889  0.57231  1.0000
  C   C1895     1.0  0.30290  0.46800  0.57689  1.0000
  C   C1896     1.0  0.47790  0.27344  0.53038  1.0000
  H   H2251     1.0  0.31085  0.30855  0.51240  1.0000
  H   H2252     1.0  0.33014  0.26715  0.57055  1.0000
  H   H2253     1.0  0.26672  0.25869  0.54144  1.0000
  S   S506      1.0  0.24246  0.32036  0.53122  1.0000
  H   H2254     1.0  0.34757  0.28005  0.53344  1.0000
  H   H2255     1.0  0.33795  0.29030  0.54694  1.0000
  H   H2256     1.0  0.34974  0.27348  0.55147  1.0000
  C   C1897     1.0  0.28304  0.33161  0.45397  1.0000
  H   H2257     1.0  0.30670  0.26267  0.54745  1.0000
  H   H2258     1.0  0.31395  0.37501  0.48296  1.0000
  H   H2259     1.0  0.25005  0.27409  0.57412  1.0000
  H   H2260     1.0  0.27529  0.39238  0.49494  1.0000
  C   C1898     1.0  0.30999  0.29856  0.52020  1.0000
  C   C1899     1.0  0.28765  0.31687  0.40817  1.0000
  C   C1900     1.0  0.28044  0.41887  0.51395  1.0000
  H   H2261     1.0  0.29405  0.32526  0.40424  1.0000
  H   H2262     1.0  0.34064  0.30469  0.40171  1.0000
  H   H2263     1.0  0.42341  0.30848  0.57513  1.0000
  H   H2264     1.0  0.25596  0.41257  0.50021  1.0000
  Fe  Fe256     1.0  0.24802  0.34045  0.51592  1.0000
  Fe  Fe257     1.0  0.31620  0.23679  0.38332  1.0000
  S   S507      1.0  0.25344  0.18282  0.55931  1.0000
  C   C1901     1.0  0.25219  0.24336  0.56457  1.0000
  H   H2265     1.0  0.27031  0.34302  0.40532  1.0000
  C   C1902     1.0  0.32000  0.29229  0.52879  1.0000
  H   H2266     1.0  0.30557  0.36183  0.50801  1.0000
  S   S508      1.0  0.28805  0.43419  0.57140  1.0000
  H   H2267     1.0  0.29695  0.31074  0.45626  1.0000
  N   N128      1.0  0.30559  0.21284  0.48594  1.0000
  C   C1903     1.0  0.30765  0.22752  0.48357  1.0000
  C   C1904     1.0  0.29194  0.21161  0.49661  1.0000
  C   C1905     1.0  0.31723  0.20253  0.49245  1.0000
  C   C1906     1.0  0.30588  0.21020  0.47192  1.0000
  C   C1907     1.0  0.31889  0.20817  0.46153  1.0000
  C   C1908     1.0  0.29325  0.21076  0.46769  1.0000
  C   C1909     1.0  0.31928  0.20642  0.44796  1.0000
  C   C1910     1.0  0.29376  0.20920  0.45399  1.0000
  C   C1911     1.0  0.30674  0.20706  0.44414  1.0000
  H   H2268     1.0  0.29916  0.23566  0.47868  1.0000
  H   H2269     1.0  0.30737  0.23015  0.49380  1.0000
  H   H2270     1.0  0.31807  0.22893  0.47620  1.0000
  H   H2271     1.0  0.28289  0.22037  0.49355  1.0000
  H   H2272     1.0  0.29240  0.21253  0.50737  1.0000
  H   H2273     1.0  0.28933  0.20108  0.49808  1.0000
  H   H2274     1.0  0.32799  0.20434  0.48647  1.0000
  H   H2275     1.0  0.31638  0.20350  0.50358  1.0000
  H   H2276     1.0  0.31700  0.19129  0.49298  1.0000
  H   H2277     1.0  0.32885  0.20849  0.46352  1.0000
  H   H2278     1.0  0.28282  0.21264  0.47466  1.0000
  H   H2279     1.0  0.32932  0.20514  0.44012  1.0000
  H   H2280     1.0  0.28401  0.20989  0.45086  1.0000
  H   H2281     1.0  0.30706  0.20627  0.43339  1.0000
  C   C1912     1.0  0.33700  0.28289  0.41088  1.0000
  H   H2282     1.0  0.35693  0.29420  0.41639  1.0000
  H   H2283     1.0  0.35887  0.26446  0.43400  1.0000
  H   H2284     1.0  0.26449  0.27385  0.54890  1.0000
  C   C1913     1.0  0.33089  0.27698  0.43685  1.0000
  S   S509      1.0  0.24158  0.31347  0.39640  1.0000
  H   H2285     1.0  0.23847  0.32083  0.45528  1.0000
  N   N129      1.0  0.25777  0.25571  0.56440  1.0000
  C   C1914     1.0  0.32653  0.27491  0.39569  1.0000
  H   H2286     1.0  0.48415  0.31049  0.52873  1.0000
  C   C1915     1.0  0.29051  0.39747  0.50371  1.0000
  H   H2287     1.0  0.24940  0.26943  0.54619  1.0000
  C   C1916     1.0  0.30794  0.27267  0.53995  1.0000
  H   H2288     1.0  0.30757  0.39419  0.47827  1.0000
  C   C1917     1.0  0.33160  0.27245  0.40808  1.0000
  H   H2289     1.0  0.24111  0.37906  0.56434  1.0000
  C   C1918     1.0  0.46713  0.28573  0.52879  1.0000
  H   H2290     1.0  0.28139  0.42594  0.52001  1.0000
  H   H2291     1.0  0.34013  0.25685  0.53467  1.0000
  C   C1919     1.0  0.46973  0.29896  0.52800  1.0000
  C   C1920     1.0  0.32673  0.28783  0.38565  1.0000
  C   C1921     1.0  0.33123  0.20845  0.56529  1.0000
  S   S510      1.0  0.26584  0.47399  0.56837  1.0000
  H   H2292     1.0  0.24602  0.36285  0.57720  1.0000
  H   H2293     1.0  0.28993  0.27353  0.53164  1.0000
  H   H2294     1.0  0.24901  0.36274  0.55852  1.0000
  H   H2295     1.0  0.25881  0.42952  0.51264  1.0000
  H   H2296     1.0  0.34751  0.21598  0.56948  1.0000
  H   H2297     1.0  0.32380  0.45070  0.56349  1.0000
  H   H2298     1.0  0.33187  0.30846  0.38022  1.0000
  C   C1922     1.0  0.24669  0.26444  0.57389  1.0000
  H   H2299     1.0  0.29663  0.47189  0.56837  1.0000
  H   H2300     1.0  0.47565  0.26314  0.53138  1.0000
  H   H2301     1.0  0.47071  0.25664  0.57149  1.0000
  H   H2302     1.0  0.46115  0.30842  0.52717  1.0000
  H   H2303     1.0  0.29110  0.20252  0.57648  1.0000
  S   S511      1.0  0.23838  0.34846  0.38802  1.0000
  C   C1923     1.0  0.47612  0.27622  0.57130  1.0000
  C   C1924     1.0  0.32454  0.46216  0.55968  1.0000
  H   H2304     1.0  0.31929  0.46683  0.55039  1.0000
  H   H2305     1.0  0.26381  0.24804  0.38232  1.0000
  H   H2306     1.0  0.37627  0.25449  0.57385  1.0000
  C   C1925     1.0  0.33880  0.21046  0.57409  1.0000
  H   H2307     1.0  0.48581  0.27081  0.57504  1.0000
  H   H2308     1.0  0.46843  0.33631  0.57692  1.0000
  S   S512      1.0  0.25852  0.20376  0.57702  1.0000
  C   C1926     1.0  0.29832  0.23939  0.57695  1.0000
  C   C1927     1.0  0.23670  0.33913  0.56695  1.0000
  H   H2309     1.0  0.23657  0.26948  0.37767  1.0000
  H   H2310     1.0  0.25215  0.27471  0.37746  1.0000
  H   H2311     1.0  0.29281  0.23778  0.77210  1.0000
  Fe  Fe258     1.0  0.24543  0.14641  0.73824  1.0000
  H   H2312     1.0  0.26545  0.25845  0.58869  1.0000
  S   S513      1.0  0.27015  0.16906  0.58578  1.0000
  Fe  Fe259     1.0  0.26828  0.15889  0.71441  1.0000
  S   S514      1.0  0.25346  0.16885  0.69947  1.0000
  S   S515      1.0  0.29130  0.16009  0.70707  1.0000
  Fe  Fe260     1.0  0.23762  0.17541  0.71872  1.0000
  C   C1928     1.0  0.25029  0.36199  0.67495  1.0000
  Fe  Fe261     1.0  0.24639  0.14813  0.70750  1.0000
  S   S516      1.0  0.24504  0.13690  0.69162  1.0000
  S   S517      1.0  0.25308  0.16676  0.73331  1.0000
  S   S518      1.0  0.26247  0.13752  0.72094  1.0000
  Fe  Fe262     1.0  0.31652  0.23430  0.61262  1.0000
  S   S519      1.0  0.30141  0.25088  0.62420  1.0000
  S   S520      1.0  0.33038  0.24006  0.59070  1.0000
  Fe  Fe263     1.0  0.30633  0.20931  0.63517  1.0000
  S   S521      1.0  0.29042  0.22361  0.64873  1.0000
  S   S522      1.0  0.30915  0.18539  0.64036  1.0000
  Fe  Fe264     1.0  0.28555  0.23755  0.62798  1.0000
  S   S523      1.0  0.26381  0.24498  0.62328  1.0000
  Fe  Fe265     1.0  0.30776  0.23549  0.64388  1.0000
  S   S524      1.0  0.31023  0.24218  0.66262  1.0000
  S   S525      1.0  0.30009  0.22225  0.61474  1.0000
  S   S526      1.0  0.32433  0.21988  0.63200  1.0000
  H   H2313     1.0  0.43185  0.26712  0.61957  1.0000
  H   H2314     1.0  0.47530  0.27596  0.66677  1.0000
  C   C1929     1.0  0.26096  0.28712  0.73272  1.0000
  C   C1930     1.0  0.48188  0.33132  0.59821  1.0000
  Fe  Fe266     1.0  0.37351  0.25699  0.67380  1.0000
  S   S527      1.0  0.37982  0.24803  0.69498  1.0000
  S   S528      1.0  0.37361  0.24385  0.65891  1.0000
  Fe  Fe267     1.0  0.36742  0.28773  0.67649  1.0000
  S   S529      1.0  0.37377  0.28142  0.69769  1.0000
  S   S530      1.0  0.35697  0.31017  0.66714  1.0000
  Fe  Fe268     1.0  0.39181  0.26577  0.68750  1.0000
  S   S531      1.0  0.41424  0.26163  0.69011  1.0000
  Fe  Fe269     1.0  0.36099  0.26461  0.70293  1.0000
  S   S532      1.0  0.34350  0.26263  0.72306  1.0000
  S   S533      1.0  0.38670  0.27361  0.66572  1.0000
  S   S534      1.0  0.35366  0.27193  0.68227  1.0000
  Fe  Fe270     1.0  0.44025  0.33124  0.65135  1.0000
  S   S535      1.0  0.42172  0.33606  0.64110  1.0000
  S   S536      1.0  0.44736  0.31188  0.66778  1.0000
  Fe  Fe271     1.0  0.45190  0.35708  0.63206  1.0000
  S   S537      1.0  0.43432  0.36423  0.62000  1.0000
  S   S538      1.0  0.47065  0.36775  0.62421  1.0000
  Fe  Fe272     1.0  0.42009  0.35887  0.64184  1.0000
  S   S539      1.0  0.39896  0.37219  0.65095  1.0000
  Fe  Fe273     1.0  0.43742  0.34096  0.62029  1.0000
  S   S540      1.0  0.44237  0.33088  0.60136  1.0000
  S   S541      1.0  0.43751  0.35352  0.65391  1.0000
  S   S542      1.0  0.45613  0.33436  0.63058  1.0000
  Fe  Fe274     1.0  0.29859  0.34935  0.71463  1.0000
  S   S543      1.0  0.30543  0.35856  0.72909  1.0000
  S   S544      1.0  0.30274  0.32595  0.71528  1.0000
  Fe  Fe275     1.0  0.31121  0.37523  0.70918  1.0000
  S   S545      1.0  0.33281  0.38061  0.70055  1.0000
  S   S546      1.0  0.30637  0.36463  0.69463  1.0000
  Fe  Fe276     1.0  0.33511  0.46276  0.63398  1.0000
  C   C1931     1.0  0.28837  0.37780  0.62683  1.0000
  H   H2315     1.0  0.35932  0.30507  0.63362  1.0000
  Fe  Fe277     1.0  0.36596  0.45154  0.63557  1.0000
  S   S547      1.0  0.36408  0.46141  0.65397  1.0000
  S   S548      1.0  0.38673  0.43891  0.62495  1.0000
  Fe  Fe278     1.0  0.34381  0.45340  0.66277  1.0000
  S   S549      1.0  0.33410  0.44622  0.68607  1.0000
  H   H2316     1.0  0.24513  0.11618  0.59376  1.0000
  H   H2317     1.0  0.30191  0.28474  0.75159  1.0000
  S   S550      1.0  0.34664  0.44192  0.64541  1.0000
  H   H2318     1.0  0.23807  0.33998  0.70844  1.0000
  C   C1932     1.0  0.25901  0.35347  0.75924  1.0000
  C   C1933     1.0  0.35546  0.29940  0.72884  1.0000
  C   C1934     1.0  0.40092  0.29124  0.61502  1.0000
  S   S551      1.0  0.31638  0.46662  0.62405  1.0000
  H   H2319     1.0  0.26765  0.26782  0.71649  1.0000
  C   C1935     1.0  0.33311  0.39882  0.69693  1.0000
  C   C1936     1.0  0.32162  0.40858  0.70310  1.0000
  C   C1937     1.0  0.32205  0.42311  0.69992  1.0000
  C   C1938     1.0  0.33381  0.42797  0.69029  1.0000
  C   C1939     1.0  0.34526  0.41823  0.68405  1.0000
  C   C1940     1.0  0.34501  0.40364  0.68758  1.0000
  H   H2320     1.0  0.31253  0.40489  0.71056  1.0000
  H   H2321     1.0  0.31323  0.43060  0.70485  1.0000
  H   H2322     1.0  0.35442  0.42191  0.67671  1.0000
  H   H2323     1.0  0.35399  0.39613  0.68291  1.0000
  C   C1941     1.0  0.39535  0.39065  0.64335  1.0000
  C   C1942     1.0  0.38473  0.39987  0.65114  1.0000
  C   C1943     1.0  0.38188  0.41470  0.64547  1.0000
  C   C1944     1.0  0.38959  0.42035  0.63196  1.0000
  C   C1945     1.0  0.40013  0.41111  0.62412  1.0000
  C   C1946     1.0  0.40299  0.39629  0.62979  1.0000
  H   H2324     1.0  0.37885  0.39558  0.66168  1.0000
  H   H2325     1.0  0.37391  0.42179  0.65168  1.0000
  H   H2326     1.0  0.40603  0.41545  0.61361  1.0000
  H   H2327     1.0  0.41101  0.38924  0.62361  1.0000
  C   C1947     1.0  0.34159  0.31475  0.68014  1.0000
  C   C1948     1.0  0.33972  0.30584  0.69383  1.0000
  C   C1949     1.0  0.32768  0.30926  0.70444  1.0000
  C   C1950     1.0  0.31735  0.32167  0.70149  1.0000
  C   C1951     1.0  0.31890  0.33049  0.68767  1.0000
  C   C1952     1.0  0.33111  0.32710  0.67700  1.0000
  H   H2328     1.0  0.34740  0.29615  0.69636  1.0000
  H   H2329     1.0  0.32656  0.30231  0.71500  1.0000
  H   H2330     1.0  0.31058  0.33972  0.68513  1.0000
  H   H2331     1.0  0.33235  0.33392  0.66634  1.0000
  C   C1953     1.0  0.42275  0.27609  0.68391  1.0000
  C   C1954     1.0  0.43593  0.27426  0.68717  1.0000
  C   C1955     1.0  0.44323  0.28539  0.68225  1.0000
  C   C1956     1.0  0.43753  0.29840  0.67385  1.0000
  C   C1957     1.0  0.42433  0.30031  0.67050  1.0000
  C   C1958     1.0  0.41690  0.28915  0.67557  1.0000
  H   H2332     1.0  0.44048  0.26420  0.69362  1.0000
  H   H2333     1.0  0.45333  0.28389  0.68503  1.0000
  H   H2334     1.0  0.41974  0.31040  0.66418  1.0000
  H   H2335     1.0  0.40672  0.29059  0.67299  1.0000
  C   C1959     1.0  0.33971  0.23941  0.71602  1.0000
  H   H2336     1.0  0.32143  0.19510  0.60661  1.0000
  H   H2337     1.0  0.34896  0.24060  0.70735  1.0000
  C   C1960     1.0  0.29677  0.44374  0.61140  1.0000
  C   C1961     1.0  0.29997  0.45464  0.61542  1.0000
  C   C1962     1.0  0.31283  0.45243  0.61951  1.0000
  H   H2338     1.0  0.31771  0.28777  0.67282  1.0000
  H   H2339     1.0  0.29324  0.26349  0.76311  1.0000
  H   H2340     1.0  0.29243  0.46484  0.61537  1.0000
  H   H2341     1.0  0.26362  0.25293  0.73077  1.0000
  C   C1963     1.0  0.23733  0.38371  0.60304  1.0000
  H   H2342     1.0  0.24515  0.40295  0.59250  1.0000
  H   H2343     1.0  0.28035  0.35864  0.61135  1.0000
  C   C1964     1.0  0.24233  0.37435  0.76649  1.0000
  C   C1965     1.0  0.32807  0.24163  0.66183  1.0000
  C   C1966     1.0  0.33196  0.24247  0.67396  1.0000
  C   C1967     1.0  0.34601  0.24301  0.67318  1.0000
  C   C1968     1.0  0.35625  0.24231  0.66037  1.0000
  C   C1969     1.0  0.35251  0.24076  0.64847  1.0000
  C   C1970     1.0  0.33839  0.24060  0.64913  1.0000
  H   H2344     1.0  0.32418  0.24260  0.68398  1.0000
  H   H2345     1.0  0.34900  0.24370  0.68254  1.0000
  H   H2346     1.0  0.36047  0.24006  0.63865  1.0000
  H   H2347     1.0  0.33546  0.23995  0.63974  1.0000
  C   C1971     1.0  0.26065  0.22887  0.62255  1.0000
  C   C1972     1.0  0.26464  0.21646  0.63267  1.0000
  C   C1973     1.0  0.26342  0.20322  0.63156  1.0000
  C   C1974     1.0  0.25824  0.20236  0.62027  1.0000
  C   C1975     1.0  0.45677  0.27410  0.63680  1.0000
  N   N130      1.0  0.45437  0.28879  0.62777  1.0000
  H   H2348     1.0  0.26869  0.21701  0.64140  1.0000
  H   H2349     1.0  0.26677  0.19366  0.63931  1.0000
  H   H2350     1.0  0.30147  0.11329  0.76504  1.0000
  H   H2351     1.0  0.24408  0.25811  0.58507  1.0000
  H   H2352     1.0  0.47612  0.32127  0.66888  1.0000
  C   C1976     1.0  0.27090  0.36715  0.61438  1.0000
  S   S552      1.0  0.33057  0.47335  0.65225  1.0000
  H   H2353     1.0  0.25444  0.37993  0.64461  1.0000
  C   C1977     1.0  0.23788  0.11298  0.74758  1.0000
  S   S553      1.0  0.30222  0.41664  0.60676  1.0000
  H   H2354     1.0  0.47835  0.26706  0.62458  1.0000
  N   N131      1.0  0.28113  0.12669  0.76188  1.0000
  H   H2355     1.0  0.41217  0.22206  0.58394  1.0000
  H   H2356     1.0  0.30538  0.29087  0.77356  1.0000
  H   H2357     1.0  0.33694  0.46358  0.57962  1.0000
  C   C1978     1.0  0.35204  0.48007  0.68089  1.0000
  C   C1979     1.0  0.32753  0.31354  0.73862  1.0000
  Fe  Fe279     1.0  0.28425  0.42401  0.59493  1.0000
  H   H2358     1.0  0.27745  0.14865  0.76345  1.0000
  H   H2359     1.0  0.24228  0.27735  0.72239  1.0000
  C   C1980     1.0  0.29594  0.16719  0.68850  1.0000
  C   C1981     1.0  0.30920  0.16141  0.68054  1.0000
  C   C1982     1.0  0.31311  0.16692  0.66573  1.0000
  C   C1983     1.0  0.30402  0.17861  0.65890  1.0000
  C   C1984     1.0  0.29080  0.18453  0.66684  1.0000
  C   C1985     1.0  0.28670  0.17869  0.68159  1.0000
  H   H2360     1.0  0.31641  0.15255  0.68581  1.0000
  H   H2361     1.0  0.32333  0.16230  0.65962  1.0000
  H   H2362     1.0  0.28368  0.19350  0.66160  1.0000
  H   H2363     1.0  0.27655  0.18338  0.68765  1.0000
  H   H2364     1.0  0.30846  0.23507  0.58014  1.0000
  H   H2365     1.0  0.45477  0.29925  0.60543  1.0000
  C   C1986     1.0  0.25566  0.26633  0.75228  1.0000
  H   H2366     1.0  0.24075  0.36342  0.67129  1.0000
  C   C1987     1.0  0.36733  0.25281  0.58276  1.0000
  H   H2367     1.0  0.34094  0.20723  0.59572  1.0000
  H   H2368     1.0  0.30760  0.40964  0.68064  1.0000
  S   S554      1.0  0.27617  0.36194  0.71819  1.0000
  H   H2369     1.0  0.48128  0.32845  0.64339  1.0000
  H   H2370     1.0  0.29720  0.47348  0.58590  1.0000
  C   C1988     1.0  0.42834  0.32790  0.59595  1.0000
  C   C1989     1.0  0.41425  0.33532  0.59984  1.0000
  H   H2371     1.0  0.48263  0.35750  0.67126  1.0000
  C   C1990     1.0  0.23689  0.13683  0.59916  1.0000
  H   H2372     1.0  0.41168  0.34290  0.60660  1.0000
  C   C1991     1.0  0.34451  0.24591  0.59262  1.0000
  C   C1992     1.0  0.34424  0.24832  0.60586  1.0000
  Fe  Fe280     1.0  0.28441  0.37806  0.69920  1.0000
  C   C1993     1.0  0.43810  0.41127  0.62858  1.0000
  H   H2373     1.0  0.46888  0.28413  0.60796  1.0000
  H   H2374     1.0  0.25091  0.33416  0.76559  1.0000
  H   H2375     1.0  0.33524  0.24688  0.61472  1.0000
  Fe  Fe281     1.0  0.39269  0.27249  0.57899  1.0000
  S   S555      1.0  0.24258  0.23478  0.74555  1.0000
  H   H2376     1.0  0.46454  0.23552  0.66111  1.0000
  H   H2377     1.0  0.39268  0.33932  0.59718  1.0000
  C   C1994     1.0  0.48373  0.28128  0.66001  1.0000
  H   H2378     1.0  0.24877  0.27374  0.75928  1.0000
  H   H2379     1.0  0.39139  0.22552  0.60148  1.0000
  H   H2380     1.0  0.32793  0.41598  0.66596  1.0000
  H   H2381     1.0  0.34548  0.47882  0.70907  1.0000
  H   H2382     1.0  0.46632  0.36067  0.65533  1.0000
  H   H2383     1.0  0.29639  0.41211  0.64134  1.0000
  H   H2384     1.0  0.27254  0.32395  0.72134  1.0000
  C   C1995     1.0  0.48477  0.29413  0.66229  1.0000
  H   H2385     1.0  0.23954  0.25379  0.64959  1.0000
  H   H2386     1.0  0.40867  0.34003  0.68826  1.0000
  H   H2387     1.0  0.47166  0.32773  0.60135  1.0000
  H   H2388     1.0  0.28682  0.44562  0.60835  1.0000
  H   H2389     1.0  0.28503  0.38603  0.61795  1.0000
  H   H2390     1.0  0.36906  0.26941  0.62551  1.0000
  C   C1996     1.0  0.23829  0.36595  0.73178  1.0000
  H   H2391     1.0  0.27297  0.37761  0.60760  1.0000
  H   H2392     1.0  0.43721  0.21888  0.60675  1.0000
  H   H2393     1.0  0.32096  0.47015  0.59173  1.0000
  C   C1997     1.0  0.25820  0.34820  0.67945  1.0000
  H   H2394     1.0  0.40393  0.24063  0.58411  1.0000
  C   C1998     1.0  0.35142  0.31422  0.72445  1.0000
  H   H2395     1.0  0.30537  0.30114  0.73972  1.0000
  C   C1999     1.0  0.23773  0.20982  0.74356  1.0000
  H   H2396     1.0  0.23699  0.09672  0.73765  1.0000
  H   H2397     1.0  0.32699  0.41826  0.61506  1.0000
  C   C2000     1.0  0.47368  0.39825  0.64913  1.0000
  H   H2398     1.0  0.33352  0.47090  0.70512  1.0000
  H   H2399     1.0  0.26994  0.34375  0.63602  1.0000
  C   C2001     1.0  0.39623  0.26824  0.62897  1.0000
  C   C2002     1.0  0.47725  0.36161  0.65072  1.0000
  C   C2003     1.0  0.26681  0.26338  0.72821  1.0000
  H   H2400     1.0  0.24663  0.11973  0.65244  1.0000
  H   H2401     1.0  0.43160  0.29158  0.63098  1.0000
  H   H2402     1.0  0.25169  0.23770  0.60380  1.0000
  H   H2403     1.0  0.36106  0.39404  0.63698  1.0000
  C   C2004     1.0  0.25496  0.22811  0.61155  1.0000
  C   C2005     1.0  0.27122  0.29231  0.68207  1.0000
  H   H2404     1.0  0.26294  0.30167  0.67939  1.0000
  C   C2006     1.0  0.31228  0.29758  0.76519  1.0000
  H   H2405     1.0  0.46163  0.29789  0.64091  1.0000
  H   H2406     1.0  0.26179  0.27813  0.67671  1.0000
  H   H2407     1.0  0.37648  0.30937  0.62647  1.0000
  C   C2007     1.0  0.33965  0.39414  0.63645  1.0000
  H   H2408     1.0  0.29716  0.19476  0.61346  1.0000
  S   S556      1.0  0.40914  0.28187  0.58187  1.0000
  H   H2409     1.0  0.29038  0.40840  0.67995  1.0000
  H   H2410     1.0  0.25110  0.25661  0.75543  1.0000
  H   H2411     1.0  0.29050  0.18046  0.61247  1.0000
  Fe  Fe282     1.0  0.25279  0.42664  0.59686  1.0000
  H   H2412     1.0  0.28371  0.41135  0.65811  1.0000
  H   H2413     1.0  0.26180  0.36550  0.61115  1.0000
  H   H2414     1.0  0.43063  0.20916  0.59825  1.0000
  H   H2415     1.0  0.31034  0.26210  0.70801  1.0000
  C   C2008     1.0  0.28266  0.29363  0.68668  1.0000
  Fe  Fe283     1.0  0.26084  0.22042  0.75501  1.0000
  H   H2416     1.0  0.28472  0.10777  0.75373  1.0000
  N   N132      1.0  0.30587  0.28340  0.69467  1.0000
  H   H2417     1.0  0.30627  0.38671  0.62465  1.0000
  N   N133      1.0  0.26772  0.36671  0.63000  1.0000
  H   H2418     1.0  0.30481  0.30778  0.76169  1.0000
  C   C2009     1.0  0.25651  0.37944  0.63315  1.0000
  H   H2419     1.0  0.30897  0.17746  0.61251  1.0000
  C   C2010     1.0  0.28065  0.36695  0.63429  1.0000
  H   H2420     1.0  0.36164  0.47770  0.68534  1.0000
  C   C2011     1.0  0.28556  0.35702  0.64621  1.0000
  C   C2012     1.0  0.39078  0.28270  0.62252  1.0000
  C   C2013     1.0  0.29760  0.35784  0.65017  1.0000
  C   C2014     1.0  0.32506  0.39872  0.64204  1.0000
  C   C2015     1.0  0.31935  0.42834  0.61536  1.0000
  H   H2421     1.0  0.31591  0.16910  0.58949  1.0000
  C   C2016     1.0  0.47155  0.40409  0.66093  1.0000
  Fe  Fe284     1.0  0.25053  0.16708  0.58062  1.0000
  H   H2422     1.0  0.25940  0.38965  0.62647  1.0000
  H   H2423     1.0  0.30943  0.29070  0.71160  1.0000
  H   H2424     1.0  0.24628  0.37925  0.63106  1.0000
  H   H2425     1.0  0.47542  0.29098  0.62708  1.0000
  H   H2426     1.0  0.43985  0.42232  0.62624  1.0000
  H   H2427     1.0  0.26952  0.34850  0.75397  1.0000
  H   H2428     1.0  0.28020  0.34860  0.65274  1.0000
  H   H2429     1.0  0.39759  0.30234  0.60985  1.0000
  H   H2430     1.0  0.30105  0.35024  0.65940  1.0000
  C   C2017     1.0  0.28699  0.24731  0.58534  1.0000
  C   C2018     1.0  0.41556  0.28563  0.61384  1.0000
  H   H2431     1.0  0.26635  0.26257  0.75498  1.0000
  C   C2019     1.0  0.44795  0.40519  0.64981  1.0000
  C   C2020     1.0  0.46211  0.39879  0.64362  1.0000
  C   C2021     1.0  0.44614  0.41117  0.66178  1.0000
  Fe  Fe285     1.0  0.26768  0.45005  0.57754  1.0000
  C   C2022     1.0  0.23818  0.39784  0.60175  1.0000
  C   C2023     1.0  0.33134  0.29845  0.74356  1.0000
  C   C2024     1.0  0.29373  0.28162  0.69011  1.0000
  H   H2432     1.0  0.35528  0.25475  0.61782  1.0000
  C   C2025     1.0  0.25382  0.21481  0.61038  1.0000
  H   H2433     1.0  0.46434  0.39387  0.63462  1.0000
  H   H2434     1.0  0.43582  0.41624  0.66725  1.0000
  C   C2026     1.0  0.43954  0.29717  0.63152  1.0000
  C   C2027     1.0  0.27379  0.25269  0.58147  1.0000
  C   C2028     1.0  0.23799  0.12210  0.60157  1.0000
  H   H2435     1.0  0.34313  0.38828  0.62794  1.0000
  C   C2029     1.0  0.44942  0.25563  0.65786  1.0000
  N   N134      1.0  0.36304  0.35059  0.67854  1.0000
  C   C2030     1.0  0.36247  0.34850  0.66456  1.0000
  C   C2031     1.0  0.34997  0.34750  0.68932  1.0000
  C   C2032     1.0  0.36274  0.36597  0.67674  1.0000
  C   C2033     1.0  0.37589  0.34076  0.68312  1.0000
  C   C2034     1.0  0.37719  0.32569  0.68646  1.0000
  C   C2035     1.0  0.38765  0.34568  0.68386  1.0000
  C   C2036     1.0  0.38926  0.31620  0.69071  1.0000
  H   H2436     1.0  0.36172  0.33742  0.66525  1.0000
  H   H2437     1.0  0.35308  0.35583  0.66057  1.0000
  H   H2438     1.0  0.37227  0.35051  0.65628  1.0000
  H   H2439     1.0  0.34844  0.33661  0.69045  1.0000
  H   H2440     1.0  0.34015  0.35506  0.68640  1.0000
  H   H2441     1.0  0.35023  0.34862  0.70007  1.0000
  H   H2442     1.0  0.37156  0.36950  0.66794  1.0000
  H   H2443     1.0  0.35268  0.37305  0.67391  1.0000
  H   H2444     1.0  0.36339  0.36824  0.68686  1.0000
  H   H2445     1.0  0.36897  0.32109  0.68558  1.0000
  H   H2446     1.0  0.38790  0.35689  0.68108  1.0000
  H   H2447     1.0  0.39006  0.30473  0.69315  1.0000
  H   H2448     1.0  0.26600  0.47075  0.59851  1.0000
  C   C2037     1.0  0.42182  0.41273  0.65124  1.0000
  S   S557      1.0  0.28971  0.39028  0.71195  1.0000
  H   H2449     1.0  0.36068  0.29923  0.60957  1.0000
  H   H2450     1.0  0.44034  0.22274  0.58764  1.0000
  C   C2038     1.0  0.30050  0.37840  0.63075  1.0000
  H   H2451     1.0  0.32384  0.29338  0.68517  1.0000
  C   C2039     1.0  0.26941  0.31374  0.72443  1.0000
  C   C2040     1.0  0.32372  0.19860  0.59505  1.0000
  H   H2452     1.0  0.24387  0.37793  0.59490  1.0000
  C   C2041     1.0  0.26314  0.31000  0.71556  1.0000
  H   H2453     1.0  0.45623  0.41511  0.67640  1.0000
  N   N135      1.0  0.27290  0.15211  0.65188  1.0000
  C   C2042     1.0  0.28374  0.15999  0.64197  1.0000
  C   C2043     1.0  0.26103  0.16262  0.65851  1.0000
  C   C2044     1.0  0.27984  0.14182  0.66329  1.0000
  C   C2045     1.0  0.26708  0.14466  0.64459  1.0000
  C   C2046     1.0  0.25889  0.13433  0.65268  1.0000
  C   C2047     1.0  0.26843  0.14811  0.62944  1.0000
  C   C2048     1.0  0.25282  0.12761  0.64604  1.0000
  C   C2049     1.0  0.26222  0.14139  0.62292  1.0000
  C   C2050     1.0  0.25451  0.13112  0.63119  1.0000
  H   H2454     1.0  0.27888  0.16927  0.63435  1.0000
  H   H2455     1.0  0.28869  0.16467  0.64780  1.0000
  H   H2456     1.0  0.29250  0.15285  0.63587  1.0000
  H   H2457     1.0  0.25558  0.17057  0.65026  1.0000
  H   H2458     1.0  0.26485  0.16858  0.66410  1.0000
  H   H2459     1.0  0.25283  0.15731  0.66657  1.0000
  H   H2460     1.0  0.28790  0.13293  0.65900  1.0000
  H   H2461     1.0  0.28531  0.14708  0.66805  1.0000
  H   H2462     1.0  0.27211  0.13706  0.67255  1.0000
  H   H2463     1.0  0.25696  0.13142  0.66423  1.0000
  H   H2464     1.0  0.27403  0.15613  0.62238  1.0000
  C   C2051     1.0  0.43229  0.21991  0.59769  1.0000
  H   H2465     1.0  0.44152  0.25236  0.66742  1.0000
  C   C2052     1.0  0.28000  0.11946  0.75120  1.0000
  N   N136      1.0  0.32052  0.29045  0.75315  1.0000
  H   H2466     1.0  0.48336  0.33412  0.60768  1.0000
  H   H2467     1.0  0.31632  0.28437  0.73595  1.0000
  S   S558      1.0  0.27184  0.38711  0.68212  1.0000
  C   C2053     1.0  0.35559  0.25273  0.60763  1.0000
  H   H2468     1.0  0.35318  0.40792  0.65588  1.0000
  N   N137      1.0  0.41866  0.23076  0.59808  1.0000
  C   C2054     1.0  0.31058  0.29016  0.74472  1.0000
  H   H2469     1.0  0.23877  0.17665  0.77405  1.0000
  H   H2470     1.0  0.48274  0.24309  0.63956  1.0000
  C   C2055     1.0  0.40813  0.22643  0.61137  1.0000
  C   C2056     1.0  0.41098  0.22476  0.62502  1.0000
  C   C2057     1.0  0.39477  0.22411  0.61127  1.0000
  C   C2058     1.0  0.40101  0.22121  0.63773  1.0000
  C   C2059     1.0  0.38490  0.22054  0.62405  1.0000
  C   C2060     1.0  0.38802  0.21909  0.63723  1.0000
  H   H2471     1.0  0.26321  0.14437  0.75920  1.0000
  H   H2472     1.0  0.30722  0.23432  0.74774  1.0000
  H   H2473     1.0  0.43779  0.30786  0.62414  1.0000
  C   C2061     1.0  0.35602  0.24821  0.58103  1.0000
  S   S559      1.0  0.25358  0.33289  0.67843  1.0000
  C   C2062     1.0  0.27377  0.12111  0.77678  1.0000
  H   H2474     1.0  0.42689  0.24405  0.60627  1.0000
  H   H2475     1.0  0.24212  0.11961  0.73752  1.0000
  H   H2476     1.0  0.45971  0.35323  0.59099  1.0000
  H   H2477     1.0  0.42082  0.22645  0.62597  1.0000
  C   C2063     1.0  0.33511  0.20547  0.58890  1.0000
  H   H2478     1.0  0.40313  0.22045  0.64806  1.0000
  H   H2479     1.0  0.37458  0.21932  0.62371  1.0000
  H   H2480     1.0  0.38018  0.21671  0.64711  1.0000
  C   C2064     1.0  0.26688  0.37228  0.68037  1.0000
  H   H2481     1.0  0.27659  0.33588  0.68797  1.0000
  H   H2482     1.0  0.29503  0.30188  0.70406  1.0000
  H   H2483     1.0  0.26323  0.14424  0.61136  1.0000
  S   S560      1.0  0.24060  0.30747  0.76856  1.0000
  C   C2065     1.0  0.41085  0.26282  0.62805  1.0000
  H   H2484     1.0  0.42302  0.29234  0.60770  1.0000
  H   H2485     1.0  0.37355  0.29610  0.64276  1.0000
  H   H2486     1.0  0.31447  0.36896  0.64549  1.0000
  N   N138      1.0  0.30262  0.20503  0.69716  1.0000
  C   C2066     1.0  0.30545  0.21793  0.69948  1.0000
  C   C2067     1.0  0.30732  0.19270  0.70854  1.0000
  C   C2068     1.0  0.31154  0.20218  0.68314  1.0000
  C   C2069     1.0  0.28733  0.20760  0.69713  1.0000
  C   C2070     1.0  0.27800  0.19923  0.70728  1.0000
  C   C2071     1.0  0.28126  0.21904  0.68688  1.0000
  C   C2072     1.0  0.26358  0.20216  0.70700  1.0000
  C   C2073     1.0  0.26684  0.22181  0.68666  1.0000
  C   C2074     1.0  0.25801  0.21337  0.69672  1.0000
  H   H2487     1.0  0.29833  0.22087  0.70951  1.0000
  H   H2488     1.0  0.31668  0.21624  0.70035  1.0000
  H   H2489     1.0  0.30368  0.22738  0.69061  1.0000
  H   H2490     1.0  0.30143  0.19438  0.71946  1.0000
  H   H2491     1.0  0.31881  0.19116  0.70838  1.0000
  H   H2492     1.0  0.30587  0.18250  0.70723  1.0000
  H   H2493     1.0  0.30958  0.21140  0.67404  1.0000
  H   H2494     1.0  0.32312  0.19996  0.68290  1.0000
  H   H2495     1.0  0.30942  0.19277  0.68083  1.0000
  H   H2496     1.0  0.28158  0.19025  0.71546  1.0000
  H   H2497     1.0  0.28769  0.22594  0.67896  1.0000
  H   H2498     1.0  0.25668  0.19561  0.71479  1.0000
  H   H2499     1.0  0.26251  0.23056  0.67866  1.0000
  H   H2500     1.0  0.24682  0.21549  0.69660  1.0000
  C   C2075     1.0  0.42052  0.27145  0.62041  1.0000
  C   C2076     1.0  0.46989  0.26419  0.63362  1.0000
  H   H2501     1.0  0.28820  0.21011  0.59176  1.0000
  H   H2502     1.0  0.26136  0.31735  0.70556  1.0000
  H   H2503     1.0  0.43367  0.38440  0.65819  1.0000
  H   H2504     1.0  0.44739  0.40488  0.62220  1.0000
  H   H2505     1.0  0.36719  0.27382  0.64245  1.0000
  C   C2077     1.0  0.27037  0.34648  0.68451  1.0000
  N   N139      1.0  0.25644  0.27331  0.73683  1.0000
  H   H2506     1.0  0.28410  0.35695  0.68887  1.0000
  H   H2507     1.0  0.30332  0.43257  0.64510  1.0000
  H   H2508     1.0  0.37712  0.30484  0.60357  1.0000
  H   H2509     1.0  0.38940  0.26087  0.63486  1.0000
  C   C2078     1.0  0.37099  0.30038  0.63196  1.0000
  H   H2510     1.0  0.24300  0.20465  0.75240  1.0000
  H   H2511     1.0  0.42569  0.38890  0.64301  1.0000
  C   C2079     1.0  0.30057  0.29048  0.70704  1.0000
  C   C2080     1.0  0.29280  0.26828  0.68831  1.0000
  C   C2081     1.0  0.28135  0.26710  0.68359  1.0000
  H   H2512     1.0  0.29312  0.28478  0.71584  1.0000
  S   S561      1.0  0.29301  0.19718  0.77161  1.0000
  H   H2513     1.0  0.32450  0.27135  0.70306  1.0000
  H   H2514     1.0  0.30093  0.25863  0.69012  1.0000
  H   H2515     1.0  0.28109  0.25688  0.68193  1.0000
  C   C2082     1.0  0.37231  0.29543  0.60919  1.0000
  C   C2083     1.0  0.24209  0.27544  0.73398  1.0000
  H   H2516     1.0  0.28835  0.24917  0.59507  1.0000
  C   C2084     1.0  0.28787  0.25971  0.77403  1.0000
  C   C2085     1.0  0.27055  0.27906  0.68055  1.0000
  S   S562      1.0  0.38153  0.25959  0.59895  1.0000
  S   S563      1.0  0.26822  0.37889  0.75052  1.0000
  H   H2517     1.0  0.23731  0.26588  0.73915  1.0000
  C   C2086     1.0  0.29513  0.40750  0.65311  1.0000
  S   S564      1.0  0.27210  0.40908  0.59306  1.0000
  H   H2518     1.0  0.43643  0.27621  0.65282  1.0000
  C   C2087     1.0  0.31412  0.29244  0.68253  1.0000
  C   C2088     1.0  0.26187  0.35376  0.63763  1.0000
  H   H2519     1.0  0.24965  0.38230  0.70783  1.0000
  H   H2520     1.0  0.26870  0.12101  0.75066  1.0000
  C   C2089     1.0  0.30195  0.40567  0.67490  1.0000
  H   H2521     1.0  0.27933  0.14656  0.74584  1.0000
  H   H2522     1.0  0.43701  0.29934  0.64243  1.0000
  H   H2523     1.0  0.25448  0.29439  0.71216  1.0000
  C   C2090     1.0  0.25911  0.29684  0.71952  1.0000
  S   S565      1.0  0.27575  0.20189  0.74627  1.0000
  C   C2091     1.0  0.46237  0.24615  0.65435  1.0000
  H   H2524     1.0  0.41300  0.41248  0.64659  1.0000
  H   H2525     1.0  0.42875  0.41195  0.62425  1.0000
  N   N140      1.0  0.30488  0.41174  0.65921  1.0000
  N   N141      1.0  0.43583  0.40486  0.64422  1.0000
  C   C2092     1.0  0.36623  0.27840  0.63110  1.0000
  H   H2526     1.0  0.25249  0.35364  0.63374  1.0000
  C   C2093     1.0  0.32019  0.40677  0.65292  1.0000
  C   C2094     1.0  0.33080  0.40986  0.65777  1.0000
  N   N142      1.0  0.30320  0.18979  0.59249  1.0000
  Fe  Fe286     1.0  0.25534  0.18617  0.59660  1.0000
  C   C2095     1.0  0.40049  0.32138  0.69151  1.0000
  C   C2096     1.0  0.25589  0.36802  0.75954  1.0000
  C   C2097     1.0  0.30638  0.43052  0.61141  1.0000
  H   H2527     1.0  0.30784  0.30353  0.67954  1.0000
  H   H2528     1.0  0.28975  0.43169  0.66133  1.0000
  H   H2529     1.0  0.28568  0.12386  0.74014  1.0000
  C   C2098     1.0  0.34532  0.40523  0.65210  1.0000
  C   C2099     1.0  0.29653  0.12475  0.76122  1.0000
  C   C2100     1.0  0.27466  0.35848  0.68500  1.0000
  H   H2530     1.0  0.28289  0.30422  0.68729  1.0000
  H   H2531     1.0  0.42173  0.42423  0.64979  1.0000
  H   H2532     1.0  0.44460  0.38341  0.64064  1.0000
  C   C2101     1.0  0.27174  0.30429  0.73726  1.0000
  C   C2102     1.0  0.47258  0.25042  0.64224  1.0000
  H   H2533     1.0  0.29683  0.39564  0.65514  1.0000
  H   H2534     1.0  0.31671  0.31946  0.74159  1.0000
  C   C2103     1.0  0.46406  0.29662  0.62962  1.0000
  H   H2535     1.0  0.35472  0.28326  0.63145  1.0000
  H   H2536     1.0  0.37657  0.28754  0.60222  1.0000
  H   H2537     1.0  0.28064  0.19531  0.59326  1.0000
  C   C2104     1.0  0.27502  0.14219  0.75739  1.0000
  H   H2538     1.0  0.45117  0.28164  0.61060  1.0000
  C   C2105     1.0  0.43491  0.38976  0.64660  1.0000
  H   H2539     1.0  0.24944  0.21422  0.60191  1.0000
  H   H2540     1.0  0.27766  0.26109  0.73035  1.0000
  H   H2541     1.0  0.30539  0.39380  0.67720  1.0000
  S   S566      1.0  0.39331  0.32153  0.57859  1.0000
  C   C2106     1.0  0.43155  0.31812  0.58718  1.0000
  H   H2542     1.0  0.30744  0.43173  0.66175  1.0000
  C   C2107     1.0  0.34976  0.39740  0.64146  1.0000
  H   H2543     1.0  0.34938  0.28007  0.74081  1.0000
  H   H2544     1.0  0.33672  0.22108  0.71074  1.0000
  C   C2108     1.0  0.26772  0.29112  0.74134  1.0000
  C   C2109     1.0  0.25475  0.37404  0.67519  1.0000
  S   S567      1.0  0.35451  0.47171  0.62269  1.0000
  C   C2110     1.0  0.32673  0.27539  0.75960  1.0000
  C   C2111     1.0  0.36718  0.25484  0.59616  1.0000
  C   C2112     1.0  0.33278  0.22834  0.71797  1.0000
  H   H2545     1.0  0.41463  0.25185  0.63336  1.0000
  H   H2546     1.0  0.27657  0.30723  0.74421  1.0000
  C   C2113     1.0  0.33493  0.24867  0.72547  1.0000
  H   H2547     1.0  0.36627  0.29388  0.72489  1.0000
  S   S568      1.0  0.26462  0.44045  0.60115  1.0000
  H   H2548     1.0  0.24654  0.36620  0.73710  1.0000
  S   S569      1.0  0.25787  0.18559  0.61841  1.0000
  C   C2114     1.0  0.24847  0.34538  0.76578  1.0000
  H   H2549     1.0  0.32143  0.26441  0.68997  1.0000
  C   C2115     1.0  0.42081  0.31594  0.58202  1.0000
  C   C2116     1.0  0.45742  0.28835  0.61235  1.0000
  C   C2117     1.0  0.30511  0.36844  0.64241  1.0000
  S   S570      1.0  0.27807  0.22996  0.75613  1.0000
  C   C2118     1.0  0.39974  0.33607  0.68798  1.0000
  C   C2119     1.0  0.34560  0.29156  0.73818  1.0000
  H   H2550     1.0  0.31783  0.39619  0.63739  1.0000
  N   N143      1.0  0.37533  0.28899  0.62371  1.0000
  C   C2120     1.0  0.44660  0.26941  0.64928  1.0000
  H   H2551     1.0  0.30248  0.12848  0.75008  1.0000
  C   C2121     1.0  0.31585  0.26967  0.69912  1.0000
  C   C2122     1.0  0.33746  0.32128  0.72928  1.0000
  C   C2123     1.0  0.32105  0.22642  0.72944  1.0000
  H   H2552     1.0  0.41886  0.40785  0.66289  1.0000
  C   C2124     1.0  0.40352  0.33331  0.59447  1.0000
  Fe  Fe287     1.0  0.28343  0.37276  0.73078  1.0000
  S   S571      1.0  0.31288  0.21215  0.73179  1.0000
  C   C2125     1.0  0.32301  0.24696  0.73677  1.0000
  H   H2553     1.0  0.33264  0.43756  0.62240  1.0000
  C   C2126     1.0  0.31611  0.23583  0.73877  1.0000
  H   H2554     1.0  0.26981  0.28436  0.75143  1.0000
  C   C2127     1.0  0.30121  0.42759  0.65677  1.0000
  H   H2555     1.0  0.29843  0.13098  0.76792  1.0000
  S   S572      1.0  0.23961  0.13319  0.76056  1.0000
  H   H2556     1.0  0.25794  0.35329  0.64931  1.0000
  Fe  Fe288     1.0  0.29300  0.21050  0.74926  1.0000
  H   H2557     1.0  0.31924  0.25406  0.74415  1.0000
  H   H2558     1.0  0.40992  0.31398  0.69462  1.0000
  H   H2559     1.0  0.32532  0.47940  0.68331  1.0000
  H   H2560     1.0  0.26477  0.10542  0.77240  1.0000
  C   C2128     1.0  0.32259  0.43928  0.61943  1.0000
  H   H2561     1.0  0.33420  0.33277  0.72561  1.0000
  H   H2562     1.0  0.46311  0.30746  0.62242  1.0000
  C   C2129     1.0  0.45782  0.41060  0.66719  1.0000
  C   C2130     1.0  0.29992  0.18543  0.60841  1.0000
  H   H2563     1.0  0.29707  0.17108  0.59145  1.0000
  S   S573      1.0  0.23797  0.32684  0.64966  1.0000
  H   H2564     1.0  0.35910  0.32021  0.71717  1.0000
  H   H2565     1.0  0.23992  0.38554  0.76688  1.0000
  H   H2566     1.0  0.31952  0.29984  0.77055  1.0000
  C   C2131     1.0  0.29028  0.19989  0.58826  1.0000
  C   C2132     1.0  0.47037  0.35566  0.58915  1.0000
  H   H2567     1.0  0.24974  0.12594  0.62608  1.0000
  H   H2568     1.0  0.42809  0.24913  0.58739  1.0000
  H   H2569     1.0  0.33179  0.26882  0.75137  1.0000
  C   C2133     1.0  0.31557  0.19666  0.58641  1.0000
  H   H2570     1.0  0.31841  0.26987  0.76729  1.0000
  C   C2134     1.0  0.24261  0.38817  0.71616  1.0000
  H   H2571     1.0  0.47043  0.35841  0.59920  1.0000
  S   S574      1.0  0.27745  0.28772  0.77577  1.0000
  H   H2572     1.0  0.24349  0.46434  0.59269  1.0000
  H   H2573     1.0  0.41110  0.25279  0.59955  1.0000
  H   H2574     1.0  0.24371  0.35959  0.72342  1.0000
  C   C2135     1.0  0.42133  0.24474  0.59782  1.0000
  H   H2575     1.0  0.30265  0.45646  0.58117  1.0000
  H   H2576     1.0  0.44241  0.31232  0.58427  1.0000
  H   H2577     1.0  0.48056  0.40345  0.66527  1.0000
  H   H2578     1.0  0.24981  0.38906  0.72249  1.0000
  H   H2579     1.0  0.35002  0.46948  0.68138  1.0000
  H   H2580     1.0  0.24866  0.38469  0.67166  1.0000
  H   H2581     1.0  0.33481  0.27488  0.76554  1.0000
  C   C2136     1.0  0.41396  0.23231  0.58472  1.0000
  H   H2582     1.0  0.24141  0.33328  0.73349  1.0000
  H   H2583     1.0  0.23805  0.39925  0.71078  1.0000
  Fe  Fe289     1.0  0.27421  0.19055  0.76947  1.0000
  C   C2137     1.0  0.30601  0.17674  0.58688  1.0000
  N   N144      1.0  0.48216  0.34343  0.58556  1.0000
  H   H2584     1.0  0.32431  0.45266  0.58823  1.0000
  H   H2585     1.0  0.47099  0.36540  0.58037  1.0000
  C   C2138     1.0  0.32533  0.46391  0.58315  1.0000
  S   S575      1.0  0.24728  0.14507  0.58317  1.0000
  H   H2586     1.0  0.48437  0.39303  0.64438  1.0000
  C   C2139     1.0  0.40681  0.32371  0.58544  1.0000
  H   H2587     1.0  0.47679  0.29824  0.67090  1.0000
  C   C2140     1.0  0.48210  0.36497  0.63581  1.0000
  Fe  Fe290     1.0  0.35090  0.48081  0.64201  1.0000
  C   C2141     1.0  0.26095  0.11002  0.80572  1.0000
  C   C2142     1.0  0.25994  0.10456  0.79468  1.0000
  H   H2588     1.0  0.26304  0.18368  0.82409  1.0000
  H   H2589     1.0  0.23869  0.17780  0.87194  1.0000
  S   S576      1.0  0.24434  0.16748  0.84564  1.0000
  H   H2590     1.0  0.24844  0.23303  0.79024  1.0000
  Fe  Fe291     1.0  0.27670  0.21598  0.77828  1.0000
  C   C2143     1.0  0.24109  0.24231  0.79438  1.0000
  H   H2591     1.0  0.24550  0.21979  0.81376  1.0000
  S   S577      1.0  0.24076  0.27817  0.79305  1.0000
  S   S578      1.0  0.26930  0.16882  0.77951  1.0000
  H   H2592     1.0  0.27066  0.22134  0.82739  1.0000
  C   C2144     1.0  0.26289  0.21713  0.83647  1.0000
  H   H2593     1.0  0.27926  0.13556  0.78629  1.0000
  C   C2145     1.0  0.26795  0.12116  0.80249  1.0000
  H   H2594     1.0  0.24071  0.19873  0.83183  1.0000
  C   C2146     1.0  0.27417  0.12673  0.78825  1.0000
  H   H2595     1.0  0.24999  0.18726  0.88438  1.0000
  H   H2596     1.0  0.24711  0.05539  0.83962  1.0000
  H   H2597     1.0  0.26798  0.27172  0.80394  1.0000
  C   C2147     1.0  0.27945  0.24042  0.79272  1.0000
  C   C2148     1.0  0.26619  0.11000  0.78040  1.0000
  S   S579      1.0  0.25456  0.15413  0.97731  1.0000
  C   C2149     1.0  0.24005  0.19570  0.88603  1.0000
  S   S580      1.0  0.24054  0.12809  0.86656  1.0000
  H   H2598     1.0  0.24292  0.14968  0.82755  1.0000
  Fe  Fe292     1.0  0.25396  0.29467  0.78429  1.0000
  H   H2599     1.0  0.26846  0.12562  0.81107  1.0000
  H   H2600     1.0  0.25804  0.18561  0.85893  1.0000
  S   S581      1.0  0.27604  0.22326  0.79780  1.0000
  C   C2150     1.0  0.24065  0.22090  0.85402  1.0000
  C   C2151     1.0  0.26532  0.20252  0.84257  1.0000
  C   C2152     1.0  0.25055  0.22628  0.84210  1.0000
  C   C2153     1.0  0.25203  0.16687  0.82754  1.0000
  C   C2154     1.0  0.26061  0.17648  0.81923  1.0000
  C   C2155     1.0  0.26609  0.17690  0.80456  1.0000
  C   C2156     1.0  0.26318  0.16757  0.79812  1.0000
  C   C2157     1.0  0.25499  0.15760  0.80649  1.0000
  C   C2158     1.0  0.24938  0.15726  0.82120  1.0000
  H   H2601     1.0  0.27265  0.18442  0.79827  1.0000
  H   H2602     1.0  0.25256  0.15050  0.80152  1.0000
  C   C2159     1.0  0.28054  0.26932  0.78292  1.0000
  H   H2603     1.0  0.27487  0.19543  0.83799  1.0000
  C   C2160     1.0  0.27307  0.24984  0.80194  1.0000
  C   C2161     1.0  0.28734  0.24521  0.77898  1.0000
  H   H2604     1.0  0.25604  0.10583  0.81678  1.0000
  H   H2605     1.0  0.24259  0.25192  0.78564  1.0000
  H   H2606     1.0  0.24472  0.24352  0.80350  1.0000
  C   C2162     1.0  0.27360  0.26430  0.79702  1.0000
  H   H2607     1.0  0.24310  0.20496  0.88765  1.0000
  H   H2608     1.0  0.26701  0.24619  0.81259  1.0000
  H   H2609     1.0  0.25418  0.09612  0.79718  1.0000
  S   S582      1.0  0.24273  0.30677  0.80167  1.0000
  C   C2163     1.0  0.25555  0.19702  0.85453  1.0000
  H   H2610     1.0  0.24870  0.23767  0.83726  1.0000
  C   C2164     1.0  0.24289  0.20603  0.86065  1.0000
  S   S583      1.0  0.25782  0.20845  0.77785  1.0000
  C   C2165     1.0  0.27684  0.82286  0.04065  1.0000
  Fe  Fe293     1.0  0.27452  0.85079  0.15826  1.0000
  S   S584      1.0  0.28513  0.86697  0.16024  1.0000
  S   S585      1.0  0.25214  0.84833  0.16725  1.0000
  Fe  Fe294     1.0  0.29950  0.83742  0.13793  1.0000
  S   S586      1.0  0.31287  0.85223  0.13754  1.0000
  S   S587      1.0  0.30523  0.81967  0.12616  1.0000
  Fe  Fe295     1.0  0.30415  0.84840  0.16146  1.0000
  S   S588      1.0  0.31955  0.84503  0.17552  1.0000
  Fe  Fe296     1.0  0.29300  0.86966  0.13635  1.0000
  S   S589      1.0  0.29250  0.89045  0.11977  1.0000
  S   S590      1.0  0.29258  0.83198  0.16185  1.0000
  S   S591      1.0  0.28060  0.85521  0.13435  1.0000
  C   C2166     1.0  0.30954  0.61408  0.15439  1.0000
  H   H2611     1.0  0.24350  0.84179  0.08866  1.0000
  H   H2612     1.0  0.28542  0.73118  0.12616  1.0000
  Fe  Fe297     1.0  0.25205  0.79294  0.10871  1.0000
  S   S592      1.0  0.26551  0.79704  0.08652  1.0000
  S   S593      1.0  0.24783  0.80836  0.12268  1.0000
  Fe  Fe298     1.0  0.24844  0.76469  0.10681  1.0000
  S   S594      1.0  0.26187  0.76614  0.08465  1.0000
  H   H2613     1.0  0.31227  0.79919  0.07323  1.0000
  Fe  Fe299     1.0  0.27643  0.77403  0.09248  1.0000
  S   S595      1.0  0.30028  0.76830  0.08514  1.0000
  Fe  Fe300     1.0  0.24976  0.78888  0.08061  1.0000
  S   S596      1.0  0.24192  0.79722  0.06011  1.0000
  S   S597      1.0  0.26408  0.77046  0.11525  1.0000
  H   H2614     1.0  0.27742  0.87374  0.10454  1.0000
  H   H2615     1.0  0.27806  0.82087  0.09023  1.0000
  C   C2167     1.0  0.25736  0.74125  0.04354  1.0000
  C   C2168     1.0  0.25273  0.84891  0.10175  1.0000
  C   C2169     1.0  0.28418  0.95490  0.11377  1.0000
  Fe  Fe301     1.0  0.31955  0.73042  0.15617  1.0000
  H   H2616     1.0  0.32654  0.75882  0.14775  1.0000
  S   S598      1.0  0.33374  0.73552  0.13440  1.0000
  H   H2617     1.0  0.25595  0.91997  0.00585  1.0000
  C   C2170     1.0  0.32854  0.78651  0.16092  1.0000
  H   H2618     1.0  0.29476  0.79748  0.06368  1.0000
  H   H2619     1.0  0.27699  0.95434  0.09054  1.0000
  C   C2171     1.0  0.24653  0.76264  0.05248  1.0000
  S   S599      1.0  0.30894  0.71179  0.16395  1.0000
  H   H2620     1.0  0.24235  0.90341  0.08826  1.0000
  S   S600      1.0  0.25049  0.65121  0.12792  1.0000
  H   H2621     1.0  0.27181  0.72536  0.14092  1.0000
  Fe  Fe302     1.0  0.25784  0.66313  0.15875  1.0000
  S   S601      1.0  0.27537  0.65399  0.14209  1.0000
  H   H2622     1.0  0.24573  0.84445  0.06183  1.0000
  Fe  Fe303     1.0  0.26209  0.66805  0.12643  1.0000
  S   S602      1.0  0.27304  0.68089  0.10597  1.0000
  Fe  Fe304     1.0  0.26223  0.63805  0.14524  1.0000
  S   S603      1.0  0.27046  0.61409  0.15051  1.0000
  S   S604      1.0  0.24570  0.67880  0.14294  1.0000
  S   S605      1.0  0.24547  0.64640  0.16301  1.0000
  H   H2623     1.0  0.26129  0.85842  0.11310  1.0000
  H   H2624     1.0  0.35257  0.56831  0.14699  1.0000
  C   C2172     1.0  0.25414  0.87425  0.09485  1.0000
  H   H2625     1.0  0.26758  0.73519  0.12391  1.0000
  H   H2626     1.0  0.24352  0.78147  0.13817  1.0000
  H   H2627     1.0  0.30950  0.80465  0.08956  1.0000
  H   H2628     1.0  0.28350  0.68968  0.07613  1.0000
  C   C2173     1.0  0.28886  0.76103  0.05448  1.0000
  C   C2174     1.0  0.24431  0.86409  0.08088  1.0000
  C   C2175     1.0  0.29084  0.82058  0.06264  1.0000
  H   H2629     1.0  0.25769  0.95600  0.11195  1.0000
  H   H2630     1.0  0.32944  0.77831  0.12940  1.0000
  H   H2631     1.0  0.24780  0.74461  0.07828  1.0000
  H   H2632     1.0  0.31742  0.82328  0.05952  1.0000
  H   H2633     1.0  0.31172  0.62800  0.17612  1.0000
  H   H2634     1.0  0.24205  0.89274  0.17586  1.0000
  H   H2635     1.0  0.26901  0.77160  0.04897  1.0000
  H   H2636     1.0  0.25913  0.70806  0.13906  1.0000
  N   N145      1.0  0.25805  0.88632  0.09766  1.0000
  H   H2637     1.0  0.25713  0.71728  0.12132  1.0000
  H   H2638     1.0  0.25067  0.76928  0.04189  1.0000
  C   C2176     1.0  0.29023  0.80824  0.05851  1.0000
  H   H2639     1.0  0.28260  0.83788  0.08179  1.0000
  C   C2177     1.0  0.27748  0.83516  0.04423  1.0000
  H   H2640     1.0  0.32320  0.69647  0.13632  1.0000
  C   C2178     1.0  0.28578  0.68923  0.14159  1.0000
  H   H2641     1.0  0.30336  0.77991  0.16473  1.0000
  C   C2179     1.0  0.27994  0.73540  0.06094  1.0000
  H   H2642     1.0  0.34231  0.54891  0.17556  1.0000
  H   H2643     1.0  0.24091  0.88488  0.16207  1.0000
  H   H2644     1.0  0.32408  0.55294  0.17391  1.0000
  H   H2645     1.0  0.25485  0.87909  0.12083  1.0000
  C   C2180     1.0  0.25508  0.69535  0.16913  1.0000
  C   C2181     1.0  0.25571  0.70952  0.16798  1.0000
  C   C2182     1.0  0.33183  0.80813  0.16565  1.0000
  H   H2646     1.0  0.32434  0.80822  0.14769  1.0000
  H   H2647     1.0  0.24771  0.69320  0.16436  1.0000
  H   H2648     1.0  0.24882  0.71831  0.16227  1.0000
  N   N146      1.0  0.27493  0.96704  0.10573  1.0000
  H   H2649     1.0  0.31518  0.82691  0.07686  1.0000
  H   H2650     1.0  0.30792  0.74818  0.06136  1.0000
  H   H2651     1.0  0.24727  0.93766  0.02126  1.0000
  C   C2183     1.0  0.28431  0.71537  0.10888  1.0000
  H   H2652     1.0  0.32249  0.54258  0.14217  1.0000
  H   H2653     1.0  0.34314  0.78259  0.13488  1.0000
  H   H2654     1.0  0.24258  0.69069  0.10529  1.0000
  C   C2184     1.0  0.24891  0.69311  0.09450  1.0000
  C   C2185     1.0  0.28675  0.60918  0.15588  1.0000
  H   H2655     1.0  0.25251  0.89790  0.11453  1.0000
  H   H2656     1.0  0.30549  0.83926  0.06426  1.0000
  C   C2186     1.0  0.24660  0.85074  0.09024  1.0000
  C   C2187     1.0  0.24025  0.75395  0.14915  1.0000
  C   C2188     1.0  0.28430  0.83408  0.05509  1.0000
  C   C2189     1.0  0.28715  0.82637  0.08571  1.0000
  C   C2190     1.0  0.29660  0.61792  0.15005  1.0000
  H   H2657     1.0  0.35055  0.53086  0.16200  1.0000
  H   H2658     1.0  0.33140  0.81957  0.16254  1.0000
  H   H2659     1.0  0.26303  0.74696  0.03314  1.0000
  C   C2191     1.0  0.30940  0.75895  0.09894  1.0000
  C   C2192     1.0  0.30208  0.75334  0.11270  1.0000
  C   C2193     1.0  0.30949  0.74607  0.12365  1.0000
  C   C2194     1.0  0.32429  0.74435  0.12083  1.0000
  C   C2195     1.0  0.33165  0.74980  0.10703  1.0000
  C   C2196     1.0  0.32423  0.75707  0.09611  1.0000
  H   H2660     1.0  0.29077  0.75442  0.11488  1.0000
  H   H2661     1.0  0.30376  0.74169  0.13422  1.0000
  H   H2662     1.0  0.34312  0.74840  0.10479  1.0000
  H   H2663     1.0  0.32999  0.76127  0.08547  1.0000
  S   S606      1.0  0.32921  0.59708  0.16941  1.0000
  S   S607      1.0  0.30007  0.74637  0.16374  1.0000
  H   H2664     1.0  0.35684  0.55575  0.13570  1.0000
  H   H2665     1.0  0.30596  0.71406  0.12364  1.0000
  C   C2197     1.0  0.25656  0.86043  0.10400  1.0000
  H   H2666     1.0  0.25260  0.97511  0.10629  1.0000
  C   C2198     1.0  0.30885  0.78365  0.15340  1.0000
  H   H2667     1.0  0.25093  0.74888  0.15168  1.0000
  C   C2199     1.0  0.31264  0.60157  0.16475  1.0000
  C   C2200     1.0  0.29581  0.67932  0.14884  1.0000
  H   H2668     1.0  0.28242  0.58955  0.17044  1.0000
  H   H2669     1.0  0.29303  0.66962  0.15606  1.0000
  C   C2201     1.0  0.25080  0.88818  0.11246  1.0000
  H   H2670     1.0  0.28425  0.84394  0.05763  1.0000
  C   C2202     1.0  0.33139  0.78427  0.13635  1.0000
  C   C2203     1.0  0.28952  0.81445  0.12733  1.0000
  C   C2204     1.0  0.28982  0.80442  0.11978  1.0000
  C   C2205     1.0  0.27700  0.80204  0.11877  1.0000
  C   C2206     1.0  0.26392  0.80953  0.12551  1.0000
  C   C2207     1.0  0.26369  0.81862  0.13403  1.0000
  C   C2208     1.0  0.27648  0.82095  0.13505  1.0000
  H   H2671     1.0  0.29991  0.79884  0.11437  1.0000
  H   H2672     1.0  0.27729  0.79473  0.11245  1.0000
  H   H2673     1.0  0.25361  0.82414  0.13960  1.0000
  H   H2674     1.0  0.27615  0.82794  0.14170  1.0000
  H   H2675     1.0  0.30529  0.77899  0.14641  1.0000
  H   H2676     1.0  0.28339  0.94435  0.11261  1.0000
  C   C2209     1.0  0.25983  0.96627  0.11220  1.0000
  H   H2677     1.0  0.27225  0.84557  0.03881  1.0000
  H   H2678     1.0  0.27560  0.68649  0.14362  1.0000
  C   C2210     1.0  0.32797  0.80147  0.15714  1.0000
  H   H2679     1.0  0.27175  0.70150  0.05580  1.0000
  C   C2211     1.0  0.24857  0.74000  0.06904  1.0000
  H   H2680     1.0  0.32290  0.75909  0.16613  1.0000
  H   H2681     1.0  0.24513  0.91268  0.14495  1.0000
  C   C2212     1.0  0.27671  0.90375  0.12166  1.0000
  C   C2213     1.0  0.27474  0.91546  0.11014  1.0000
  C   C2214     1.0  0.26203  0.92597  0.11101  1.0000
  C   C2215     1.0  0.25134  0.92508  0.12357  1.0000
  C   C2216     1.0  0.25334  0.91342  0.13518  1.0000
  C   C2217     1.0  0.26595  0.90267  0.13418  1.0000
  H   H2682     1.0  0.28303  0.91630  0.10042  1.0000
  H   H2683     1.0  0.26061  0.93476  0.10198  1.0000
  H   H2684     1.0  0.25397  0.72856  0.07152  1.0000
  H   H2685     1.0  0.26740  0.89366  0.14311  1.0000
  H   H2686     1.0  0.24597  0.81874  0.07191  1.0000
  H   H2687     1.0  0.33384  0.56682  0.16846  1.0000
  C   C2218     1.0  0.26569  0.71222  0.17372  1.0000
  H   H2688     1.0  0.25405  0.77152  0.15122  1.0000
  H   H2689     1.0  0.28236  0.79991  0.04515  1.0000
  H   H2690     1.0  0.25974  0.90001  0.07635  1.0000
  C   C2219     1.0  0.30278  0.70443  0.13049  1.0000
  C   C2220     1.0  0.27544  0.76121  0.05267  1.0000
  C   C2221     1.0  0.29770  0.74817  0.05964  1.0000
  H   H2691     1.0  0.33263  0.53248  0.16132  1.0000
  C   C2222     1.0  0.25406  0.90026  0.08767  1.0000
  H   H2692     1.0  0.24584  0.88574  0.07545  1.0000
  C   C2223     1.0  0.30944  0.82766  0.06846  1.0000
  S   S608      1.0  0.24705  0.95850  0.08454  1.0000
  C   C2224     1.0  0.33221  0.77889  0.17426  1.0000
  H   H2693     1.0  0.26339  0.72993  0.04551  1.0000
  N   N147      1.0  0.27850  0.71310  0.12462  1.0000
  C   C2225     1.0  0.30283  0.59273  0.17066  1.0000
  N   N148      1.0  0.25594  0.74818  0.05536  1.0000
  C   C2226     1.0  0.25044  0.70318  0.06889  1.0000
  S   S609      1.0  0.26796  0.72966  0.17063  1.0000
  C   C2227     1.0  0.33475  0.55542  0.16859  1.0000
  C   C2228     1.0  0.32886  0.76371  0.15537  1.0000
  H   H2694     1.0  0.29558  0.95564  0.10986  1.0000
  C   C2229     1.0  0.27198  0.69260  0.07809  1.0000
  C   C2230     1.0  0.26532  0.69930  0.06658  1.0000
  C   C2231     1.0  0.28994  0.59646  0.16607  1.0000
  Fe  Fe305     1.0  0.29004  0.72745  0.17322  1.0000
  H   H2695     1.0  0.26585  0.69895  0.12439  1.0000
  H   H2696     1.0  0.25691  0.90914  0.09025  1.0000
  H   H2697     1.0  0.27651  0.72319  0.10281  1.0000
  C   C2232     1.0  0.28894  0.70218  0.13223  1.0000
  H   H2698     1.0  0.30390  0.55695  0.12968  1.0000
  H   H2699     1.0  0.24190  0.75558  0.17409  1.0000
  C   C2233     1.0  0.27571  0.72680  0.12907  1.0000
  N   N149      1.0  0.29777  0.81976  0.07428  1.0000
  C   C2234     1.0  0.26386  0.68929  0.09204  1.0000
  H   H2700     1.0  0.27957  0.88095  0.08554  1.0000
  H   H2701     1.0  0.29230  0.77096  0.05226  1.0000
  H   H2702     1.0  0.28121  0.95438  0.12550  1.0000
  C   C2235     1.0  0.31276  0.69439  0.13770  1.0000
  H   H2703     1.0  0.27111  0.82375  0.03256  1.0000
  H   H2704     1.0  0.27296  0.97625  0.12995  1.0000
  H   H2705     1.0  0.28937  0.96580  0.08520  1.0000
  H   H2706     1.0  0.29449  0.62740  0.14177  1.0000
  H   H2707     1.0  0.34630  0.53371  0.14494  1.0000
  H   H2708     1.0  0.27712  0.72515  0.06327  1.0000
  N   N150      1.0  0.32454  0.77959  0.15171  1.0000
  C   C2236     1.0  0.24599  0.92775  0.00514  1.0000
  H   H2709     1.0  0.28689  0.70512  0.10527  1.0000
  C   C2237     1.0  0.27036  0.74838  0.05638  1.0000
  H   H2710     1.0  0.25663  0.96706  0.12363  1.0000
  H   H2711     1.0  0.29577  0.79848  0.08651  1.0000
  H   H2712     1.0  0.27723  0.89223  0.09762  1.0000
  C   C2238     1.0  0.26456  0.70913  0.12756  1.0000
  H   H2713     1.0  0.27082  0.97307  0.08437  1.0000
  H   H2714     1.0  0.34050  0.76001  0.15502  1.0000
  C   C2239     1.0  0.24801  0.87572  0.08308  1.0000
  H   H2715     1.0  0.24514  0.76838  0.06105  1.0000
  H   H2716     1.0  0.31723  0.62080  0.14959  1.0000
  N   N151      1.0  0.33954  0.55249  0.15399  1.0000
  C   C2240     1.0  0.35327  0.55697  0.14703  1.0000
  C   C2241     1.0  0.28318  0.80945  0.04778  1.0000
  C   C2242     1.0  0.34235  0.53674  0.15554  1.0000
  C   C2243     1.0  0.32859  0.56071  0.14561  1.0000
  C   C2244     1.0  0.32511  0.57591  0.14282  1.0000
  C   C2245     1.0  0.32069  0.55406  0.14055  1.0000
  C   C2246     1.0  0.31434  0.58393  0.13556  1.0000
  C   C2247     1.0  0.30990  0.56222  0.13332  1.0000
  C   C2248     1.0  0.30669  0.57711  0.13090  1.0000
  H   H2717     1.0  0.31693  0.67425  0.15271  1.0000
  C   C2249     1.0  0.27821  0.96503  0.09080  1.0000
  H   H2718     1.0  0.24675  0.74102  0.04219  1.0000
  C   C2250     1.0  0.29334  0.73535  0.06266  1.0000
  C   C2251     1.0  0.30407  0.80489  0.08113  1.0000
  H   H2719     1.0  0.29415  0.71963  0.10550  1.0000
  H   H2720     1.0  0.25432  0.83854  0.10911  1.0000
  H   H2721     1.0  0.30496  0.79548  0.15053  1.0000
  H   H2722     1.0  0.29194  0.82578  0.09476  1.0000
  H   H2723     1.0  0.33048  0.58174  0.14650  1.0000
  H   H2724     1.0  0.36186  0.55049  0.15279  1.0000
  H   H2725     1.0  0.31171  0.59553  0.13378  1.0000
  C   C2252     1.0  0.24343  0.82373  0.06156  1.0000
  H   H2726     1.0  0.29817  0.58341  0.12550  1.0000
  C   C2253     1.0  0.27370  0.88315  0.09627  1.0000
  C   C2254     1.0  0.30925  0.68190  0.14694  1.0000
  S   S610      1.0  0.32827  0.72598  0.17579  1.0000
  H   H2727     1.0  0.30034  0.72533  0.06644  1.0000
  S   S611      1.0  0.24296  0.71219  0.05386  1.0000
  H   H2728     1.0  0.32719  0.79572  0.13186  1.0000
  H   H2729     1.0  0.35935  0.61886  0.17656  1.0000
  C   C2255     1.0  0.24219  0.70024  0.08290  1.0000
  C   C2256     1.0  0.23703  0.82229  0.04036  1.0000
  C   C2257     1.0  0.24301  0.77684  0.14978  1.0000
  C   C2258     1.0  0.24311  0.83833  0.05593  1.0000
  S   S612      1.0  0.23994  0.74479  0.11605  1.0000
  H   H2730     1.0  0.24200  0.75683  0.13728  1.0000
  C   C2259     1.0  0.23964  0.84495  0.04261  1.0000
  H   H2731     1.0  0.23950  0.78602  0.15515  1.0000
  H   H2732     1.0  0.23909  0.88925  0.11437  1.0000
  C   C2260     1.0  0.27706  0.98090  0.10653  1.0000
  H   H2733     1.0  0.35952  0.64508  0.17252  1.0000
  S   S613      1.0  0.24016  0.86298  0.03541  1.0000
  H   H2734     1.0  0.24229  0.91948  0.98948  1.0000
  C   C2261     1.0  0.24115  0.93770  0.01381  1.0000
  H   H2735     1.0  0.23797  0.91639  0.05043  1.0000
  C   C2262     1.0  0.24067  0.81565  0.05364  1.0000
  C   C2263     1.0  0.26406  0.68400  0.17646  1.0000
  C   C2264     1.0  0.23796  0.92759  0.99575  1.0000
  C   C2265     1.0  0.23831  0.88412  0.17386  1.0000
  H   H2736     1.0  0.23950  0.86550  0.07191  1.0000
  H   H2737     1.0  0.23756  0.73996  0.06873  1.0000
  S   S614      1.0  0.32095  0.49267  0.17709  1.0000
  C   C2266     1.0  0.26340  0.58063  0.32232  1.0000
  C   C2267     1.0  0.25469  0.48874  0.23477  1.0000
  S   S615      1.0  0.25374  0.52459  0.28248  1.0000
  S   S616      1.0  0.25273  0.54936  0.24390  1.0000
  H   H2738     1.0  0.33206  0.76773  0.17851  1.0000
  C   C2268     1.0  0.30355  0.52484  0.23622  1.0000
  C   C2269     1.0  0.26851  0.62249  0.28335  1.0000
  H   H2739     1.0  0.25712  0.68872  0.32357  1.0000
  H   H2740     1.0  0.35161  0.74743  0.18274  1.0000
  H   H2741     1.0  0.26813  0.84534  0.18847  1.0000
  Fe  Fe306     1.0  0.26490  0.77059  0.30257  1.0000
  S   S617      1.0  0.25187  0.75856  0.32190  1.0000
  S   S618      1.0  0.27622  0.78530  0.30631  1.0000
  Fe  Fe307     1.0  0.26080  0.74034  0.31069  1.0000
  S   S619      1.0  0.26942  0.71811  0.32246  1.0000
  S   S620      1.0  0.27487  0.75193  0.29203  1.0000
  H   H2742     1.0  0.27027  0.51302  0.20706  1.0000
  S   S621      1.0  0.33765  0.68237  0.36345  1.0000
  S   S622      1.0  0.32250  0.71968  0.34385  1.0000
  H   H2743     1.0  0.37354  0.70525  0.19914  1.0000
  C   C2270     1.0  0.36913  0.73603  0.21006  1.0000
  C   C2271     1.0  0.40016  0.56698  0.23248  1.0000
  Fe  Fe308     1.0  0.34787  0.76686  0.26808  1.0000
  S   S623      1.0  0.35359  0.78579  0.25109  1.0000
  S   S624      1.0  0.34328  0.76750  0.29127  1.0000
  C   C2272     1.0  0.25690  0.56907  0.30700  1.0000
  Fe  Fe309     1.0  0.36978  0.76879  0.24060  1.0000
  S   S625      1.0  0.39263  0.76992  0.23008  1.0000
  C   C2273     1.0  0.42414  0.71966  0.22029  1.0000
  S   S626      1.0  0.36481  0.75007  0.25829  1.0000
  H   H2744     1.0  0.28525  0.77903  0.20626  1.0000
  Fe  Fe310     1.0  0.42321  0.72085  0.31551  1.0000
  S   S627      1.0  0.44146  0.73197  0.30475  1.0000
  S   S628      1.0  0.40295  0.72912  0.33048  1.0000
  Fe  Fe311     1.0  0.43565  0.69687  0.29952  1.0000
  S   S629      1.0  0.45505  0.70553  0.28765  1.0000
  S   S630      1.0  0.43373  0.67595  0.29670  1.0000
  Fe  Fe312     1.0  0.45534  0.70979  0.30855  1.0000
  S   S631      1.0  0.47548  0.70093  0.31718  1.0000
  Fe  Fe313     1.0  0.43970  0.72681  0.28475  1.0000
  S   S632      1.0  0.44333  0.74080  0.26255  1.0000
  S   S633      1.0  0.43714  0.69908  0.32077  1.0000
  S   S634      1.0  0.42025  0.71783  0.29515  1.0000
  Fe  Fe314     1.0  0.39409  0.66163  0.24992  1.0000
  S   S635      1.0  0.41032  0.66594  0.22945  1.0000
  S   S636      1.0  0.38774  0.67829  0.26315  1.0000
  Fe  Fe315     1.0  0.38945  0.63554  0.24286  1.0000
  S   S637      1.0  0.40570  0.63785  0.22208  1.0000
  S   S638      1.0  0.37588  0.61895  0.24985  1.0000
  Fe  Fe316     1.0  0.41898  0.64226  0.23463  1.0000
  Fe  Fe317     1.0  0.39533  0.66116  0.21926  1.0000
  S   S639      1.0  0.40351  0.63806  0.25583  1.0000
  S   S640      1.0  0.37838  0.65877  0.23937  1.0000
  Fe  Fe318     1.0  0.32371  0.56988  0.22144  1.0000
  S   S641      1.0  0.34517  0.55545  0.22312  1.0000
  S   S642      1.0  0.30661  0.57149  0.24148  1.0000
  H   H2745     1.0  0.35959  0.72171  0.18230  1.0000
  H   H2746     1.0  0.30740  0.66626  0.19017  1.0000
  C   C2274     1.0  0.26368  0.62495  0.27086  1.0000
  Fe  Fe319     1.0  0.34378  0.54973  0.20325  1.0000
  H   H2747     1.0  0.34373  0.64029  0.21155  1.0000
  Fe  Fe320     1.0  0.35385  0.57427  0.20847  1.0000
  S   S643      1.0  0.37285  0.58282  0.20782  1.0000
  S   S644      1.0  0.32169  0.56298  0.20256  1.0000
  S   S645      1.0  0.33244  0.58908  0.20843  1.0000
  H   H2748     1.0  0.29534  0.62859  0.36672  1.0000
  H   H2749     1.0  0.26787  0.65999  0.36282  1.0000
  H   H2750     1.0  0.29911  0.82725  0.19137  1.0000
  C   C2275     1.0  0.37418  0.61021  0.23739  1.0000
  C   C2276     1.0  0.38403  0.60989  0.22428  1.0000
  C   C2277     1.0  0.38335  0.60159  0.21527  1.0000
  C   C2278     1.0  0.37259  0.59386  0.21905  1.0000
  C   C2279     1.0  0.36233  0.59469  0.23184  1.0000
  C   C2280     1.0  0.36324  0.60270  0.24106  1.0000
  H   H2751     1.0  0.39252  0.61554  0.22134  1.0000
  H   H2752     1.0  0.39137  0.60093  0.20543  1.0000
  H   H2753     1.0  0.35404  0.58872  0.23489  1.0000
  H   H2754     1.0  0.35561  0.60286  0.25120  1.0000
  H   H2755     1.0  0.30975  0.76367  0.34295  1.0000
  C   C2281     1.0  0.26439  0.59539  0.23928  1.0000
  H   H2756     1.0  0.25004  0.74397  0.19742  1.0000
  C   C2282     1.0  0.29882  0.63837  0.36515  1.0000
  H   H2757     1.0  0.24138  0.70155  0.34075  1.0000
  H   H2758     1.0  0.30812  0.66741  0.26742  1.0000
  H   H2759     1.0  0.47746  0.73121  0.30805  1.0000
  H   H2760     1.0  0.27207  0.58911  0.24568  1.0000
  C   C2283     1.0  0.25874  0.77541  0.20756  1.0000
  C   C2284     1.0  0.27042  0.61618  0.26110  1.0000
  C   C2285     1.0  0.42092  0.67673  0.28731  1.0000
  C   C2286     1.0  0.41959  0.66411  0.28474  1.0000
  C   C2287     1.0  0.40971  0.66455  0.27694  1.0000
  C   C2288     1.0  0.40087  0.67759  0.27200  1.0000
  C   C2289     1.0  0.40215  0.69021  0.27460  1.0000
  C   C2290     1.0  0.41227  0.68979  0.28207  1.0000
  H   H2761     1.0  0.42624  0.65396  0.28874  1.0000
  H   H2762     1.0  0.40872  0.65475  0.27505  1.0000
  H   H2763     1.0  0.39538  0.70033  0.27073  1.0000
  H   H2764     1.0  0.41335  0.69959  0.28370  1.0000
  C   C2291     1.0  0.40640  0.76102  0.23939  1.0000
  C   C2292     1.0  0.42024  0.76295  0.23273  1.0000
  C   C2293     1.0  0.43144  0.75653  0.23989  1.0000
  C   C2294     1.0  0.42896  0.74805  0.25379  1.0000
  C   C2295     1.0  0.41519  0.74578  0.26039  1.0000
  C   C2296     1.0  0.40391  0.75228  0.25320  1.0000
  H   H2765     1.0  0.42228  0.76964  0.22205  1.0000
  H   H2766     1.0  0.44203  0.75832  0.23469  1.0000
  H   H2767     1.0  0.41317  0.73925  0.27107  1.0000
  H   H2768     1.0  0.39331  0.75065  0.25836  1.0000
  C   C2297     1.0  0.38160  0.69329  0.36013  1.0000
  C   C2298     1.0  0.37341  0.70624  0.35397  1.0000
  C   C2299     1.0  0.38000  0.71727  0.34503  1.0000
  C   C2300     1.0  0.39487  0.71521  0.34174  1.0000
  C   C2301     1.0  0.40309  0.70216  0.34762  1.0000
  C   C2302     1.0  0.39646  0.69125  0.35687  1.0000
  H   H2769     1.0  0.36200  0.70781  0.35609  1.0000
  H   H2770     1.0  0.37359  0.72733  0.34047  1.0000
  H   H2771     1.0  0.41454  0.70061  0.34544  1.0000
  H   H2772     1.0  0.40287  0.68129  0.36164  1.0000
  C   C2303     1.0  0.29486  0.78004  0.30256  1.0000
  C   C2304     1.0  0.30179  0.76722  0.29818  1.0000
  C   C2305     1.0  0.31668  0.76323  0.29501  1.0000
  C   C2306     1.0  0.32471  0.77191  0.29653  1.0000
  C   C2307     1.0  0.31783  0.78453  0.30135  1.0000
  C   C2308     1.0  0.30289  0.78867  0.30424  1.0000
  H   H2773     1.0  0.29576  0.76035  0.29719  1.0000
  H   H2774     1.0  0.32196  0.75343  0.29134  1.0000
  H   H2775     1.0  0.32404  0.79135  0.30237  1.0000
  H   H2776     1.0  0.29757  0.79860  0.30766  1.0000
  C   C2309     1.0  0.28492  0.71749  0.32782  1.0000
  C   C2310     1.0  0.29390  0.72679  0.31977  1.0000
  C   C2311     1.0  0.30578  0.72692  0.32445  1.0000
  C   C2312     1.0  0.30863  0.71792  0.33738  1.0000
  C   C2313     1.0  0.29994  0.70826  0.34527  1.0000
  C   C2314     1.0  0.28814  0.70797  0.34042  1.0000
  H   H2777     1.0  0.29176  0.73389  0.30990  1.0000
  H   H2778     1.0  0.31258  0.73428  0.31821  1.0000
  C   C2315     1.0  0.34252  0.51716  0.19463  1.0000
  H   H2779     1.0  0.28132  0.70064  0.34663  1.0000
  Fe  Fe321     1.0  0.24230  0.53850  0.29858  1.0000
  H   H2780     1.0  0.27652  0.82653  0.24597  1.0000
  C   C2316     1.0  0.30368  0.48294  0.21815  1.0000
  H   H2781     1.0  0.24579  0.63460  0.19947  1.0000
  C   C2317     1.0  0.23734  0.61920  0.31314  1.0000
  C   C2318     1.0  0.35786  0.74023  0.19021  1.0000
  H   H2782     1.0  0.42481  0.61064  0.24624  1.0000
  C   C2319     1.0  0.26792  0.55519  0.24305  1.0000
  C   C2320     1.0  0.27596  0.56097  0.22978  1.0000
  C   C2321     1.0  0.28805  0.56577  0.22919  1.0000
  C   C2322     1.0  0.29216  0.56465  0.24187  1.0000
  C   C2323     1.0  0.28417  0.55872  0.25509  1.0000
  C   C2324     1.0  0.27203  0.55409  0.25568  1.0000
  H   H2783     1.0  0.27274  0.56192  0.21998  1.0000
  H   H2784     1.0  0.29387  0.57075  0.21899  1.0000
  H   H2785     1.0  0.31142  0.51964  0.18551  1.0000
  H   H2786     1.0  0.26587  0.54964  0.26597  1.0000
  H   H2787     1.0  0.30425  0.66858  0.33995  1.0000
  H   H2788     1.0  0.43432  0.64552  0.25654  1.0000
  C   C2325     1.0  0.25444  0.51027  0.24239  1.0000
  H   H2789     1.0  0.33691  0.71821  0.22362  1.0000
  N   N152      1.0  0.37328  0.69329  0.31632  1.0000
  C   C2326     1.0  0.38444  0.70009  0.31694  1.0000
  C   C2327     1.0  0.36282  0.69211  0.33032  1.0000
  C   C2328     1.0  0.38034  0.67848  0.31442  1.0000
  C   C2329     1.0  0.36598  0.70218  0.30468  1.0000
  C   C2330     1.0  0.35817  0.71638  0.30531  1.0000
  C   C2331     1.0  0.36653  0.69726  0.29238  1.0000
  C   C2332     1.0  0.35133  0.72504  0.29439  1.0000
  C   C2333     1.0  0.35974  0.70606  0.28146  1.0000
  C   C2334     1.0  0.35210  0.71988  0.28249  1.0000
  H   H2790     1.0  0.39250  0.70114  0.30661  1.0000
  H   H2791     1.0  0.37995  0.71097  0.31915  1.0000
  H   H2792     1.0  0.39023  0.69371  0.32557  1.0000
  H   H2793     1.0  0.35800  0.70260  0.33341  1.0000
  H   H2794     1.0  0.36783  0.68502  0.33928  1.0000
  H   H2795     1.0  0.35389  0.68767  0.33003  1.0000
  H   H2796     1.0  0.37254  0.67264  0.31399  1.0000
  H   H2797     1.0  0.38894  0.67843  0.30448  1.0000
  H   H2798     1.0  0.38556  0.67205  0.32344  1.0000
  H   H2799     1.0  0.35725  0.72090  0.31430  1.0000
  H   H2800     1.0  0.37223  0.68668  0.29084  1.0000
  H   H2801     1.0  0.34542  0.73584  0.29515  1.0000
  H   H2802     1.0  0.36050  0.70210  0.27210  1.0000
  H   H2803     1.0  0.34683  0.72662  0.27399  1.0000
  H   H2804     1.0  0.39350  0.56080  0.23106  1.0000
  C   C2335     1.0  0.24726  0.68576  0.35926  1.0000
  H   H2805     1.0  0.28465  0.82205  0.26106  1.0000
  Fe  Fe322     1.0  0.34868  0.75034  0.24650  1.0000
  C   C2336     1.0  0.30395  0.66083  0.35007  1.0000
  C   C2337     1.0  0.48002  0.66965  0.29567  1.0000
  H   H2806     1.0  0.40254  0.69707  0.22055  1.0000
  C   C2338     1.0  0.31916  0.80943  0.21635  1.0000
  C   C2339     1.0  0.46479  0.66499  0.31925  1.0000
  H   H2807     1.0  0.26554  0.80859  0.20097  1.0000
  C   C2340     1.0  0.25912  0.60965  0.21608  1.0000
  H   H2808     1.0  0.47195  0.67138  0.24289  1.0000
  C   C2341     1.0  0.26466  0.75773  0.19265  1.0000
  H   H2809     1.0  0.23930  0.59891  0.33645  1.0000
  H   H2810     1.0  0.31225  0.57873  0.29486  1.0000
  H   H2811     1.0  0.27176  0.79647  0.18927  1.0000
  H   H2812     1.0  0.30219  0.70115  0.35517  1.0000
  C   C2342     1.0  0.33590  0.78570  0.18277  1.0000
  C   C2343     1.0  0.25801  0.60995  0.19199  1.0000
  N   N153      1.0  0.28845  0.76007  0.34767  1.0000
  S   S646      1.0  0.35460  0.56716  0.18869  1.0000
  C   C2344     1.0  0.31710  0.51812  0.22982  1.0000
  H   H2813     1.0  0.46713  0.67407  0.32194  1.0000
  C   C2345     1.0  0.38379  0.71723  0.23157  1.0000
  H   H2814     1.0  0.27134  0.80764  0.23819  1.0000
  H   H2815     1.0  0.26336  0.66289  0.30949  1.0000
  C   C2346     1.0  0.30782  0.81343  0.20933  1.0000
  C   C2347     1.0  0.37361  0.72114  0.21030  1.0000
  H   H2816     1.0  0.28557  0.49915  0.24135  1.0000
  H   H2817     1.0  0.32889  0.76016  0.23175  1.0000
  C   C2348     1.0  0.36233  0.72575  0.19000  1.0000
  C   C2349     1.0  0.36135  0.74538  0.20013  1.0000
  C   C2350     1.0  0.31956  0.50428  0.22769  1.0000
  H   H2818     1.0  0.41962  0.60903  0.21727  1.0000
  H   H2819     1.0  0.39523  0.69779  0.20591  1.0000
  H   H2820     1.0  0.40166  0.71275  0.20611  1.0000
  C   C2351     1.0  0.30319  0.58803  0.29310  1.0000
  H   H2821     1.0  0.36878  0.61477  0.19055  1.0000
  H   H2822     1.0  0.29420  0.58599  0.30246  1.0000
  C   C2352     1.0  0.43898  0.58512  0.24024  1.0000
  H   H2823     1.0  0.30654  0.59765  0.29342  1.0000
  C   C2353     1.0  0.30843  0.49667  0.23205  1.0000
  H   H2824     1.0  0.27183  0.75276  0.18413  1.0000
  C   C2354     1.0  0.25521  0.83661  0.20870  1.0000
  H   H2825     1.0  0.25177  0.68818  0.30823  1.0000
  H   H2826     1.0  0.44573  0.59198  0.24099  1.0000
  H   H2827     1.0  0.26275  0.58957  0.30002  1.0000
  C   C2355     1.0  0.41691  0.58439  0.23523  1.0000
  C   C2356     1.0  0.25460  0.73248  0.23772  1.0000
  C   C2357     1.0  0.42932  0.60340  0.22159  1.0000
  C   C2358     1.0  0.46890  0.64346  0.25700  1.0000
  S   S647      1.0  0.38958  0.67478  0.19857  1.0000
  C   C2359     1.0  0.28197  0.60485  0.26386  1.0000
  S   S648      1.0  0.32434  0.68682  0.19743  1.0000
  C   C2360     1.0  0.34271  0.68283  0.19701  1.0000
  H   H2828     1.0  0.26174  0.83785  0.21509  1.0000
  C   C2361     1.0  0.32863  0.52282  0.19251  1.0000
  H   H2829     1.0  0.43459  0.61171  0.22200  1.0000
  C   C2362     1.0  0.28059  0.75369  0.34138  1.0000
  H   H2830     1.0  0.35772  0.75664  0.20038  1.0000
  S   S649      1.0  0.29593  0.72253  0.19448  1.0000
  H   H2831     1.0  0.29904  0.80804  0.21354  1.0000
  H   H2832     1.0  0.30528  0.58293  0.17850  1.0000
  H   H2833     1.0  0.47300  0.62947  0.22814  1.0000
  H   H2834     1.0  0.33895  0.83317  0.19436  1.0000
  H   H2835     1.0  0.26279  0.56881  0.34412  1.0000
  H   H2836     1.0  0.39815  0.71396  0.37446  1.0000
  H   H2837     1.0  0.38474  0.57454  0.25014  1.0000
  H   H2838     1.0  0.46844  0.63934  0.31396  1.0000
  S   S650      1.0  0.25079  0.54183  0.31629  1.0000
  H   H2839     1.0  0.27760  0.77226  0.19022  1.0000
  H   H2840     1.0  0.24831  0.73589  0.27676  1.0000
  H   H2841     1.0  0.45487  0.66935  0.31503  1.0000
  S   S651      1.0  0.30683  0.75694  0.19538  1.0000
  C   C2363     1.0  0.28003  0.61119  0.28622  1.0000
  C   C2364     1.0  0.25503  0.55724  0.31836  1.0000
  H   H2842     1.0  0.26896  0.75573  0.34620  1.0000
  C   C2365     1.0  0.31732  0.74974  0.20821  1.0000
  H   H2843     1.0  0.44859  0.65074  0.27043  1.0000
  H   H2844     1.0  0.43607  0.71485  0.25025  1.0000
  H   H2845     1.0  0.31471  0.60197  0.26639  1.0000
  C   C2366     1.0  0.42185  0.57588  0.22478  1.0000
  C   C2367     1.0  0.44583  0.64328  0.25324  1.0000
  H   H2846     1.0  0.33029  0.49986  0.22245  1.0000
  N   N154      1.0  0.27410  0.67944  0.30772  1.0000
  C   C2368     1.0  0.26064  0.68986  0.31174  1.0000
  C   C2369     1.0  0.27934  0.68103  0.29199  1.0000
  C   C2370     1.0  0.27098  0.68981  0.28196  1.0000
  C   C2371     1.0  0.29287  0.67295  0.28629  1.0000
  C   C2372     1.0  0.36272  0.66888  0.20788  1.0000
  C   C2373     1.0  0.29776  0.67372  0.27152  1.0000
  C   C2374     1.0  0.24444  0.61137  0.22293  1.0000
  H   H2847     1.0  0.46949  0.70366  0.23541  1.0000
  H   H2848     1.0  0.24105  0.79721  0.22088  1.0000
  H   H2849     1.0  0.26182  0.70111  0.30709  1.0000
  S   S652      1.0  0.23803  0.49167  0.28835  1.0000
  H   H2850     1.0  0.26052  0.69630  0.28519  1.0000
  H   H2851     1.0  0.29963  0.66572  0.29327  1.0000
  C   C2375     1.0  0.37019  0.71636  0.19979  1.0000
  H   H2852     1.0  0.40796  0.60998  0.24381  1.0000
  H   H2853     1.0  0.28311  0.60987  0.29616  1.0000
  N   N155      1.0  0.38468  0.76587  0.29296  1.0000
  C   C2376     1.0  0.39158  0.75826  0.30524  1.0000
  C   C2377     1.0  0.37208  0.77671  0.29811  1.0000
  C   C2378     1.0  0.37974  0.75520  0.28886  1.0000
  C   C2379     1.0  0.39425  0.77291  0.28032  1.0000
  C   C2380     1.0  0.40899  0.77134  0.27957  1.0000
  C   C2381     1.0  0.38894  0.78135  0.26805  1.0000
  C   C2382     1.0  0.41774  0.77791  0.26731  1.0000
  C   C2383     1.0  0.39777  0.78790  0.25587  1.0000
  C   C2384     1.0  0.41215  0.78617  0.25550  1.0000
  H   H2854     1.0  0.39561  0.76562  0.30894  1.0000
  H   H2855     1.0  0.38404  0.75334  0.31467  1.0000
  H   H2856     1.0  0.40062  0.74927  0.30247  1.0000
  H   H2857     1.0  0.36536  0.78193  0.29007  1.0000
  H   H2858     1.0  0.37538  0.78529  0.30071  1.0000
  H   H2859     1.0  0.36483  0.77182  0.30786  1.0000
  H   H2860     1.0  0.38885  0.74669  0.28523  1.0000
  H   H2861     1.0  0.37217  0.74995  0.29798  1.0000
  H   H2862     1.0  0.37400  0.76016  0.27999  1.0000
  H   H2863     1.0  0.41416  0.76482  0.28814  1.0000
  H   H2864     1.0  0.37798  0.78264  0.26757  1.0000
  H   H2865     1.0  0.42906  0.77617  0.26676  1.0000
  H   H2866     1.0  0.39357  0.79385  0.24644  1.0000
  H   H2867     1.0  0.41906  0.79085  0.24584  1.0000
  C   C2385     1.0  0.30320  0.75913  0.33875  1.0000
  H   H2868     1.0  0.45438  0.67539  0.26478  1.0000
  H   H2869     1.0  0.36022  0.49891  0.19390  1.0000
  H   H2870     1.0  0.30863  0.74795  0.33805  1.0000
  H   H2871     1.0  0.28177  0.52320  0.24523  1.0000
  C   C2386     1.0  0.34285  0.49556  0.18731  1.0000
  S   S653      1.0  0.26466  0.62948  0.36809  1.0000
  C   C2387     1.0  0.25085  0.68309  0.37274  1.0000
  S   S654      1.0  0.24263  0.74586  0.29976  1.0000
  Fe  Fe323     1.0  0.24845  0.62682  0.35825  1.0000
  H   H2872     1.0  0.29416  0.81538  0.24532  1.0000
  H   H2873     1.0  0.45845  0.70584  0.25270  1.0000
  S   S655      1.0  0.47838  0.64847  0.26673  1.0000
  C   C2388     1.0  0.29917  0.64832  0.35202  1.0000
  N   N156      1.0  0.38160  0.71079  0.22078  1.0000
  H   H2874     1.0  0.26722  0.66321  0.32598  1.0000
  C   C2389     1.0  0.41350  0.56743  0.22337  1.0000
  C   C2390     1.0  0.30733  0.65370  0.37458  1.0000
  C   C2391     1.0  0.24628  0.77004  0.21499  1.0000
  C   C2392     1.0  0.30783  0.82431  0.19677  1.0000
  C   C2393     1.0  0.25001  0.80938  0.26322  1.0000
  C   C2394     1.0  0.25879  0.84087  0.19366  1.0000
  H   H2875     1.0  0.32579  0.52370  0.22639  1.0000
  H   H2876     1.0  0.37912  0.69161  0.23715  1.0000
  H   H2877     1.0  0.28897  0.79771  0.27514  1.0000
  Fe  Fe324     1.0  0.27952  0.62886  0.34680  1.0000
  H   H2878     1.0  0.46238  0.65702  0.32946  1.0000
  H   H2879     1.0  0.27935  0.79053  0.21847  1.0000
  C   C2395     1.0  0.26097  0.81304  0.28031  1.0000
  H   H2880     1.0  0.37303  0.69274  0.22169  1.0000
  H   H2881     1.0  0.48012  0.64264  0.29636  1.0000
  H   H2882     1.0  0.46233  0.65289  0.29957  1.0000
  H   H2883     1.0  0.47094  0.67399  0.29016  1.0000
  H   H2884     1.0  0.30806  0.49007  0.20800  1.0000
  H   H2885     1.0  0.27222  0.78976  0.24965  1.0000
  H   H2886     1.0  0.41683  0.72745  0.21416  1.0000
  C   C2396     1.0  0.26175  0.49496  0.22079  1.0000
  C   C2397     1.0  0.25235  0.75278  0.20010  1.0000
  S   S656      1.0  0.25350  0.60282  0.36449  1.0000
  C   C2398     1.0  0.27926  0.61400  0.19529  1.0000
  H   H2887     1.0  0.27010  0.77744  0.35153  1.0000
  C   C2399     1.0  0.34824  0.67174  0.20758  1.0000
  C   C2400     1.0  0.47574  0.63749  0.24501  1.0000
  N   N157      1.0  0.29919  0.72549  0.25964  1.0000
  C   C2401     1.0  0.29561  0.73988  0.25028  1.0000
  C   C2402     1.0  0.28579  0.72141  0.26863  1.0000
  C   C2403     1.0  0.30746  0.72674  0.26936  1.0000
  C   C2404     1.0  0.30691  0.71479  0.25078  1.0000
  C   C2405     1.0  0.30108  0.71345  0.23986  1.0000
  C   C2406     1.0  0.32007  0.70523  0.25286  1.0000
  C   C2407     1.0  0.30819  0.70348  0.23131  1.0000
  C   C2408     1.0  0.32697  0.69514  0.24439  1.0000
  C   C2409     1.0  0.32108  0.69435  0.23359  1.0000
  H   H2888     1.0  0.28773  0.74063  0.24405  1.0000
  H   H2889     1.0  0.29088  0.74840  0.25654  1.0000
  H   H2890     1.0  0.30525  0.74275  0.24246  1.0000
  H   H2891     1.0  0.27932  0.72949  0.27505  1.0000
  H   H2892     1.0  0.28802  0.71088  0.27619  1.0000
  H   H2893     1.0  0.27892  0.72053  0.26202  1.0000
  H   H2894     1.0  0.30157  0.73519  0.27550  1.0000
  H   H2895     1.0  0.30967  0.71663  0.27749  1.0000
  H   H2896     1.0  0.31773  0.72973  0.26316  1.0000
  H   H2897     1.0  0.29102  0.72017  0.23774  1.0000
  H   H2898     1.0  0.32548  0.70555  0.26071  1.0000
  H   H2899     1.0  0.30376  0.70285  0.22278  1.0000
  H   H2900     1.0  0.33713  0.68813  0.24595  1.0000
  H   H2901     1.0  0.32658  0.68676  0.22684  1.0000
  H   H2902     1.0  0.32179  0.72800  0.20574  1.0000
  S   S657      1.0  0.26262  0.62833  0.33638  1.0000
  N   N158      1.0  0.47676  0.65841  0.30874  1.0000
  C   C2410     1.0  0.29233  0.51784  0.24035  1.0000
  H   H2903     1.0  0.33913  0.81360  0.21630  1.0000
  C   C2411     1.0  0.24726  0.72339  0.24897  1.0000
  C   C2412     1.0  0.24259  0.83180  0.21541  1.0000
  C   C2413     1.0  0.32713  0.65064  0.19140  1.0000
  H   H2904     1.0  0.37119  0.74066  0.21764  1.0000
  C   C2414     1.0  0.28922  0.68227  0.26204  1.0000
  C   C2415     1.0  0.28168  0.77553  0.34656  1.0000
  H   H2905     1.0  0.23887  0.77401  0.22396  1.0000
  H   H2906     1.0  0.36685  0.66034  0.21608  1.0000
  H   H2907     1.0  0.43212  0.57587  0.21745  1.0000
  C   C2416     1.0  0.25758  0.63187  0.19798  1.0000
  N   N159      1.0  0.26354  0.61619  0.20065  1.0000
  C   C2417     1.0  0.26114  0.58063  0.30897  1.0000
  H   H2908     1.0  0.39014  0.72558  0.22645  1.0000
  Fe  Fe325     1.0  0.24252  0.54211  0.26708  1.0000
  Fe  Fe326     1.0  0.25618  0.75894  0.28178  1.0000
  Fe  Fe327     1.0  0.32520  0.70456  0.36473  1.0000
  H   H2909     1.0  0.28446  0.60244  0.19627  1.0000
  C   C2418     1.0  0.27467  0.75329  0.37304  1.0000
  C   C2419     1.0  0.30804  0.66351  0.36132  1.0000
  H   H2910     1.0  0.24617  0.61203  0.19460  1.0000
  H   H2911     1.0  0.24643  0.59263  0.25692  1.0000
  H   H2912     1.0  0.34126  0.66554  0.21572  1.0000
  S   S658      1.0  0.26984  0.59500  0.32380  1.0000
  C   C2420     1.0  0.42568  0.72216  0.23279  1.0000
  H   H2913     1.0  0.48192  0.72238  0.25683  1.0000
  C   C2421     1.0  0.35189  0.69055  0.18632  1.0000
  C   C2422     1.0  0.27643  0.78209  0.21527  1.0000
  H   H2914     1.0  0.38958  0.70903  0.23943  1.0000
  C   C2423     1.0  0.37377  0.69928  0.22874  1.0000
  C   C2424     1.0  0.31601  0.63435  0.18042  1.0000
  H   H2915     1.0  0.27008  0.81310  0.28406  1.0000
  H   H2916     1.0  0.25534  0.56917  0.29664  1.0000
  H   H2917     1.0  0.32296  0.53316  0.19478  1.0000
  C   C2425     1.0  0.24540  0.72444  0.26309  1.0000
  C   C2426     1.0  0.33026  0.82763  0.19851  1.0000
  H   H2918     1.0  0.31151  0.67327  0.35980  1.0000
  C   C2427     1.0  0.24745  0.81699  0.28891  1.0000
  C   C2428     1.0  0.25703  0.55738  0.33177  1.0000
  C   C2429     1.0  0.43202  0.70721  0.21569  1.0000
  N   N160      1.0  0.45452  0.68994  0.24406  1.0000
  C   C2430     1.0  0.44690  0.68334  0.25840  1.0000
  C   C2431     1.0  0.46364  0.67820  0.23692  1.0000
  C   C2432     1.0  0.46416  0.69786  0.24597  1.0000
  C   C2433     1.0  0.44396  0.69986  0.23592  1.0000
  C   C2434     1.0  0.43536  0.71241  0.24058  1.0000
  C   C2435     1.0  0.44172  0.69735  0.22340  1.0000
  Fe  Fe328     1.0  0.27130  0.60570  0.37263  1.0000
  C   C2436     1.0  0.34875  0.63015  0.20782  1.0000
  Fe  Fe329     1.0  0.33261  0.58087  0.18963  1.0000
  H   H2919     1.0  0.43921  0.67763  0.25749  1.0000
  H   H2920     1.0  0.35937  0.62628  0.21070  1.0000
  H   H2921     1.0  0.44080  0.69141  0.26491  1.0000
  H   H2922     1.0  0.45734  0.67082  0.23643  1.0000
  C   C2437     1.0  0.27352  0.68676  0.18279  1.0000
  H   H2923     1.0  0.46942  0.68243  0.22589  1.0000
  C   C2438     1.0  0.26320  0.79935  0.19856  1.0000
  H   H2924     1.0  0.47261  0.69048  0.25149  1.0000
  C   C2439     1.0  0.24992  0.59734  0.24564  1.0000
  H   H2925     1.0  0.28219  0.61913  0.18366  1.0000
  C   C2440     1.0  0.24528  0.71122  0.35555  1.0000
  H   H2926     1.0  0.30333  0.76507  0.32749  1.0000
  C   C2441     1.0  0.26119  0.51612  0.22856  1.0000
  H   H2927     1.0  0.24334  0.72192  0.34884  1.0000
  N   N161      1.0  0.29918  0.58969  0.27934  1.0000
  C   C2442     1.0  0.29545  0.57616  0.27983  1.0000
  C   C2443     1.0  0.31193  0.59158  0.26759  1.0000
  N   N162      1.0  0.42561  0.59390  0.23593  1.0000
  N   N163      1.0  0.27712  0.80494  0.25826  1.0000
  H   H2928     1.0  0.30435  0.56671  0.28171  1.0000
  H   H2929     1.0  0.28594  0.57424  0.28852  1.0000
  H   H2930     1.0  0.29303  0.57620  0.26962  1.0000
  H   H2931     1.0  0.31034  0.59130  0.25705  1.0000
  H   H2932     1.0  0.32141  0.58285  0.26954  1.0000
  H   H2933     1.0  0.44738  0.68787  0.21930  1.0000
  H   H2934     1.0  0.26915  0.69679  0.25982  1.0000
  H   H2935     1.0  0.25295  0.80324  0.19492  1.0000
  N   N164      1.0  0.26238  0.78718  0.21121  1.0000
  C   C2444     1.0  0.26106  0.56904  0.33380  1.0000
  C   C2445     1.0  0.32917  0.50145  0.18467  1.0000
  H   H2936     1.0  0.30175  0.53553  0.23791  1.0000
  H   H2937     1.0  0.28040  0.67799  0.18854  1.0000
  C   C2446     1.0  0.32774  0.75312  0.22589  1.0000
  H   H2938     1.0  0.28064  0.68130  0.32596  1.0000
  H   H2939     1.0  0.28788  0.69194  0.30911  1.0000
  H   H2940     1.0  0.26456  0.75049  0.23184  1.0000
  C   C2447     1.0  0.33395  0.73846  0.22897  1.0000
  C   C2448     1.0  0.48628  0.72505  0.31300  1.0000
  C   C2449     1.0  0.36639  0.68760  0.18656  1.0000
  C   C2450     1.0  0.26784  0.76890  0.19626  1.0000
  C   C2451     1.0  0.26269  0.80892  0.26727  1.0000
  C   C2452     1.0  0.31948  0.75875  0.21552  1.0000
  H   H2941     1.0  0.25563  0.54829  0.34064  1.0000
  C   C2453     1.0  0.37176  0.67706  0.19758  1.0000
  H   H2942     1.0  0.41604  0.59688  0.25757  1.0000
  C   C2454     1.0  0.24909  0.70897  0.36856  1.0000
  H   H2943     1.0  0.34223  0.62214  0.21417  1.0000
  Fe  Fe330     1.0  0.30769  0.74013  0.18417  1.0000
  H   H2944     1.0  0.29288  0.68256  0.25064  1.0000
  C   C2455     1.0  0.32205  0.51505  0.18742  1.0000
  H   H2945     1.0  0.28690  0.59835  0.25595  1.0000
  C   C2456     1.0  0.27711  0.79930  0.24593  1.0000
  C   C2457     1.0  0.28337  0.81778  0.25242  1.0000
  H   H2946     1.0  0.39867  0.58941  0.25292  1.0000
  H   H2947     1.0  0.43667  0.57773  0.25090  1.0000
  C   C2458     1.0  0.27587  0.69029  0.26724  1.0000
  S   S659      1.0  0.34390  0.73146  0.24236  1.0000
  C   C2459     1.0  0.39523  0.57475  0.24321  1.0000
  H   H2948     1.0  0.43072  0.70520  0.20602  1.0000
  S   S660      1.0  0.29264  0.64577  0.33840  1.0000
  C   C2460     1.0  0.28652  0.79372  0.26695  1.0000
  C   C2461     1.0  0.45394  0.64623  0.26111  1.0000
  H   H2949     1.0  0.26361  0.52660  0.22622  1.0000
  S   S661      1.0  0.24759  0.77898  0.29026  1.0000
  C   C2462     1.0  0.24992  0.73520  0.26590  1.0000
  H   H2950     1.0  0.43690  0.59750  0.21356  1.0000
  S   S662      1.0  0.28730  0.60499  0.35148  1.0000
  C   C2463     1.0  0.24968  0.84032  0.18551  1.0000
  C   C2464     1.0  0.27135  0.66487  0.31412  1.0000
  H   H2951     1.0  0.26116  0.61462  0.18030  1.0000
  H   H2952     1.0  0.28175  0.75811  0.32959  1.0000
  S   S663      1.0  0.44277  0.63284  0.23151  1.0000
  S   S664      1.0  0.35511  0.76759  0.22774  1.0000
  Fe  Fe331     1.0  0.33824  0.78256  0.24007  1.0000
  C   C2465     1.0  0.33043  0.81650  0.21087  1.0000
  H   H2953     1.0  0.34786  0.69873  0.17781  1.0000
  H   H2954     1.0  0.31075  0.74254  0.36112  1.0000
  H   H2955     1.0  0.28407  0.61882  0.20109  1.0000
  H   H2956     1.0  0.25649  0.73134  0.22680  1.0000
  H   H2957     1.0  0.36270  0.70387  0.23411  1.0000
  H   H2958     1.0  0.28738  0.55752  0.26493  1.0000
  H   H2959     1.0  0.44561  0.57847  0.23243  1.0000
  H   H2960     1.0  0.24601  0.49276  0.25644  1.0000
  S   S665      1.0  0.33119  0.76501  0.25828  1.0000
  C   C2466     1.0  0.45265  0.63716  0.24135  1.0000
  C   C2467     1.0  0.26903  0.60139  0.22473  1.0000
  H   H2961     1.0  0.28121  0.65639  0.31234  1.0000
  H   H2962     1.0  0.28043  0.59931  0.22055  1.0000
  C   C2468     1.0  0.28706  0.60191  0.27659  1.0000
  C   C2469     1.0  0.25626  0.74504  0.25467  1.0000
  C   C2470     1.0  0.47175  0.64779  0.30455  1.0000
  S   S666      1.0  0.31840  0.79616  0.23238  1.0000
  C   C2471     1.0  0.41824  0.60322  0.24634  1.0000
  H   H2963     1.0  0.29709  0.78970  0.26021  1.0000
  H   H2964     1.0  0.31469  0.77009  0.21327  1.0000
  S   S667      1.0  0.26064  0.75942  0.25815  1.0000
  C   C2472     1.0  0.28482  0.68146  0.31429  1.0000
  H   H2965     1.0  0.29462  0.67278  0.31374  1.0000
  C   C2473     1.0  0.46763  0.63423  0.23731  1.0000
  C   C2474     1.0  0.25908  0.74334  0.24057  1.0000
  H   H2966     1.0  0.28815  0.79589  0.23972  1.0000
  C   C2475     1.0  0.40342  0.58334  0.24464  1.0000
  C   C2476     1.0  0.33192  0.72947  0.22153  1.0000
  C   C2477     1.0  0.39588  0.70433  0.21301  1.0000
  C   C2478     1.0  0.32351  0.73508  0.21124  1.0000
  C   C2479     1.0  0.31905  0.83147  0.19134  1.0000
  S   S668      1.0  0.35166  0.52683  0.20013  1.0000
  C   C2480     1.0  0.30801  0.64769  0.18283  1.0000
  H   H2967     1.0  0.28685  0.78060  0.35178  1.0000
  Fe  Fe332     1.0  0.26889  0.60423  0.34285  1.0000
  H   H2968     1.0  0.28456  0.74188  0.34308  1.0000
  N   N165      1.0  0.35005  0.63207  0.19220  1.0000
  H   H2969     1.0  0.28250  0.78147  0.33513  1.0000
  H   H2970     1.0  0.25014  0.80654  0.25349  1.0000
  C   C2481     1.0  0.25126  0.49679  0.24550  1.0000
  H   H2971     1.0  0.37344  0.72207  0.23801  1.0000
  H   H2972     1.0  0.41726  0.56137  0.21502  1.0000
  H   H2973     1.0  0.28152  0.78441  0.27268  1.0000
  H   H2974     1.0  0.26218  0.59816  0.19365  1.0000
  C   C2482     1.0  0.30278  0.64111  0.37643  1.0000
  H   H2975     1.0  0.27644  0.77254  0.22437  1.0000
  C   C2483     1.0  0.23997  0.60539  0.23750  1.0000
  H   H2976     1.0  0.29746  0.65173  0.18048  1.0000
  H   H2977     1.0  0.24495  0.87372  0.17833  1.0000
  C   C2484     1.0  0.25182  0.79272  0.22336  1.0000
  H   H2978     1.0  0.24645  0.81973  0.29900  1.0000
  H   H2979     1.0  0.26666  0.61823  0.25134  1.0000
  H   H2980     1.0  0.41945  0.73180  0.23638  1.0000
  H   H2981     1.0  0.25102  0.78423  0.23343  1.0000
  H   H2982     1.0  0.24689  0.67712  0.35491  1.0000
  C   C2485     1.0  0.28792  0.75260  0.36290  1.0000
  H   H2983     1.0  0.38302  0.72673  0.36979  1.0000
  H   H2984     1.0  0.26324  0.62937  0.29089  1.0000
  S   S669      1.0  0.37343  0.68005  0.37282  1.0000
  H   H2985     1.0  0.35243  0.60936  0.19447  1.0000
  C   C2486     1.0  0.26491  0.50846  0.21781  1.0000
  C   C2487     1.0  0.35792  0.61821  0.18822  1.0000
  Fe  Fe333     1.0  0.31599  0.70857  0.18438  1.0000
  H   H2986     1.0  0.25479  0.80161  0.22576  1.0000
  C   C2488     1.0  0.30025  0.74412  0.36805  1.0000
  C   C2489     1.0  0.34950  0.50342  0.19220  1.0000
  H   H2987     1.0  0.25163  0.51623  0.25078  1.0000
  C   C2490     1.0  0.33565  0.63718  0.18894  1.0000
  H   H2988     1.0  0.26173  0.63729  0.18676  1.0000
  H   H2989     1.0  0.26023  0.63693  0.20528  1.0000
  H   H2990     1.0  0.37340  0.69373  0.17835  1.0000
  C   C2491     1.0  0.35887  0.64278  0.18428  1.0000
  C   C2492     1.0  0.24429  0.69967  0.35095  1.0000
  H   H2991     1.0  0.28213  0.70290  0.18580  1.0000
  H   H2992     1.0  0.33088  0.65732  0.19575  1.0000
  C   C2493     1.0  0.23653  0.81364  0.27174  1.0000
  H   H2993     1.0  0.25472  0.63370  0.26871  1.0000
  C   C2494     1.0  0.29467  0.50400  0.23821  1.0000
  H   H2994     1.0  0.48347  0.71585  0.28786  1.0000
  H   H2995     1.0  0.24577  0.68626  0.21306  1.0000
  H   H2996     1.0  0.48235  0.67887  0.29812  1.0000
  C   C2495     1.0  0.31357  0.65583  0.18830  1.0000
  C   C2496     1.0  0.23770  0.83448  0.19221  1.0000
  H   H2997     1.0  0.24030  0.71707  0.27189  1.0000
  C   C2497     1.0  0.24314  0.75899  0.21116  1.0000
  H   H2998     1.0  0.35460  0.65314  0.18772  1.0000
  H   H2999     1.0  0.33850  0.77977  0.19300  1.0000
  H   H3000     1.0  0.23901  0.66380  0.23423  1.0000
  H   H3001     1.0  0.36996  0.63902  0.18604  1.0000
  S   S670      1.0  0.23992  0.71108  0.24551  1.0000
  H   H3002     1.0  0.29201  0.48722  0.22093  1.0000
  H   H3003     1.0  0.24637  0.61004  0.31105  1.0000
  H   H3004     1.0  0.25004  0.71801  0.37196  1.0000
  C   C2498     1.0  0.26820  0.66081  0.37365  1.0000
  H   H3005     1.0  0.24311  0.65832  0.37216  1.0000
  C   C2499     1.0  0.27449  0.70086  0.18122  1.0000
  H   H3006     1.0  0.26493  0.48964  0.21194  1.0000
  H   H3007     1.0  0.33901  0.80538  0.18487  1.0000
  C   C2500     1.0  0.32963  0.62909  0.18342  1.0000
  H   H3008     1.0  0.27677  0.66656  0.37208  1.0000
  H   H3009     1.0  0.34847  0.48514  0.18518  1.0000
  H   H3010     1.0  0.24123  0.62657  0.31697  1.0000
  H   H3011     1.0  0.47903  0.73487  0.26753  1.0000
  N   N166      1.0  0.31065  0.48207  0.22977  1.0000
  H   H3012     1.0  0.26481  0.75919  0.36983  1.0000
  H   H3013     1.0  0.33519  0.61867  0.18127  1.0000
  C   C2501     1.0  0.25183  0.69514  0.37710  1.0000
  C   C2502     1.0  0.33598  0.80021  0.17832  1.0000
  C   C2503     1.0  0.23679  0.69219  0.20820  1.0000
  S   S671      1.0  0.26393  0.66626  0.17749  1.0000
  N   N167      1.0  0.28390  0.57404  0.45858  1.0000
  H   H3014     1.0  0.30883  0.73078  0.38625  1.0000
  C   C2504     1.0  0.31850  0.48545  0.56554  1.0000
  C   C2505     1.0  0.27233  0.57967  0.45057  1.0000
  C   C2506     1.0  0.29374  0.56067  0.45498  1.0000
  C   C2507     1.0  0.27649  0.71140  0.49777  1.0000
  H   H3015     1.0  0.29568  0.70139  0.50564  1.0000
  H   H3016     1.0  0.26487  0.67153  0.39583  1.0000
  S   S672      1.0  0.30919  0.55626  0.55134  1.0000
  H   H3017     1.0  0.35894  0.72405  0.40476  1.0000
  Fe  Fe334     1.0  0.28548  0.60898  0.48333  1.0000
  S   S673      1.0  0.26286  0.61455  0.48083  1.0000
  S   S674      1.0  0.29686  0.58597  0.48928  1.0000
  Fe  Fe335     1.0  0.28872  0.63966  0.47384  1.0000
  S   S675      1.0  0.26636  0.64786  0.47064  1.0000
  S   S676      1.0  0.30241  0.65591  0.46765  1.0000
  Fe  Fe336     1.0  0.26055  0.63246  0.49136  1.0000
  C   C2508     1.0  0.28121  0.68722  0.51201  1.0000
  Fe  Fe337     1.0  0.27053  0.62941  0.46012  1.0000
  S   S677      1.0  0.26137  0.63441  0.44029  1.0000
  S   S678      1.0  0.28264  0.62570  0.49555  1.0000
  S   S679      1.0  0.29350  0.62238  0.46164  1.0000
  H   H3018     1.0  0.28724  0.72175  0.56401  1.0000
  H   H3019     1.0  0.24546  0.63324  0.54068  1.0000
  C   C2509     1.0  0.25033  0.59724  0.44630  1.0000
  H   H3020     1.0  0.24822  0.63481  0.41809  1.0000
  H   H3021     1.0  0.27439  0.66454  0.53511  1.0000
  H   H3022     1.0  0.25518  0.67160  0.49964  1.0000
  H   H3023     1.0  0.30450  0.66302  0.43686  1.0000
  H   H3024     1.0  0.24578  0.66291  0.53190  1.0000
  H   H3025     1.0  0.24897  0.67790  0.53603  1.0000
  C   C2510     1.0  0.27386  0.74628  0.38748  1.0000
  H   H3026     1.0  0.40916  0.69742  0.43480  1.0000
  H   H3027     1.0  0.30389  0.70689  0.53083  1.0000
  Fe  Fe338     1.0  0.33285  0.69380  0.50490  1.0000
  S   S680      1.0  0.32535  0.71274  0.48829  1.0000
  S   S681      1.0  0.32099  0.67581  0.51369  1.0000
  Fe  Fe339     1.0  0.35880  0.70484  0.50442  1.0000
  S   S682      1.0  0.35369  0.72398  0.48685  1.0000
  S   S683      1.0  0.37877  0.70120  0.51279  1.0000
  Fe  Fe340     1.0  0.33135  0.72553  0.50009  1.0000
  S   S684      1.0  0.31742  0.74666  0.50412  1.0000
  Fe  Fe341     1.0  0.34832  0.70919  0.47671  1.0000
  S   S685      1.0  0.35605  0.70783  0.45324  1.0000
  S   S686      1.0  0.33657  0.70693  0.51808  1.0000
  S   S687      1.0  0.35569  0.68973  0.49298  1.0000
  H   H3028     1.0  0.29556  0.49490  0.56879  1.0000
  H   H3029     1.0  0.24508  0.64953  0.38975  1.0000
  S   S688      1.0  0.38732  0.73822  0.55135  1.0000
  C   C2511     1.0  0.33292  0.50372  0.55521  1.0000
  H   H3030     1.0  0.42566  0.79054  0.57316  1.0000
  S   S689      1.0  0.27071  0.75980  0.56690  1.0000
  C   C2512     1.0  0.24326  0.62252  0.54648  1.0000
  C   C2513     1.0  0.26343  0.70967  0.49698  1.0000
  C   C2514     1.0  0.26179  0.67856  0.44306  1.0000
  S   S690      1.0  0.42885  0.72505  0.55719  1.0000
  H   H3031     1.0  0.25758  0.65612  0.40220  1.0000
  H   H3032     1.0  0.28601  0.59503  0.45850  1.0000
  H   H3033     1.0  0.30142  0.58115  0.46093  1.0000
  S   S691      1.0  0.27779  0.59602  0.39405  1.0000
  H   H3034     1.0  0.28625  0.56563  0.48057  1.0000
  H   H3035     1.0  0.26822  0.52098  0.57319  1.0000
  H   H3036     1.0  0.24229  0.59643  0.42870  1.0000
  C   C2515     1.0  0.38259  0.71616  0.41733  1.0000
  H   H3037     1.0  0.27246  0.73725  0.53102  1.0000
  C   C2516     1.0  0.25256  0.68395  0.45472  1.0000
  Fe  Fe342     1.0  0.32269  0.69935  0.39692  1.0000
  S   S692      1.0  0.33529  0.67679  0.39810  1.0000
  S   S693      1.0  0.31298  0.70804  0.41693  1.0000
  C   C2517     1.0  0.29931  0.73716  0.38251  1.0000
  S   S694      1.0  0.31138  0.65725  0.38921  1.0000
  H   H3038     1.0  0.37278  0.71344  0.57551  1.0000
  H   H3039     1.0  0.38493  0.69576  0.38741  1.0000
  H   H3040     1.0  0.40610  0.69799  0.39267  1.0000
  H   H3041     1.0  0.28036  0.56565  0.43511  1.0000
  C   C2518     1.0  0.40903  0.69705  0.41329  1.0000
  C   C2519     1.0  0.34210  0.56517  0.57152  1.0000
  C   C2520     1.0  0.28618  0.73827  0.39221  1.0000
  H   H3042     1.0  0.30224  0.63344  0.38662  1.0000
  C   C2521     1.0  0.37562  0.70412  0.39107  1.0000
  H   H3043     1.0  0.34328  0.50649  0.55128  1.0000
  H   H3044     1.0  0.26717  0.50370  0.55988  1.0000
  H   H3045     1.0  0.27160  0.64972  0.37983  1.0000
  N   N168      1.0  0.26374  0.67111  0.51749  1.0000
  C   C2522     1.0  0.26348  0.66495  0.50566  1.0000
  H   H3046     1.0  0.30195  0.55641  0.46160  1.0000
  C   C2523     1.0  0.27804  0.70983  0.54730  1.0000
  H   H3047     1.0  0.28435  0.74360  0.53672  1.0000
  C   C2524     1.0  0.26121  0.68904  0.55504  1.0000
  H   H3048     1.0  0.41926  0.68955  0.41180  1.0000
  H   H3049     1.0  0.26961  0.65029  0.53110  1.0000
  H   H3050     1.0  0.29269  0.68378  0.44710  1.0000
  H   H3051     1.0  0.26113  0.65408  0.50971  1.0000
  C   C2525     1.0  0.26125  0.58014  0.43126  1.0000
  C   C2526     1.0  0.26116  0.59145  0.45394  1.0000
  H   H3052     1.0  0.27644  0.69264  0.46734  1.0000
  H   H3053     1.0  0.25486  0.69417  0.38696  1.0000
  S   S695      1.0  0.24150  0.79532  0.57087  1.0000
  C   C2527     1.0  0.30618  0.49680  0.56510  1.0000
  C   C2528     1.0  0.34384  0.70778  0.44347  1.0000
  C   C2529     1.0  0.32909  0.71169  0.44857  1.0000
  C   C2530     1.0  0.31969  0.71190  0.44029  1.0000
  C   C2531     1.0  0.32497  0.70818  0.42688  1.0000
  C   C2532     1.0  0.33971  0.70414  0.42182  1.0000
  C   C2533     1.0  0.34909  0.70389  0.43013  1.0000
  H   H3054     1.0  0.32489  0.71475  0.45879  1.0000
  H   H3055     1.0  0.30829  0.71495  0.44431  1.0000
  H   H3056     1.0  0.34383  0.70107  0.41159  1.0000
  H   H3057     1.0  0.36047  0.70056  0.42633  1.0000
  C   C2534     1.0  0.38062  0.71073  0.52455  1.0000
  C   C2535     1.0  0.36902  0.71997  0.53130  1.0000
  C   C2536     1.0  0.37110  0.72789  0.53997  1.0000
  C   C2537     1.0  0.38477  0.72663  0.54205  1.0000
  C   C2538     1.0  0.39627  0.71697  0.53575  1.0000
  C   C2539     1.0  0.39419  0.70910  0.52703  1.0000
  H   H3058     1.0  0.35846  0.72101  0.52982  1.0000
  H   H3059     1.0  0.36205  0.73505  0.54506  1.0000
  H   H3060     1.0  0.40685  0.71586  0.53726  1.0000
  H   H3061     1.0  0.40321  0.70186  0.52199  1.0000
  C   C2540     1.0  0.24262  0.72121  0.56656  1.0000
  Fe  Fe343     1.0  0.42989  0.73902  0.57108  1.0000
  H   H3062     1.0  0.36139  0.73161  0.38605  1.0000
  H   H3063     1.0  0.30848  0.66537  0.41772  1.0000
  C   C2541     1.0  0.27780  0.57089  0.47430  1.0000
  C   C2542     1.0  0.27821  0.69900  0.56015  1.0000
  C   C2543     1.0  0.48540  0.70927  0.57340  1.0000
  H   H3064     1.0  0.25352  0.61512  0.54836  1.0000
  C   C2544     1.0  0.29249  0.58495  0.45522  1.0000
  H   H3065     1.0  0.30264  0.70975  0.55560  1.0000
  H   H3066     1.0  0.47040  0.76519  0.56026  1.0000
  H   H3067     1.0  0.26965  0.73737  0.54958  1.0000
  H   H3068     1.0  0.32137  0.52572  0.55131  1.0000
  C   C2545     1.0  0.31256  0.75435  0.54857  1.0000
  C   C2546     1.0  0.30277  0.76235  0.54011  1.0000
  C   C2547     1.0  0.30458  0.76020  0.52631  1.0000
  C   C2548     1.0  0.31593  0.74973  0.52109  1.0000
  C   C2549     1.0  0.32574  0.74171  0.52954  1.0000
  C   C2550     1.0  0.32420  0.74419  0.54316  1.0000
  H   H3069     1.0  0.29397  0.77047  0.54405  1.0000
  H   H3070     1.0  0.29702  0.76650  0.51977  1.0000
  H   H3071     1.0  0.33460  0.73373  0.52553  1.0000
  H   H3072     1.0  0.33198  0.73816  0.54953  1.0000
  C   C2551     1.0  0.26672  0.62411  0.42701  1.0000
  C   C2552     1.0  0.25803  0.62672  0.41726  1.0000
  C   C2553     1.0  0.26163  0.61853  0.40680  1.0000
  C   C2554     1.0  0.27391  0.60752  0.40606  1.0000
  C   C2555     1.0  0.28272  0.60505  0.41570  1.0000
  C   C2556     1.0  0.27923  0.61343  0.42602  1.0000
  C   C2557     1.0  0.28162  0.68355  0.44876  1.0000
  C   C2558     1.0  0.46929  0.72316  0.55791  1.0000
  H   H3073     1.0  0.29224  0.59658  0.41518  1.0000
  H   H3074     1.0  0.28614  0.61162  0.43324  1.0000
  C   C2559     1.0  0.30686  0.66146  0.48088  1.0000
  C   C2560     1.0  0.31121  0.67446  0.47718  1.0000
  C   C2561     1.0  0.31584  0.67875  0.48706  1.0000
  C   C2562     1.0  0.31592  0.67022  0.50084  1.0000
  C   C2563     1.0  0.31138  0.65729  0.50464  1.0000
  C   C2564     1.0  0.30681  0.65292  0.49470  1.0000
  H   H3075     1.0  0.31101  0.68133  0.46666  1.0000
  H   H3076     1.0  0.31929  0.68870  0.48394  1.0000
  H   H3077     1.0  0.31153  0.65057  0.51526  1.0000
  H   H3078     1.0  0.30365  0.64279  0.49761  1.0000
  H   H3079     1.0  0.23853  0.60075  0.56891  1.0000
  C   C2565     1.0  0.30472  0.56487  0.53456  1.0000
  C   C2566     1.0  0.31309  0.55951  0.52257  1.0000
  C   C2567     1.0  0.31039  0.56606  0.50889  1.0000
  C   C2568     1.0  0.29955  0.57834  0.50690  1.0000
  C   C2569     1.0  0.29113  0.58388  0.51886  1.0000
  C   C2570     1.0  0.29361  0.57703  0.53274  1.0000
  H   H3080     1.0  0.32170  0.55018  0.52385  1.0000
  H   H3081     1.0  0.31692  0.56169  0.49976  1.0000
  H   H3082     1.0  0.28266  0.59332  0.51742  1.0000
  H   H3083     1.0  0.28715  0.58129  0.54196  1.0000
  H   H3084     1.0  0.25716  0.67471  0.43669  1.0000
  C   C2571     1.0  0.26716  0.50022  0.57121  1.0000
  H   H3085     1.0  0.36948  0.73752  0.39665  1.0000
  S   S696      1.0  0.31052  0.75731  0.56569  1.0000
  H   H3086     1.0  0.29774  0.51964  0.56008  1.0000
  H   H3087     1.0  0.27978  0.72144  0.49254  1.0000
  H   H3088     1.0  0.28559  0.73282  0.40339  1.0000
  H   H3089     1.0  0.26856  0.71744  0.52851  1.0000
  Fe  Fe344     1.0  0.40489  0.73175  0.56378  1.0000
  H   H3090     1.0  0.23743  0.65942  0.48375  1.0000
  C   C2572     1.0  0.23910  0.62669  0.57004  1.0000
  C   C2573     1.0  0.25038  0.59159  0.43498  1.0000
  H   H3091     1.0  0.24923  0.69572  0.50217  1.0000
  H   H3092     1.0  0.29718  0.58770  0.44350  1.0000
  C   C2574     1.0  0.38805  0.71190  0.40396  1.0000
  C   C2575     1.0  0.26922  0.70962  0.53846  1.0000
  H   H3093     1.0  0.38561  0.71408  0.43849  1.0000
  S   S697      1.0  0.40615  0.74761  0.57546  1.0000
  H   H3094     1.0  0.26158  0.57623  0.42201  1.0000
  Fe  Fe345     1.0  0.29328  0.55733  0.57237  1.0000
  H   H3095     1.0  0.29178  0.65284  0.41929  1.0000
  S   S698      1.0  0.30840  0.69780  0.38386  1.0000
  N   N169      1.0  0.25434  0.66824  0.38118  1.0000
  H   H3096     1.0  0.26363  0.74705  0.39505  1.0000
  H   H3097     1.0  0.27331  0.65870  0.42588  1.0000
  H   H3098     1.0  0.34177  0.48134  0.56014  1.0000
  N   N170      1.0  0.38000  0.71659  0.39242  1.0000
  H   H3099     1.0  0.25647  0.71843  0.49123  1.0000
  H   H3100     1.0  0.27394  0.66396  0.49779  1.0000
  H   H3101     1.0  0.28979  0.67815  0.40435  1.0000
  H   H3102     1.0  0.24886  0.61840  0.57208  1.0000
  C   C2576     1.0  0.39018  0.71095  0.42825  1.0000
  C   C2577     1.0  0.24325  0.66037  0.38254  1.0000
  H   H3103     1.0  0.28860  0.67906  0.51766  1.0000
  H   H3104     1.0  0.35876  0.57378  0.57278  1.0000
  C   C2578     1.0  0.26806  0.68500  0.51124  1.0000
  H   H3105     1.0  0.46790  0.69810  0.55454  1.0000
  H   H3106     1.0  0.27176  0.68393  0.41349  1.0000
  H   H3107     1.0  0.36870  0.70724  0.38321  1.0000
  C   C2579     1.0  0.32062  0.51458  0.55517  1.0000
  H   H3108     1.0  0.30527  0.72526  0.52621  1.0000
  H   H3109     1.0  0.25063  0.69299  0.47261  1.0000
  C   C2580     1.0  0.29760  0.71816  0.52943  1.0000
  H   H3110     1.0  0.29257  0.72037  0.52018  1.0000
  H   H3111     1.0  0.30457  0.68064  0.42520  1.0000
  H   H3112     1.0  0.46032  0.72443  0.56740  1.0000
  H   H3113     1.0  0.28512  0.69292  0.41311  1.0000
  C   C2581     1.0  0.27210  0.57422  0.43888  1.0000
  H   H3114     1.0  0.26095  0.59662  0.46220  1.0000
  C   C2582     1.0  0.28306  0.68225  0.41399  1.0000
  H   H3115     1.0  0.30092  0.72866  0.55013  1.0000
  H   H3116     1.0  0.35798  0.76638  0.57481  1.0000
  S   S699      1.0  0.44561  0.75353  0.56525  1.0000
  H   H3117     1.0  0.28425  0.65733  0.51949  1.0000
  N   N171      1.0  0.28695  0.72061  0.54277  1.0000
  C   C2583     1.0  0.26084  0.69947  0.54238  1.0000
  H   H3118     1.0  0.24219  0.60654  0.44879  1.0000
  C   C2584     1.0  0.28389  0.65803  0.42778  1.0000
  H   H3119     1.0  0.46454  0.72379  0.54882  1.0000
  N   N172      1.0  0.28622  0.67221  0.42741  1.0000
  C   C2585     1.0  0.30161  0.67025  0.42684  1.0000
  C   C2586     1.0  0.27667  0.67794  0.43986  1.0000
  H   H3120     1.0  0.27214  0.58073  0.47842  1.0000
  C   C2587     1.0  0.25931  0.69663  0.50344  1.0000
  C   C2588     1.0  0.46927  0.75816  0.57082  1.0000
  H   H3121     1.0  0.24550  0.70992  0.57120  1.0000
  H   H3122     1.0  0.28474  0.65055  0.43833  1.0000
  H   H3123     1.0  0.37230  0.72324  0.41984  1.0000
  C   C2589     1.0  0.24931  0.67318  0.52704  1.0000
  C   C2590     1.0  0.33193  0.48937  0.56030  1.0000
  N   N173      1.0  0.34349  0.65890  0.44329  1.0000
  C   C2591     1.0  0.33241  0.67226  0.44128  1.0000
  C   C2592     1.0  0.35739  0.66177  0.43419  1.0000
  C   C2593     1.0  0.33982  0.64821  0.43792  1.0000
  C   C2594     1.0  0.34435  0.65423  0.45860  1.0000
  C   C2595     1.0  0.34879  0.66282  0.46501  1.0000
  C   C2596     1.0  0.34059  0.64137  0.46762  1.0000
  C   C2597     1.0  0.34965  0.65866  0.47943  1.0000
  C   C2598     1.0  0.34146  0.63735  0.48205  1.0000
  C   C2599     1.0  0.34599  0.64597  0.48794  1.0000
  H   H3124     1.0  0.33196  0.67666  0.42979  1.0000
  H   H3125     1.0  0.32169  0.67040  0.44719  1.0000
  H   H3126     1.0  0.33418  0.68076  0.44535  1.0000
  H   H3127     1.0  0.36003  0.67106  0.43618  1.0000
  H   H3128     1.0  0.35743  0.66440  0.42253  1.0000
  H   H3129     1.0  0.36623  0.65230  0.43622  1.0000
  H   H3130     1.0  0.32902  0.64624  0.44369  1.0000
  H   H3131     1.0  0.33954  0.65191  0.42632  1.0000
  H   H3132     1.0  0.34777  0.63783  0.43914  1.0000
  H   H3133     1.0  0.35135  0.67301  0.45905  1.0000
  H   H3134     1.0  0.33658  0.63438  0.46394  1.0000
  H   H3135     1.0  0.35278  0.66551  0.48417  1.0000
  H   H3136     1.0  0.33823  0.62769  0.48883  1.0000
  H   H3137     1.0  0.34627  0.64306  0.49922  1.0000
  C   C2600     1.0  0.27232  0.68879  0.46049  1.0000
  C   C2601     1.0  0.29476  0.72008  0.55365  1.0000
  H   H3138     1.0  0.24103  0.68033  0.52132  1.0000
  N   N174      1.0  0.36309  0.76154  0.50325  1.0000
  C   C2602     1.0  0.37832  0.75410  0.50243  1.0000
  C   C2603     1.0  0.35578  0.75172  0.50075  1.0000
  C   C2604     1.0  0.36250  0.77453  0.49147  1.0000
  C   C2605     1.0  0.35584  0.76564  0.51715  1.0000
  C   C2606     1.0  0.36294  0.76298  0.52846  1.0000
  C   C2607     1.0  0.34117  0.77256  0.51971  1.0000
  C   C2608     1.0  0.35559  0.76631  0.54171  1.0000
  C   C2609     1.0  0.33402  0.77620  0.53287  1.0000
  C   C2610     1.0  0.34114  0.77281  0.54396  1.0000
  H   H3139     1.0  0.37949  0.74400  0.51084  1.0000
  H   H3140     1.0  0.38339  0.75090  0.49197  1.0000
  H   H3141     1.0  0.38471  0.76102  0.50362  1.0000
  H   H3142     1.0  0.35585  0.74187  0.50946  1.0000
  H   H3143     1.0  0.36106  0.74833  0.49043  1.0000
  H   H3144     1.0  0.34445  0.75664  0.50021  1.0000
  H   H3145     1.0  0.36731  0.78248  0.49332  1.0000
  H   H3146     1.0  0.36834  0.77194  0.48087  1.0000
  H   H3147     1.0  0.35138  0.77989  0.49043  1.0000
  H   H3148     1.0  0.37410  0.75786  0.52759  1.0000
  H   H3149     1.0  0.33498  0.77489  0.51167  1.0000
  H   H3150     1.0  0.36116  0.76344  0.55036  1.0000
  H   H3151     1.0  0.32272  0.78112  0.53472  1.0000
  H   H3152     1.0  0.33533  0.77500  0.55437  1.0000
  C   C2611     1.0  0.27345  0.66041  0.52619  1.0000
  S   S700      1.0  0.24223  0.63757  0.50963  1.0000
  H   H3153     1.0  0.46268  0.69868  0.57296  1.0000
  H   H3154     1.0  0.25455  0.62029  0.39973  1.0000
  C   C2612     1.0  0.40146  0.70207  0.40234  1.0000
  H   H3155     1.0  0.25374  0.70004  0.53572  1.0000
  C   C2613     1.0  0.47213  0.69775  0.56389  1.0000
  C   C2614     1.0  0.27795  0.73528  0.53987  1.0000
  C   C2615     1.0  0.40338  0.70147  0.42623  1.0000
  C   C2616     1.0  0.38908  0.72230  0.37848  1.0000
  H   H3156     1.0  0.36959  0.69888  0.40149  1.0000
  C   C2617     1.0  0.25783  0.68897  0.46349  1.0000
  H   H3157     1.0  0.29976  0.56252  0.44359  1.0000
  C   C2618     1.0  0.36692  0.72795  0.39514  1.0000
  H   H3158     1.0  0.24128  0.68406  0.45710  1.0000
  C   C2619     1.0  0.30729  0.51112  0.56009  1.0000
  H   H3159     1.0  0.28784  0.55212  0.45692  1.0000
  H   H3160     1.0  0.27019  0.56375  0.47714  1.0000
  C   C2620     1.0  0.45808  0.75083  0.57592  1.0000
  C   C2621     1.0  0.25560  0.66741  0.39595  1.0000
  H   H3161     1.0  0.23980  0.61846  0.53897  1.0000
  H   H3162     1.0  0.47926  0.68701  0.56634  1.0000
  S   S701      1.0  0.27001  0.55736  0.57655  1.0000
  C   C2622     1.0  0.24659  0.73106  0.57137  1.0000
  Fe  Fe346     1.0  0.34950  0.68596  0.37765  1.0000
  H   H3163     1.0  0.24522  0.75344  0.56940  1.0000
  C   C2623     1.0  0.28538  0.70018  0.50522  1.0000
  H   H3164     1.0  0.47413  0.73263  0.55500  1.0000
  H   H3165     1.0  0.34184  0.57114  0.56061  1.0000
  C   C2624     1.0  0.35039  0.71961  0.57570  1.0000
  N   N175      1.0  0.47965  0.70946  0.56113  1.0000
  H   H3166     1.0  0.28442  0.69839  0.56767  1.0000
  C   C2625     1.0  0.24275  0.74569  0.56537  1.0000
  Fe  Fe347     1.0  0.32202  0.67575  0.38373  1.0000
  H   H3167     1.0  0.32523  0.55507  0.57294  1.0000
  H   H3168     1.0  0.39356  0.73098  0.37934  1.0000
  H   H3169     1.0  0.24233  0.63716  0.56564  1.0000
  H   H3170     1.0  0.24564  0.67332  0.40205  1.0000
  H   H3171     1.0  0.35077  0.71134  0.57040  1.0000
  H   H3172     1.0  0.26999  0.68079  0.57385  1.0000
  C   C2626     1.0  0.26994  0.68875  0.56386  1.0000
  H   H3173     1.0  0.32795  0.72835  0.57710  1.0000
  H   H3174     1.0  0.25442  0.68141  0.55826  1.0000
  S   S702      1.0  0.33797  0.70870  0.37779  1.0000
  Fe  Fe348     1.0  0.26756  0.57173  0.59151  1.0000
  C   C2627     1.0  0.26786  0.51002  0.57870  1.0000
  C   C2628     1.0  0.24062  0.61246  0.60949  1.0000
  Fe  Fe349     1.0  0.29278  0.55385  0.60406  1.0000
  S   S703      1.0  0.30399  0.54945  0.62224  1.0000
  S   S704      1.0  0.26956  0.55346  0.61052  1.0000
  Fe  Fe350     1.0  0.25430  0.86222  0.69772  1.0000
  S   S705      1.0  0.26751  0.84248  0.70873  1.0000
  S   S706      1.0  0.25918  0.87093  0.67387  1.0000
  C   C2629     1.0  0.24683  0.67849  0.68732  1.0000
  H   H3175     1.0  0.46592  0.66762  0.58468  1.0000
  C   C2630     1.0  0.29382  0.49397  0.64238  1.0000
  Fe  Fe351     1.0  0.26380  0.85456  0.72571  1.0000
  S   S707      1.0  0.28282  0.85425  0.73339  1.0000
  S   S708      1.0  0.24264  0.81540  0.72228  1.0000
  C   C2631     1.0  0.24511  0.72689  0.68796  1.0000
  S   S709      1.0  0.25243  0.87513  0.71362  1.0000
  H   H3176     1.0  0.28716  0.52954  0.62756  1.0000
  Fe  Fe352     1.0  0.32583  0.78312  0.64048  1.0000
  S   S710      1.0  0.33446  0.80110  0.62443  1.0000
  S   S711      1.0  0.32470  0.76343  0.63459  1.0000
  Fe  Fe353     1.0  0.32624  0.79390  0.66576  1.0000
  S   S712      1.0  0.33567  0.81256  0.65215  1.0000
  S   S713      1.0  0.32183  0.78858  0.68979  1.0000
  Fe  Fe354     1.0  0.31969  0.81509  0.63921  1.0000
  S   S714      1.0  0.30673  0.83671  0.63099  1.0000
  Fe  Fe355     1.0  0.34961  0.79702  0.63864  1.0000
  S   S715      1.0  0.37287  0.79404  0.62800  1.0000
  S   S716      1.0  0.30927  0.79754  0.65367  1.0000
  S   S717      1.0  0.34191  0.77811  0.65377  1.0000
  C   C2632     1.0  0.26692  0.49149  0.60045  1.0000
  Fe  Fe356     1.0  0.30401  0.72301  0.72838  1.0000
  S   S718      1.0  0.32725  0.72298  0.72454  1.0000
  S   S719      1.0  0.29019  0.73777  0.71371  1.0000
  Fe  Fe357     1.0  0.30449  0.69950  0.75488  1.0000
  C   C2633     1.0  0.24219  0.62071  0.61811  1.0000
  H   H3177     1.0  0.23769  0.88716  0.76775  1.0000
  Fe  Fe358     1.0  0.32236  0.72111  0.74838  1.0000
  S   S720      1.0  0.32768  0.69710  0.75351  1.0000
  Fe  Fe359     1.0  0.33039  0.69907  0.72990  1.0000
  S   S721      1.0  0.34675  0.68327  0.71786  1.0000
  S   S722      1.0  0.29889  0.72332  0.75164  1.0000
  S   S723      1.0  0.30746  0.69931  0.73176  1.0000
  Fe  Fe360     1.0  0.42146  0.67875  0.67396  1.0000
  S   S724      1.0  0.42415  0.66054  0.69292  1.0000
  S   S725      1.0  0.40376  0.69841  0.67581  1.0000
  Fe  Fe361     1.0  0.44853  0.66515  0.65527  1.0000
  S   S726      1.0  0.45320  0.64597  0.67289  1.0000
  S   S727      1.0  0.46480  0.66590  0.63445  1.0000
  Fe  Fe362     1.0  0.42967  0.64659  0.67695  1.0000
  S   S728      1.0  0.42150  0.62625  0.68156  1.0000
  Fe  Fe363     1.0  0.44730  0.66198  0.68679  1.0000
  S   S729      1.0  0.42551  0.66485  0.65834  1.0000
  S   S730      1.0  0.44409  0.68110  0.66877  1.0000
  Fe  Fe364     1.0  0.26180  0.66090  0.71684  1.0000
  S   S731      1.0  0.24753  0.64713  0.71671  1.0000
  H   H3178     1.0  0.34594  0.74089  0.61669  1.0000
  Fe  Fe365     1.0  0.27589  0.63840  0.73923  1.0000
  H   H3179     1.0  0.23836  0.78749  0.66476  1.0000
  C   C2634     1.0  0.35363  0.74732  0.60928  1.0000
  Fe  Fe366     1.0  0.26718  0.62956  0.71698  1.0000
  S   S732      1.0  0.27406  0.61449  0.70216  1.0000
  S   S733      1.0  0.28174  0.64368  0.71523  1.0000
  S   S734      1.0  0.25739  0.65717  0.74078  1.0000
  Fe  Fe367     1.0  0.37418  0.59430  0.65149  1.0000
  S   S735      1.0  0.37462  0.57626  0.67097  1.0000
  S   S736      1.0  0.38786  0.61104  0.64404  1.0000
  Fe  Fe368     1.0  0.34835  0.58764  0.64540  1.0000
  S   S737      1.0  0.34636  0.56979  0.66493  1.0000
  S   S738      1.0  0.33408  0.59431  0.62947  1.0000
  Fe  Fe369     1.0  0.35088  0.58427  0.67595  1.0000
  S   S739      1.0  0.33974  0.58802  0.69794  1.0000
  Fe  Fe370     1.0  0.37016  0.56340  0.65797  1.0000
  S   S740      1.0  0.38072  0.54010  0.65789  1.0000
  S   S741      1.0  0.35051  0.60290  0.65714  1.0000
  S   S742      1.0  0.37203  0.58066  0.63778  1.0000
  C   C2635     1.0  0.29219  0.60664  0.70123  1.0000
  C   C2636     1.0  0.30040  0.60094  0.68938  1.0000
  C   C2637     1.0  0.31507  0.59532  0.68824  1.0000
  C   C2638     1.0  0.32146  0.59506  0.69916  1.0000
  C   C2639     1.0  0.31321  0.60056  0.71112  1.0000
  C   C2640     1.0  0.29862  0.60650  0.71208  1.0000
  H   H3180     1.0  0.29552  0.60110  0.68095  1.0000
  H   H3181     1.0  0.32143  0.59109  0.67898  1.0000
  H   H3182     1.0  0.31811  0.60021  0.71965  1.0000
  H   H3183     1.0  0.29230  0.61074  0.72134  1.0000
  H   H3184     1.0  0.34096  0.53358  0.64250  1.0000
  C   C2641     1.0  0.41065  0.62283  0.67203  1.0000
  C   C2642     1.0  0.40559  0.63308  0.66067  1.0000
  C   C2643     1.0  0.39823  0.62945  0.65249  1.0000
  C   C2644     1.0  0.39564  0.61562  0.65567  1.0000
  C   C2645     1.0  0.40017  0.60555  0.66739  1.0000
  C   C2646     1.0  0.40767  0.60914  0.67548  1.0000
  H   H3185     1.0  0.40754  0.64374  0.65800  1.0000
  H   H3186     1.0  0.39467  0.63736  0.64353  1.0000
  H   H3187     1.0  0.39828  0.59486  0.66998  1.0000
  H   H3188     1.0  0.41144  0.60113  0.68428  1.0000
  H   H3189     1.0  0.31179  0.49848  0.58998  1.0000
  C   C2647     1.0  0.35209  0.55906  0.59297  1.0000
  H   H3190     1.0  0.33608  0.77246  0.60229  1.0000
  C   C2648     1.0  0.37079  0.70225  0.74573  1.0000
  C   C2649     1.0  0.37712  0.55564  0.59252  1.0000
  H   H3191     1.0  0.27068  0.75861  0.66267  1.0000
  C   C2650     1.0  0.30193  0.77769  0.74618  1.0000
  C   C2651     1.0  0.27320  0.82965  0.77325  1.0000
  Fe  Fe371     1.0  0.26397  0.74348  0.58654  1.0000
  H   H3192     1.0  0.24456  0.59868  0.65487  1.0000
  C   C2652     1.0  0.36250  0.68785  0.70631  1.0000
  C   C2653     1.0  0.37318  0.67714  0.70062  1.0000
  C   C2654     1.0  0.38582  0.68035  0.69127  1.0000
  C   C2655     1.0  0.38780  0.69437  0.68737  1.0000
  C   C2656     1.0  0.37711  0.70515  0.69300  1.0000
  C   C2657     1.0  0.36452  0.70188  0.70257  1.0000
  H   H3193     1.0  0.37173  0.66626  0.70352  1.0000
  H   H3194     1.0  0.39396  0.67197  0.68693  1.0000
  H   H3195     1.0  0.37862  0.71601  0.69008  1.0000
  H   H3196     1.0  0.35642  0.71019  0.70700  1.0000
  C   C2658     1.0  0.26539  0.70955  0.72339  1.0000
  C   C2659     1.0  0.35649  0.51383  0.64603  1.0000
  H   H3197     1.0  0.35359  0.75578  0.61462  1.0000
  N   N176      1.0  0.42295  0.78212  0.59613  1.0000
  H   H3198     1.0  0.36108  0.49395  0.69735  1.0000
  H   H3199     1.0  0.32569  0.77748  0.76492  1.0000
  C   C2660     1.0  0.45730  0.67102  0.61938  1.0000
  C   C2661     1.0  0.44340  0.67927  0.61985  1.0000
  H   H3200     1.0  0.41424  0.66375  0.73970  1.0000
  H   H3201     1.0  0.43697  0.68222  0.62971  1.0000
  C   C2662     1.0  0.37693  0.51536  0.65369  1.0000
  C   C2663     1.0  0.31167  0.77547  0.69699  1.0000
  C   C2664     1.0  0.31187  0.76722  0.71087  1.0000
  C   C2665     1.0  0.30451  0.75611  0.71639  1.0000
  C   C2666     1.0  0.29693  0.75326  0.70802  1.0000
  C   C2667     1.0  0.29624  0.76184  0.69440  1.0000
  C   C2668     1.0  0.30369  0.77286  0.68887  1.0000
  H   H3202     1.0  0.31817  0.76908  0.71712  1.0000
  H   H3203     1.0  0.30502  0.74952  0.72699  1.0000
  H   H3204     1.0  0.29059  0.75954  0.68783  1.0000
  H   H3205     1.0  0.30337  0.77912  0.67826  1.0000
  H   H3206     1.0  0.37955  0.78382  0.60206  1.0000
  C   C2669     1.0  0.28265  0.84548  0.75132  1.0000
  C   C2670     1.0  0.29278  0.84676  0.75782  1.0000
  H   H3207     1.0  0.25930  0.80883  0.59064  1.0000
  H   H3208     1.0  0.45164  0.62928  0.65060  1.0000
  H   H3209     1.0  0.33535  0.50440  0.58522  1.0000
  C   C2671     1.0  0.27280  0.83698  0.75906  1.0000
  H   H3210     1.0  0.30039  0.85334  0.75187  1.0000
  S   S743      1.0  0.29061  0.57302  0.58582  1.0000
  H   H3211     1.0  0.25752  0.58201  0.63962  1.0000
  H   H3212     1.0  0.26513  0.83575  0.75407  1.0000
  C   C2672     1.0  0.27184  0.86045  0.66242  1.0000
  C   C2673     1.0  0.27866  0.84627  0.66743  1.0000
  C   C2674     1.0  0.28928  0.83866  0.65788  1.0000
  C   C2675     1.0  0.29302  0.84528  0.64332  1.0000
  C   C2676     1.0  0.28584  0.85924  0.63833  1.0000
  C   C2677     1.0  0.27533  0.86678  0.64781  1.0000
  H   H3213     1.0  0.27588  0.84123  0.67863  1.0000
  H   H3214     1.0  0.29466  0.82780  0.66177  1.0000
  H   H3215     1.0  0.28861  0.86437  0.62709  1.0000
  H   H3216     1.0  0.27008  0.87770  0.64383  1.0000
  H   H3217     1.0  0.47099  0.73486  0.63775  1.0000
  C   C2678     1.0  0.36243  0.73166  0.58510  1.0000
  S   S744      1.0  0.27449  0.77709  0.58862  1.0000
  H   H3218     1.0  0.24415  0.69579  0.72871  1.0000
  H   H3219     1.0  0.38039  0.71219  0.75595  1.0000
  H   H3220     1.0  0.30532  0.52281  0.64242  1.0000
  S   S745      1.0  0.42925  0.72181  0.59113  1.0000
  H   H3221     1.0  0.28646  0.49388  0.65310  1.0000
  Fe  Fe372     1.0  0.25672  0.77574  0.57986  1.0000
  H   H3222     1.0  0.26082  0.70537  0.65312  1.0000
  C   C2679     1.0  0.31638  0.78118  0.76024  1.0000
  H   H3223     1.0  0.41289  0.80328  0.59997  1.0000
  H   H3224     1.0  0.32549  0.54148  0.59782  1.0000
  H   H3225     1.0  0.26256  0.76531  0.70101  1.0000
  H   H3226     1.0  0.46277  0.63225  0.61817  1.0000
  C   C2680     1.0  0.31187  0.56228  0.62424  1.0000
  C   C2681     1.0  0.31213  0.57536  0.61436  1.0000
  C   C2682     1.0  0.31880  0.58519  0.61620  1.0000
  C   C2683     1.0  0.32528  0.58196  0.62788  1.0000
  C   C2684     1.0  0.32481  0.56897  0.63787  1.0000
  C   C2685     1.0  0.31810  0.55918  0.63605  1.0000
  H   H3227     1.0  0.30732  0.57786  0.60524  1.0000
  H   H3228     1.0  0.31910  0.59523  0.60843  1.0000
  H   H3229     1.0  0.32966  0.56640  0.64695  1.0000
  H   H3230     1.0  0.31774  0.54916  0.64383  1.0000
  C   C2686     1.0  0.33406  0.51631  0.68186  1.0000
  S   S746      1.0  0.24985  0.59135  0.59407  1.0000
  H   H3231     1.0  0.31708  0.49619  0.68832  1.0000
  H   H3232     1.0  0.27371  0.59068  0.60557  1.0000
  C   C2687     1.0  0.33715  0.74019  0.58583  1.0000
  C   C2688     1.0  0.35838  0.53653  0.64922  1.0000
  C   C2689     1.0  0.35099  0.52845  0.64564  1.0000
  H   H3233     1.0  0.35402  0.54780  0.64881  1.0000
  N   N177      1.0  0.31249  0.83402  0.69384  1.0000
  C   C2690     1.0  0.30571  0.82348  0.69189  1.0000
  C   C2691     1.0  0.32822  0.82904  0.68983  1.0000
  C   C2692     1.0  0.30867  0.83416  0.70938  1.0000
  C   C2693     1.0  0.30775  0.84811  0.68457  1.0000
  C   C2694     1.0  0.29831  0.85986  0.69018  1.0000
  C   C2695     1.0  0.31182  0.85010  0.66939  1.0000
  C   C2696     1.0  0.29336  0.87273  0.68108  1.0000
  C   C2697     1.0  0.30696  0.86309  0.66041  1.0000
  C   C2698     1.0  0.29769  0.87435  0.66624  1.0000
  H   H3234     1.0  0.30971  0.82121  0.68094  1.0000
  H   H3235     1.0  0.30779  0.81307  0.69964  1.0000
  H   H3236     1.0  0.29396  0.82739  0.69343  1.0000
  H   H3237     1.0  0.33199  0.82694  0.67884  1.0000
  H   H3238     1.0  0.33206  0.81869  0.69704  1.0000
  H   H3239     1.0  0.33372  0.83710  0.69037  1.0000
  H   H3240     1.0  0.29694  0.83624  0.71359  1.0000
  H   H3241     1.0  0.31308  0.82370  0.71604  1.0000
  H   H3242     1.0  0.31282  0.84246  0.71149  1.0000
  H   H3243     1.0  0.29432  0.85934  0.70155  1.0000
  H   H3244     1.0  0.31835  0.84148  0.66429  1.0000
  H   H3245     1.0  0.28582  0.88140  0.68556  1.0000
  H   H3246     1.0  0.30992  0.86420  0.64884  1.0000
  H   H3247     1.0  0.29348  0.88420  0.65924  1.0000
  S   S747      1.0  0.26269  0.68296  0.70332  1.0000
  S   S748      1.0  0.33118  0.73259  0.75914  1.0000
  C   C2699     1.0  0.26760  0.50571  0.59341  1.0000
  H   H3248     1.0  0.46793  0.61656  0.63120  1.0000
  H   H3249     1.0  0.27075  0.77886  0.67993  1.0000
  S   S749      1.0  0.34655  0.50451  0.64128  1.0000
  S   S750      1.0  0.24400  0.84697  0.73891  1.0000
  C   C2700     1.0  0.24498  0.77038  0.69014  1.0000
  H   H3250     1.0  0.27851  0.80022  0.60009  1.0000
  N   N178      1.0  0.42832  0.72348  0.63910  1.0000
  C   C2701     1.0  0.42080  0.72701  0.65323  1.0000
  C   C2702     1.0  0.42476  0.73612  0.62756  1.0000
  C   C2703     1.0  0.42263  0.71182  0.63766  1.0000
  C   C2704     1.0  0.44393  0.71973  0.63806  1.0000
  C   C2705     1.0  0.45257  0.70618  0.63601  1.0000
  C   C2706     1.0  0.45096  0.72989  0.63898  1.0000
  H   H3251     1.0  0.36447  0.74022  0.60836  1.0000
  H   H3252     1.0  0.25733  0.74984  0.67505  1.0000
  H   H3253     1.0  0.37235  0.73214  0.58704  1.0000
  H   H3254     1.0  0.42318  0.73671  0.65461  1.0000
  H   H3255     1.0  0.40899  0.72904  0.65478  1.0000
  H   H3256     1.0  0.42382  0.71796  0.66217  1.0000
  H   H3257     1.0  0.41315  0.73907  0.62787  1.0000
  H   H3258     1.0  0.43039  0.73388  0.61680  1.0000
  H   H3259     1.0  0.42763  0.74577  0.62841  1.0000
  H   H3260     1.0  0.42442  0.70208  0.64635  1.0000
  H   H3261     1.0  0.41086  0.71501  0.63854  1.0000
  H   H3262     1.0  0.42739  0.70895  0.62702  1.0000
  H   H3263     1.0  0.44825  0.69769  0.63533  1.0000
  H   H3264     1.0  0.44511  0.74041  0.64054  1.0000
  C   C2707     1.0  0.25689  0.69788  0.66269  1.0000
  H   H3265     1.0  0.28839  0.49086  0.63577  1.0000
  H   H3266     1.0  0.26929  0.70137  0.67544  1.0000
  C   C2708     1.0  0.33570  0.76379  0.59745  1.0000
  H   H3267     1.0  0.26138  0.64415  0.77085  1.0000
  C   C2709     1.0  0.32145  0.51128  0.61857  1.0000
  C   C2710     1.0  0.45282  0.77117  0.61661  1.0000
  H   H3268     1.0  0.24860  0.58946  0.69302  1.0000
  Fe  Fe373     1.0  0.24478  0.64196  0.74060  1.0000
  H   H3269     1.0  0.44716  0.64447  0.63681  1.0000
  H   H3270     1.0  0.26543  0.78659  0.76279  1.0000
  C   C2711     1.0  0.33760  0.72921  0.57942  1.0000
  C   C2712     1.0  0.30648  0.79363  0.76286  1.0000
  C   C2713     1.0  0.26569  0.79688  0.75469  1.0000
  H   H3271     1.0  0.26804  0.70036  0.71815  1.0000
  H   H3272     1.0  0.25452  0.83124  0.69461  1.0000
  H   H3273     1.0  0.29468  0.50038  0.61245  1.0000
  H   H3274     1.0  0.31325  0.50417  0.64837  1.0000
  H   H3275     1.0  0.28598  0.68310  0.74787  1.0000
  C   C2714     1.0  0.36086  0.55284  0.61540  1.0000
  H   H3276     1.0  0.45249  0.77448  0.59479  1.0000
  H   H3277     1.0  0.47354  0.69262  0.63338  1.0000
  H   H3278     1.0  0.25622  0.79292  0.67492  1.0000
  C   C2715     1.0  0.26649  0.48164  0.59291  1.0000
  H   H3279     1.0  0.30086  0.74621  0.76434  1.0000
  H   H3280     1.0  0.26489  0.59403  0.69254  1.0000
  H   H3281     1.0  0.25753  0.79090  0.61257  1.0000
  C   C2716     1.0  0.25534  0.59339  0.65590  1.0000
  C   C2717     1.0  0.46575  0.72676  0.63760  1.0000
  C   C2718     1.0  0.43022  0.77408  0.63356  1.0000
  H   H3282     1.0  0.48511  0.67247  0.65776  1.0000
  C   C2719     1.0  0.24378  0.72264  0.71385  1.0000
  H   H3283     1.0  0.25093  0.72502  0.67743  1.0000
  H   H3284     1.0  0.36039  0.77097  0.59012  1.0000
  H   H3285     1.0  0.43337  0.63663  0.64972  1.0000
  C   C2720     1.0  0.25127  0.72055  0.69988  1.0000
  C   C2721     1.0  0.24921  0.79883  0.61802  1.0000
  C   C2722     1.0  0.41487  0.64422  0.60661  1.0000
  H   H3286     1.0  0.24942  0.79546  0.62962  1.0000
  C   C2723     1.0  0.28871  0.67258  0.75455  1.0000
  S   S751      1.0  0.43963  0.68602  0.57892  1.0000
  H   H3287     1.0  0.27637  0.77486  0.74165  1.0000
  C   C2724     1.0  0.31459  0.50192  0.59798  1.0000
  Fe  Fe374     1.0  0.23874  0.64455  0.64130  1.0000
  H   H3288     1.0  0.47610  0.66031  0.60635  1.0000
  C   C2725     1.0  0.35737  0.51664  0.69184  1.0000
  H   H3289     1.0  0.34896  0.58082  0.60464  1.0000
  C   C2726     1.0  0.47743  0.74770  0.59315  1.0000
  C   C2727     1.0  0.34966  0.74187  0.58869  1.0000
  H   H3290     1.0  0.37950  0.56184  0.58127  1.0000
  C   C2728     1.0  0.43188  0.78687  0.58171  1.0000
  N   N179      1.0  0.29769  0.50807  0.63572  1.0000
  H   H3291     1.0  0.30098  0.84052  0.77704  1.0000
  Fe  Fe375     1.0  0.40554  0.72943  0.59469  1.0000
  H   H3292     1.0  0.26661  0.48808  0.61184  1.0000
  C   C2729     1.0  0.32780  0.50530  0.59531  1.0000
  H   H3293     1.0  0.26690  0.78983  0.73064  1.0000
  C   C2730     1.0  0.37136  0.53004  0.65330  1.0000
  H   H3294     1.0  0.33090  0.53936  0.67643  1.0000
  C   C2731     1.0  0.34305  0.63421  0.71065  1.0000
  S   S752      1.0  0.25705  0.72494  0.58425  1.0000
  S   S753      1.0  0.29186  0.68619  0.77330  1.0000
  C   C2732     1.0  0.44578  0.77474  0.60536  1.0000
  H   H3295     1.0  0.29538  0.51177  0.65675  1.0000
  H   H3296     1.0  0.37397  0.49601  0.65019  1.0000
  H   H3297     1.0  0.26932  0.78440  0.66172  1.0000
  H   H3298     1.0  0.48637  0.69211  0.60840  1.0000
  C   C2733     1.0  0.46729  0.70309  0.63485  1.0000
  C   C2734     1.0  0.44432  0.63414  0.64307  1.0000
  C   C2735     1.0  0.29162  0.81404  0.61969  1.0000
  N   N180      1.0  0.29967  0.62902  0.63463  1.0000
  C   C2736     1.0  0.31520  0.62837  0.63167  1.0000
  C   C2737     1.0  0.29728  0.61424  0.63886  1.0000
  C   C2738     1.0  0.29495  0.63610  0.62095  1.0000
  C   C2739     1.0  0.29210  0.63651  0.64646  1.0000
  C   C2740     1.0  0.29612  0.63160  0.65991  1.0000
  C   C2741     1.0  0.28070  0.64875  0.64509  1.0000
  C   C2742     1.0  0.28932  0.63862  0.67119  1.0000
  C   C2743     1.0  0.27411  0.65578  0.65638  1.0000
  C   C2744     1.0  0.27834  0.65071  0.66942  1.0000
  H   H3299     1.0  0.32021  0.62126  0.64059  1.0000
  H   H3300     1.0  0.32114  0.62395  0.62201  1.0000
  H   H3301     1.0  0.31733  0.63918  0.62984  1.0000
  H   H3302     1.0  0.30174  0.60773  0.64832  1.0000
  H   H3303     1.0  0.30251  0.60837  0.63008  1.0000
  H   H3304     1.0  0.28569  0.61431  0.64147  1.0000
  H   H3305     1.0  0.29656  0.64726  0.61708  1.0000
  H   H3306     1.0  0.30096  0.63026  0.61226  1.0000
  H   H3307     1.0  0.28352  0.63630  0.62210  1.0000
  H   H3308     1.0  0.30460  0.62227  0.66182  1.0000
  H   H3309     1.0  0.27663  0.65315  0.63542  1.0000
  H   H3310     1.0  0.29252  0.63463  0.68140  1.0000
  H   H3311     1.0  0.26560  0.66522  0.65500  1.0000
  H   H3312     1.0  0.27308  0.65613  0.67819  1.0000
  N   N181      1.0  0.33082  0.72775  0.67915  1.0000
  C   C2745     1.0  0.31882  0.73521  0.67184  1.0000
  C   C2746     1.0  0.32582  0.71628  0.69121  1.0000
  C   C2747     1.0  0.33410  0.73807  0.68530  1.0000
  C   C2748     1.0  0.34370  0.72231  0.66880  1.0000
  C   C2749     1.0  0.35205  0.70811  0.67164  1.0000
  C   C2750     1.0  0.34869  0.73154  0.65570  1.0000
  C   C2751     1.0  0.36454  0.70355  0.66189  1.0000
  C   C2752     1.0  0.36099  0.72676  0.64592  1.0000
  C   C2753     1.0  0.36897  0.71284  0.64903  1.0000
  H   H3313     1.0  0.32052  0.74552  0.66437  1.0000
  H   H3314     1.0  0.31719  0.72841  0.66553  1.0000
  H   H3315     1.0  0.30861  0.73801  0.67963  1.0000
  H   H3316     1.0  0.32361  0.70794  0.68720  1.0000
  H   H3317     1.0  0.31580  0.72056  0.69851  1.0000
  H   H3318     1.0  0.33372  0.71102  0.69807  1.0000
  H   H3319     1.0  0.34328  0.73301  0.69058  1.0000
  H   H3320     1.0  0.33688  0.74757  0.67696  1.0000
  H   H3321     1.0  0.32486  0.74220  0.69347  1.0000
  H   H3322     1.0  0.34932  0.70033  0.68140  1.0000
  H   H3323     1.0  0.34321  0.74262  0.65297  1.0000
  H   H3324     1.0  0.37091  0.69277  0.66442  1.0000
  H   H3325     1.0  0.36447  0.73398  0.63596  1.0000
  H   H3326     1.0  0.37869  0.70931  0.64150  1.0000
  C   C2754     1.0  0.29226  0.75124  0.62846  1.0000
  C   C2755     1.0  0.42380  0.62435  0.62468  1.0000
  H   H3327     1.0  0.27336  0.61369  0.67359  1.0000
  C   C2756     1.0  0.29127  0.80654  0.60997  1.0000
  H   H3328     1.0  0.46066  0.61531  0.61707  1.0000
  C   C2757     1.0  0.44507  0.77103  0.63064  1.0000
  H   H3329     1.0  0.35482  0.48553  0.66938  1.0000
  C   C2758     1.0  0.43790  0.68396  0.60741  1.0000
  C   C2759     1.0  0.26237  0.61781  0.67181  1.0000
  H   H3330     1.0  0.48538  0.71105  0.63427  1.0000
  H   H3331     1.0  0.29776  0.78384  0.63857  1.0000
  H   H3332     1.0  0.42468  0.69933  0.72671  1.0000
  H   H3333     1.0  0.32515  0.51701  0.67744  1.0000
  C   C2760     1.0  0.31909  0.73860  0.77405  1.0000
  C   C2761     1.0  0.27896  0.82141  0.62703  1.0000
  H   H3334     1.0  0.36412  0.69106  0.73412  1.0000
  C   C2762     1.0  0.26657  0.60747  0.61730  1.0000
  C   C2763     1.0  0.28460  0.51896  0.63322  1.0000
  C   C2764     1.0  0.26271  0.58381  0.64698  1.0000
  N   N182      1.0  0.25148  0.81357  0.61191  1.0000
  H   H3335     1.0  0.25704  0.62563  0.67883  1.0000
  C   C2765     1.0  0.37938  0.76487  0.63633  1.0000
  C   C2766     1.0  0.48293  0.69947  0.58688  1.0000
  N   N183      1.0  0.44517  0.62444  0.63383  1.0000
  H   H3336     1.0  0.28203  0.59026  0.67245  1.0000
  H   H3337     1.0  0.30114  0.80057  0.60452  1.0000
  C   C2767     1.0  0.29184  0.64688  0.75892  1.0000
  H   H3338     1.0  0.30173  0.81408  0.62161  1.0000
  H   H3339     1.0  0.30807  0.79968  0.76961  1.0000
  C   C2768     1.0  0.38688  0.74892  0.61981  1.0000
  H   H3340     1.0  0.42233  0.61416  0.63168  1.0000
  S   S754      1.0  0.29781  0.53812  0.59012  1.0000
  C   C2769     1.0  0.29193  0.67107  0.76776  1.0000
  H   H3341     1.0  0.41154  0.77950  0.62535  1.0000
  H   H3342     1.0  0.38486  0.74186  0.64272  1.0000
  C   C2770     1.0  0.38086  0.77466  0.61090  1.0000
  S   S755      1.0  0.26702  0.51788  0.60367  1.0000
  H   H3343     1.0  0.40564  0.62577  0.61640  1.0000
  H   H3344     1.0  0.26182  0.71379  0.69793  1.0000
  H   H3345     1.0  0.42466  0.68342  0.74115  1.0000
  N   N184      1.0  0.33943  0.48898  0.68872  1.0000
  H   H3346     1.0  0.47443  0.67343  0.71745  1.0000
  C   C2771     1.0  0.27825  0.80652  0.60743  1.0000
  C   C2772     1.0  0.30482  0.50302  0.61098  1.0000
  C   C2773     1.0  0.33723  0.52931  0.68120  1.0000
  H   H3347     1.0  0.34146  0.51272  0.60353  1.0000
  N   N185      1.0  0.36234  0.56085  0.60021  1.0000
  H   H3348     1.0  0.25158  0.83335  0.67035  1.0000
  C   C2774     1.0  0.36029  0.57621  0.60011  1.0000
  C   C2775     1.0  0.28271  0.77441  0.63470  1.0000
  Fe  Fe376     1.0  0.26724  0.75953  0.60666  1.0000
  H   H3349     1.0  0.27061  0.75364  0.68146  1.0000
  H   H3350     1.0  0.38514  0.55650  0.59789  1.0000
  H   H3351     1.0  0.26314  0.62382  0.66048  1.0000
  C   C2776     1.0  0.30807  0.50743  0.62184  1.0000
  H   H3352     1.0  0.36681  0.57786  0.60669  1.0000
  H   H3353     1.0  0.44313  0.65025  0.61434  1.0000
  H   H3354     1.0  0.36849  0.55457  0.62070  1.0000
  S   S756      1.0  0.28199  0.74171  0.59658  1.0000
  C   C2777     1.0  0.29311  0.83954  0.77202  1.0000
  H   H3355     1.0  0.42418  0.77388  0.64452  1.0000
  C   C2778     1.0  0.25661  0.68592  0.68763  1.0000
  C   C2779     1.0  0.41609  0.66843  0.72795  1.0000
  S   S757      1.0  0.26297  0.62281  0.74091  1.0000
  C   C2780     1.0  0.29620  0.77465  0.63599  1.0000
  C   C2781     1.0  0.38377  0.75099  0.63380  1.0000
  C   C2782     1.0  0.39632  0.69944  0.74208  1.0000
  C   C2783     1.0  0.35417  0.50358  0.69278  1.0000
  S   S758      1.0  0.39307  0.73144  0.61692  1.0000
  H   H3356     1.0  0.44410  0.60234  0.63721  1.0000
  C   C2784     1.0  0.47672  0.66333  0.70015  1.0000
  S   S759      1.0  0.29107  0.63185  0.75379  1.0000
  N   N186      1.0  0.41373  0.68427  0.72497  1.0000
  C   C2785     1.0  0.30318  0.51184  0.64628  1.0000
  H   H3357     1.0  0.31458  0.74249  0.62806  1.0000
  Fe  Fe377     1.0  0.27438  0.53900  0.59517  1.0000
  S   S760      1.0  0.40271  0.71411  0.58355  1.0000
  H   H3358     1.0  0.32200  0.76370  0.74970  1.0000
  C   C2786     1.0  0.37315  0.69340  0.73630  1.0000
  C   C2787     1.0  0.24804  0.82501  0.69318  1.0000
  H   H3359     1.0  0.25519  0.82752  0.59096  1.0000
  H   H3360     1.0  0.40895  0.66486  0.72355  1.0000
  C   C2788     1.0  0.24147  0.81576  0.70494  1.0000
  H   H3361     1.0  0.35001  0.55635  0.62185  1.0000
  C   C2789     1.0  0.33273  0.55609  0.57843  1.0000
  H   H3362     1.0  0.29473  0.57406  0.65627  1.0000
  H   H3363     1.0  0.46515  0.73331  0.60864  1.0000
  C   C2790     1.0  0.29437  0.79824  0.75703  1.0000
  S   S761      1.0  0.45800  0.66486  0.70297  1.0000
  H   H3364     1.0  0.40473  0.70225  0.74481  1.0000
  C   C2791     1.0  0.37808  0.77671  0.62486  1.0000
  H   H3365     1.0  0.35162  0.53954  0.68514  1.0000
  C   C2792     1.0  0.30768  0.76317  0.63356  1.0000
  S   S762      1.0  0.25750  0.62794  0.63318  1.0000
  C   C2793     1.0  0.38706  0.68765  0.72959  1.0000
  C   C2794     1.0  0.25198  0.60158  0.60490  1.0000
  H   H3366     1.0  0.32687  0.74729  0.58826  1.0000
  C   C2795     1.0  0.26493  0.59908  0.60890  1.0000
  H   H3367     1.0  0.28707  0.80797  0.75932  1.0000
  C   C2796     1.0  0.30472  0.74489  0.77384  1.0000
  H   H3368     1.0  0.33215  0.76901  0.58720  1.0000
  C   C2797     1.0  0.39911  0.69041  0.73233  1.0000
  H   H3369     1.0  0.38827  0.68111  0.72212  1.0000
  H   H3370     1.0  0.42777  0.76037  0.59382  1.0000
  H   H3371     1.0  0.37704  0.76643  0.64716  1.0000
  H   H3372     1.0  0.25253  0.72119  0.74523  1.0000
  C   C2798     1.0  0.42519  0.68761  0.72943  1.0000
  C   C2799     1.0  0.41546  0.68999  0.70927  1.0000
  H   H3373     1.0  0.42720  0.66344  0.72298  1.0000
  H   H3374     1.0  0.40816  0.68671  0.70484  1.0000
  H   H3375     1.0  0.42650  0.68608  0.70331  1.0000
  C   C2800     1.0  0.26198  0.59619  0.66542  1.0000
  S   S763      1.0  0.24861  0.75936  0.59860  1.0000
  C   C2801     1.0  0.46632  0.74033  0.59813  1.0000
  H   H3376     1.0  0.36303  0.54107  0.61633  1.0000
  H   H3377     1.0  0.32194  0.62607  0.74400  1.0000
  H   H3378     1.0  0.43602  0.68258  0.72383  1.0000
  H   H3379     1.0  0.26514  0.80514  0.76046  1.0000
  H   H3380     1.0  0.32464  0.51537  0.62585  1.0000
  H   H3381     1.0  0.30764  0.64265  0.72589  1.0000
  H   H3382     1.0  0.41311  0.70190  0.70657  1.0000
  C   C2802     1.0  0.33294  0.54840  0.59243  1.0000
  H   H3383     1.0  0.32051  0.65113  0.73726  1.0000
  H   H3384     1.0  0.38701  0.51029  0.65679  1.0000
  C   C2803     1.0  0.28076  0.76269  0.63095  1.0000
  C   C2804     1.0  0.25518  0.61819  0.62205  1.0000
  C   C2805     1.0  0.24741  0.69007  0.66234  1.0000
  H   H3385     1.0  0.28849  0.80895  0.72400  1.0000
  C   C2806     1.0  0.30570  0.75141  0.62992  1.0000
  C   C2807     1.0  0.34506  0.62264  0.70408  1.0000
  C   C2808     1.0  0.38523  0.76076  0.60839  1.0000
  C   C2809     1.0  0.31726  0.63986  0.71743  1.0000
  C   C2810     1.0  0.33084  0.62418  0.73457  1.0000
  H   H3386     1.0  0.31600  0.63042  0.71443  1.0000
  H   H3387     1.0  0.32963  0.61470  0.73161  1.0000
  H   H3388     1.0  0.29075  0.74220  0.62551  1.0000
  C   C2811     1.0  0.36953  0.50725  0.65004  1.0000
  C   C2812     1.0  0.33000  0.64940  0.72831  1.0000
  H   H3389     1.0  0.31697  0.64892  0.70787  1.0000
  H   H3390     1.0  0.34105  0.62115  0.73820  1.0000
  H   H3391     1.0  0.26934  0.81362  0.72807  1.0000
  C   C2813     1.0  0.43465  0.63104  0.62462  1.0000
  C   C2814     1.0  0.26362  0.75790  0.67361  1.0000
  C   C2815     1.0  0.26514  0.81417  0.61447  1.0000
  H   H3392     1.0  0.27396  0.78350  0.63613  1.0000
  H   H3393     1.0  0.28582  0.78467  0.72515  1.0000
  H   H3394     1.0  0.32709  0.48788  0.71038  1.0000
  N   N187      1.0  0.33056  0.63697  0.72253  1.0000
  H   H3395     1.0  0.32925  0.65955  0.71995  1.0000
  H   H3396     1.0  0.33952  0.64780  0.73273  1.0000
  H   H3397     1.0  0.27663  0.60541  0.62036  1.0000
  H   H3398     1.0  0.35288  0.65179  0.70950  1.0000
  H   H3399     1.0  0.33761  0.61567  0.70753  1.0000
  C   C2816     1.0  0.35349  0.64272  0.70527  1.0000
  H   H3400     1.0  0.30349  0.48536  0.64373  1.0000
  C   C2817     1.0  0.31423  0.77338  0.75172  1.0000
  S   S764      1.0  0.24180  0.69234  0.64656  1.0000
  C   C2818     1.0  0.27636  0.58880  0.66539  1.0000
  C   C2819     1.0  0.35678  0.61972  0.69291  1.0000
  C   C2820     1.0  0.26585  0.82147  0.62457  1.0000
  H   H3401     1.0  0.37592  0.62585  0.67934  1.0000
  H   H3402     1.0  0.45078  0.60591  0.65047  1.0000
  H   H3403     1.0  0.27933  0.82715  0.63467  1.0000
  C   C2821     1.0  0.36521  0.63966  0.69410  1.0000
  C   C2822     1.0  0.36683  0.62820  0.68795  1.0000
  H   H3404     1.0  0.37316  0.64615  0.69019  1.0000
  H   H3405     1.0  0.35810  0.61075  0.68813  1.0000
  C   C2823     1.0  0.44296  0.61045  0.64342  1.0000
  Fe  Fe378     1.0  0.24660  0.83684  0.72065  1.0000
  H   H3406     1.0  0.25648  0.82726  0.63079  1.0000
  N   N188      1.0  0.25406  0.77192  0.67541  1.0000
  H   H3407     1.0  0.42724  0.69055  0.60770  1.0000
  H   H3408     1.0  0.40157  0.79064  0.60751  1.0000
  H   H3409     1.0  0.42608  0.66133  0.59892  1.0000
  H   H3410     1.0  0.24834  0.60570  0.69779  1.0000
  H   H3411     1.0  0.46441  0.76855  0.61437  1.0000
  H   H3412     1.0  0.24321  0.64613  0.76999  1.0000
  C   C2824     1.0  0.27692  0.78571  0.73473  1.0000
  N   N189      1.0  0.24977  0.71563  0.72679  1.0000
  C   C2825     1.0  0.25408  0.59848  0.69022  1.0000
  C   C2826     1.0  0.28855  0.66048  0.75017  1.0000
  C   C2827     1.0  0.42545  0.65099  0.60616  1.0000
  H   H3413     1.0  0.23815  0.85451  0.76969  1.0000
  C   C2828     1.0  0.45968  0.67098  0.59445  1.0000
  C   C2829     1.0  0.45677  0.74181  0.58957  1.0000
  H   H3414     1.0  0.38723  0.75926  0.59765  1.0000
  H   H3415     1.0  0.44833  0.73607  0.59366  1.0000
  C   C2830     1.0  0.38234  0.70526  0.74861  1.0000
  H   H3416     1.0  0.27672  0.52033  0.64341  1.0000
  H   H3417     1.0  0.23926  0.61954  0.66261  1.0000
  H   H3418     1.0  0.30074  0.77084  0.74013  1.0000
  C   C2831     1.0  0.25117  0.76701  0.70224  1.0000
  H   H3419     1.0  0.27890  0.81786  0.73840  1.0000
  C   C2832     1.0  0.46541  0.66684  0.60669  1.0000
  N   N190      1.0  0.34971  0.75355  0.59515  1.0000
  H   H3420     1.0  0.27912  0.51615  0.62646  1.0000
  S   S765      1.0  0.23983  0.65168  0.66036  1.0000
  H   H3421     1.0  0.27131  0.71782  0.71629  1.0000
  H   H3422     1.0  0.26983  0.70525  0.73322  1.0000
  C   C2833     1.0  0.26295  0.78242  0.67294  1.0000
  H   H3423     1.0  0.45063  0.76848  0.63926  1.0000
  H   H3424     1.0  0.43223  0.61159  0.65078  1.0000
  N   N191      1.0  0.27853  0.79541  0.74283  1.0000
  C   C2834     1.0  0.43518  0.64455  0.61504  1.0000
  H   H3425     1.0  0.28598  0.66168  0.73998  1.0000
  H   H3426     1.0  0.24771  0.76348  0.72525  1.0000
  H   H3427     1.0  0.32908  0.49545  0.67091  1.0000
  S   S766      1.0  0.26407  0.76251  0.62896  1.0000
  H   H3428     1.0  0.32731  0.75840  0.60509  1.0000
  C   C2835     1.0  0.29158  0.79031  0.74869  1.0000
  H   H3429     1.0  0.37139  0.75532  0.58427  1.0000
  C   C2836     1.0  0.45976  0.62203  0.62466  1.0000
  C   C2837     1.0  0.28369  0.57943  0.65625  1.0000
  H   H3430     1.0  0.28258  0.56975  0.63989  1.0000
  C   C2838     1.0  0.26161  0.69568  0.67531  1.0000
  C   C2839     1.0  0.27885  0.80958  0.73291  1.0000
  C   C2840     1.0  0.27687  0.57694  0.64706  1.0000
  H   H3431     1.0  0.36324  0.58281  0.58917  1.0000
  C   C2841     1.0  0.29509  0.65748  0.77658  1.0000
  H   H3432     1.0  0.35996  0.70684  0.75079  1.0000
  H   H3433     1.0  0.25277  0.77818  0.65309  1.0000
  H   H3434     1.0  0.25562  0.80011  0.75074  1.0000
  C   C2842     1.0  0.29524  0.64534  0.77205  1.0000
  C   C2843     1.0  0.44607  0.67984  0.59469  1.0000
  C   C2844     1.0  0.43064  0.77846  0.60786  1.0000
  N   N192      1.0  0.25456  0.60624  0.67506  1.0000
  C   C2845     1.0  0.41405  0.63094  0.61585  1.0000
  C   C2846     1.0  0.24741  0.72601  0.73586  1.0000
  C   C2847     1.0  0.23964  0.61319  0.67371  1.0000
  H   H3435     1.0  0.40725  0.64930  0.59983  1.0000
  C   C2848     1.0  0.47390  0.71338  0.63551  1.0000
  C   C2849     1.0  0.33121  0.51001  0.60558  1.0000
  H   H3436     1.0  0.37895  0.54419  0.59215  1.0000
  C   C2850     1.0  0.42306  0.77754  0.62241  1.0000
  C   C2851     1.0  0.25191  0.81717  0.59626  1.0000
  H   H3437     1.0  0.24241  0.67149  0.69689  1.0000
  C   C2852     1.0  0.24629  0.82628  0.67939  1.0000
  C   C2853     1.0  0.34241  0.54981  0.59969  1.0000
  C   C2854     1.0  0.24243  0.68036  0.67465  1.0000
  H   H3438     1.0  0.41163  0.76525  0.60658  1.0000
  H   H3439     1.0  0.36662  0.51687  0.69533  1.0000
  C   C2855     1.0  0.34890  0.52947  0.68611  1.0000
  H   H3440     1.0  0.34173  0.54369  0.61062  1.0000
  C   C2856     1.0  0.41841  0.76926  0.59605  1.0000
  C   C2857     1.0  0.24277  0.76577  0.71621  1.0000
  H   H3441     1.0  0.24676  0.69804  0.74504  1.0000
  C   C2858     1.0  0.48190  0.66848  0.70907  1.0000
  C   C2859     1.0  0.24257  0.70380  0.73523  1.0000
  C   C2860     1.0  0.34247  0.50299  0.68773  1.0000
  C   C2861     1.0  0.36032  0.76190  0.58568  1.0000
  H   H3442     1.0  0.23948  0.76909  0.66446  1.0000
  C   C2862     1.0  0.41012  0.79391  0.59825  1.0000
  C   C2863     1.0  0.24574  0.77691  0.66401  1.0000
  H   H3443     1.0  0.47666  0.69161  0.58900  1.0000
  H   H3444     1.0  0.23708  0.82072  0.63049  1.0000
  H   H3445     1.0  0.48276  0.65274  0.68258  1.0000
  H   H3446     1.0  0.26079  0.68984  0.77118  1.0000
  C   C2864     1.0  0.35169  0.56663  0.57861  1.0000
  H   H3447     1.0  0.25197  0.73547  0.72954  1.0000
  C   C2865     1.0  0.32715  0.49016  0.68254  1.0000
  C   C2866     1.0  0.26652  0.48599  0.57826  1.0000
  H   H3448     1.0  0.40496  0.79770  0.58889  1.0000
  C   C2867     1.0  0.33625  0.48135  0.70398  1.0000
  C   C2868     1.0  0.47899  0.75653  0.57936  1.0000
  C   C2869     1.0  0.36277  0.72078  0.57862  1.0000
  H   H3449     1.0  0.43657  0.79584  0.58151  1.0000
  H   H3450     1.0  0.41223  0.77148  0.58766  1.0000
  H   H3451     1.0  0.24132  0.81814  0.59408  1.0000
  Fe  Fe379     1.0  0.42655  0.70842  0.57784  1.0000
  Fe  Fe380     1.0  0.28765  0.75932  0.57769  1.0000
  H   H3452     1.0  0.24023  0.83481  0.61469  1.0000
  H   H3453     1.0  0.23883  0.79780  0.61701  1.0000
  C   C2870     1.0  0.23893  0.82355  0.61858  1.0000
  C   C2871     1.0  0.23751  0.81870  0.67737  1.0000
  H   H3454     1.0  0.26469  0.66382  0.77596  1.0000
  C   C2872     1.0  0.25099  0.64149  0.77704  1.0000
  C   C2873     1.0  0.25191  0.68471  0.77671  1.0000
  H   H3455     1.0  0.44066  0.77804  0.57824  1.0000
  Fe  Fe381     1.0  0.27179  0.80451  0.80434  1.0000
  S   S767      1.0  0.27278  0.78846  0.82511  1.0000
  Fe  Fe382     1.0  0.25035  0.79272  0.79759  1.0000
  H   H3456     1.0  0.25087  0.88891  0.83299  1.0000
  H   H3457     1.0  0.29764  0.65632  0.78677  1.0000
  H   H3458     1.0  0.25050  0.83861  0.84458  1.0000
  C   C2874     1.0  0.23950  0.88811  0.83706  1.0000
  Fe  Fe383     1.0  0.27333  0.77290  0.81231  1.0000
  S   S768      1.0  0.28846  0.75139  0.81430  1.0000
  Fe  Fe384     1.0  0.24901  0.79290  0.82828  1.0000
  H   H3459     1.0  0.25274  0.62962  0.77907  1.0000
  H   H3460     1.0  0.26571  0.82294  0.77916  1.0000
  H   H3461     1.0  0.25109  0.81650  0.83741  1.0000
  C   C2875     1.0  0.26953  0.71625  0.81307  1.0000
  C   C2876     1.0  0.30033  0.74802  0.79822  1.0000
  C   C2877     1.0  0.29592  0.70966  0.80954  1.0000
  H   H3462     1.0  0.27814  0.72525  0.82580  1.0000
  H   H3463     1.0  0.28130  0.68833  0.81924  1.0000
  H   H3464     1.0  0.25614  0.71058  0.80251  1.0000
  H   H3465     1.0  0.29546  0.71068  0.78335  1.0000
  H   H3466     1.0  0.26717  0.64336  0.79322  1.0000
  C   C2878     1.0  0.25568  0.73126  0.83029  1.0000
  H   H3467     1.0  0.25127  0.84408  0.81817  1.0000
  C   C2879     1.0  0.24176  0.86550  0.82160  1.0000
  C   C2880     1.0  0.24221  0.83270  0.84996  1.0000
  C   C2881     1.0  0.24486  0.76655  0.78602  1.0000
  H   H3468     1.0  0.24576  0.89581  0.79547  1.0000
  C   C2882     1.0  0.29540  0.74987  0.78582  1.0000
  S   S769      1.0  0.28425  0.82158  0.79721  1.0000
  H   H3469     1.0  0.25545  0.73746  0.83778  1.0000
  H   H3470     1.0  0.28430  0.75465  0.78568  1.0000
  S   S770      1.0  0.24956  0.77557  0.81772  1.0000
  S   S771      1.0  0.27417  0.78868  0.79121  1.0000
  C   C2883     1.0  0.23841  0.69298  0.78108  1.0000
  C   C2884     1.0  0.24019  0.88045  0.81577  1.0000
  C   C2885     1.0  0.24260  0.82012  0.84596  1.0000
  H   H3471     1.0  0.23943  0.87726  0.84410  1.0000
  C   C2886     1.0  0.24335  0.72302  0.81763  1.0000
  H   H3472     1.0  0.25363  0.76738  0.78985  1.0000
  H   H3473     1.0  0.25342  0.64507  0.80915  1.0000
  H   H3474     1.0  0.26008  0.87805  0.78182  1.0000
  H   H3475     1.0  0.29691  0.72092  0.80739  1.0000
  C   C2887     1.0  0.26877  0.72415  0.82324  1.0000
  C   C2888     1.0  0.28486  0.71530  0.78960  1.0000
  C   C2889     1.0  0.25668  0.64079  0.79922  1.0000
  N   N193      1.0  0.24565  0.64678  0.79052  1.0000
  N   N194      1.0  0.28321  0.70881  0.80517  1.0000
  H   H3476     1.0  0.29780  0.63479  0.77879  1.0000
  C   C2890     1.0  0.25640  0.71600  0.81040  1.0000
  H   H3477     1.0  0.25866  0.62889  0.80246  1.0000
  C   C2891     1.0  0.28330  0.69341  0.80758  1.0000
  H   H3478     1.0  0.28382  0.72706  0.78748  1.0000
  C   C2892     1.0  0.31465  0.74166  0.79840  1.0000
  C   C2893     1.0  0.25673  0.86001  0.79921  1.0000
  H   H3479     1.0  0.29550  0.70481  0.82114  1.0000
  H   H3480     1.0  0.24263  0.90827  0.81290  1.0000
  H   H3481     1.0  0.24287  0.84515  0.78658  1.0000
  H   H3482     1.0  0.25055  0.74352  0.79022  1.0000
  H   H3483     1.0  0.27515  0.69168  0.80301  1.0000
  H   H3484     1.0  0.31848  0.74010  0.80800  1.0000
  H   H3485     1.0  0.29371  0.68741  0.80224  1.0000
  S   S772      1.0  0.24804  0.81027  0.80849  1.0000
  C   C2894     1.0  0.24300  0.73060  0.82760  1.0000
  C   C2895     1.0  0.25496  0.87458  0.79297  1.0000
  H   H3486     1.0  0.27675  0.71350  0.78501  1.0000
  C   C2896     1.0  0.24677  0.88471  0.80104  1.0000
  C   C2897     1.0  0.24993  0.85547  0.81341  1.0000
  H   H3487     1.0  0.26341  0.85219  0.79305  1.0000
  C   C2898     1.0  0.24312  0.75301  0.78622  1.0000
  C   C2899     1.0  0.32406  0.73727  0.78626  1.0000
  H   H3488     1.0  0.23672  0.70455  0.77892  1.0000
  C   C2900     1.0  0.24284  0.66264  0.78713  1.0000
  H   H3489     1.0  0.30603  0.70399  0.80341  1.0000
  C   C2901     1.0  0.25408  0.66979  0.77958  1.0000
  C   C2902     1.0  0.28344  0.83086  0.77967  1.0000
  H   H3490     1.0  0.33515  0.73250  0.78648  1.0000
  H   H3491     1.0  0.23690  0.86147  0.83265  1.0000
  C   C2903     1.0  0.71409  0.30173  0.03215  1.0000
  N   N195      1.0  0.70737  0.26379  0.04640  1.0000
  H   H3492     1.0  0.70787  0.11234  0.08811  1.0000
  S   S773      1.0  0.67826  0.15095  0.15008  1.0000
  H   H3493     1.0  0.68282  0.22804  0.13356  1.0000
  H   H3494     1.0  0.70254  0.10716  0.12048  1.0000
  H   H3495     1.0  0.70367  0.20827  0.11031  1.0000
  Fe  Fe385     1.0  0.64359  0.24650  0.14588  1.0000
  S   S774      1.0  0.63186  0.25241  0.12817  1.0000
  H   H3496     1.0  0.72051  0.99857  0.09012  1.0000
  Fe  Fe386     1.0  0.63904  0.27723  0.14812  1.0000
  S   S775      1.0  0.62742  0.28608  0.13028  1.0000
  S   S776      1.0  0.64024  0.29143  0.16145  1.0000
  Fe  Fe387     1.0  0.61620  0.26802  0.14084  1.0000
  H   H3497     1.0  0.65247  0.22462  0.12224  1.0000
  Fe  Fe388     1.0  0.64412  0.26984  0.11925  1.0000
  S   S777      1.0  0.65527  0.27549  0.09614  1.0000
  H   H3498     1.0  0.59265  0.37851  0.13435  1.0000
  S   S778      1.0  0.65691  0.26287  0.13608  1.0000
  Fe  Fe389     1.0  0.70192  0.21027  0.06453  1.0000
  S   S779      1.0  0.70324  0.19653  0.08635  1.0000
  S   S780      1.0  0.68326  0.22805  0.05969  1.0000
  C   C2904     1.0  0.68902  0.30326  0.04259  1.0000
  H   H3499     1.0  0.72545  0.09001  0.09173  1.0000
  H   H3500     1.0  0.60025  0.45883  0.16437  1.0000
  Fe  Fe390     1.0  0.71085  0.17833  0.07504  1.0000
  S   S781      1.0  0.70234  0.15838  0.08338  1.0000
  Fe  Fe391     1.0  0.54468  0.33864  0.16871  1.0000
  H   H3501     1.0  0.68755  0.26314  0.04217  1.0000
  S   S782      1.0  0.70760  0.19193  0.05363  1.0000
  S   S783      1.0  0.72428  0.21338  0.05867  1.0000
  C   C2905     1.0  0.70911  0.24188  0.13575  1.0000
  Fe  Fe392     1.0  0.69297  0.36818  0.13147  1.0000
  S   S784      1.0  0.67482  0.38052  0.12094  1.0000
  S   S785      1.0  0.70536  0.37898  0.13912  1.0000
  Fe  Fe393     1.0  0.68836  0.33949  0.13154  1.0000
  S   S786      1.0  0.66945  0.34921  0.12150  1.0000
  S   S787      1.0  0.69597  0.31568  0.13644  1.0000
  Fe  Fe394     1.0  0.68304  0.36436  0.10718  1.0000
  S   S788      1.0  0.68459  0.37087  0.08352  1.0000
  Fe  Fe395     1.0  0.66301  0.36427  0.13640  1.0000
  S   S789      1.0  0.64129  0.36939  0.15073  1.0000
  S   S790      1.0  0.70252  0.35355  0.11613  1.0000
  S   S791      1.0  0.68061  0.35299  0.14787  1.0000
  C   C2906     1.0  0.69549  0.35744  0.07464  1.0000
  C   C2907     1.0  0.70059  0.34364  0.08227  1.0000
  C   C2908     1.0  0.70934  0.33311  0.07480  1.0000
  H   H3502     1.0  0.69766  0.34106  0.09386  1.0000
  H   H3503     1.0  0.71316  0.32246  0.08063  1.0000
  C   C2909     1.0  0.70767  0.35015  0.05224  1.0000
  S   S792      1.0  0.71624  0.26534  0.10210  1.0000
  N   N196      1.0  0.72147  0.10681  0.10316  1.0000
  C   C2910     1.0  0.63980  0.38391  0.15817  1.0000
  C   C2911     1.0  0.65091  0.39115  0.15409  1.0000
  C   C2912     1.0  0.72252  0.25624  0.04272  1.0000
  N   N197      1.0  0.70188  0.20207  0.13302  1.0000
  H   H3504     1.0  0.70103  0.24721  0.04120  1.0000
  H   H3505     1.0  0.66047  0.38781  0.14648  1.0000
  H   H3506     1.0  0.58716  0.34075  0.14431  1.0000
  C   C2913     1.0  0.62243  0.33033  0.14349  1.0000
  H   H3507     1.0  0.69070  0.26326  0.06585  1.0000
  H   H3508     1.0  0.69246  0.40557  0.16171  1.0000
  C   C2914     1.0  0.70043  0.30994  0.03593  1.0000
  H   H3509     1.0  0.71771  0.38191  0.16069  1.0000
  H   H3510     1.0  0.59393  0.36584  0.17290  1.0000
  H   H3511     1.0  0.71100  0.25204  0.13585  1.0000
  H   H3512     1.0  0.70326  0.24766  0.09358  1.0000
  C   C2915     1.0  0.65601  0.29769  0.15512  1.0000
  C   C2916     1.0  0.66858  0.28937  0.14852  1.0000
  C   C2917     1.0  0.68109  0.29463  0.14336  1.0000
  C   C2918     1.0  0.68086  0.30843  0.14430  1.0000
  C   C2919     1.0  0.66832  0.31668  0.15102  1.0000
  C   C2920     1.0  0.65599  0.31117  0.15672  1.0000
  H   H3513     1.0  0.66876  0.27881  0.14759  1.0000
  H   H3514     1.0  0.69084  0.28817  0.13836  1.0000
  H   H3515     1.0  0.66813  0.32729  0.15190  1.0000
  H   H3516     1.0  0.64637  0.31749  0.16208  1.0000
  C   C2921     1.0  0.66219  0.26128  0.08721  1.0000
  C   C2922     1.0  0.67096  0.24843  0.09289  1.0000
  C   C2923     1.0  0.67755  0.23795  0.08463  1.0000
  C   C2924     1.0  0.67505  0.24027  0.07088  1.0000
  C   C2925     1.0  0.66590  0.25287  0.06556  1.0000
  C   C2926     1.0  0.65975  0.26344  0.07354  1.0000
  H   H3517     1.0  0.67304  0.24681  0.10340  1.0000
  H   H3518     1.0  0.68459  0.22821  0.08883  1.0000
  H   H3519     1.0  0.66380  0.25465  0.05502  1.0000
  H   H3520     1.0  0.65301  0.27334  0.06912  1.0000
  C   C2927     1.0  0.61263  0.35210  0.15239  1.0000
  H   H3521     1.0  0.65881  0.20239  0.14008  1.0000
  C   C2928     1.0  0.73083  0.35708  0.07962  1.0000
  Fe  Fe396     1.0  0.73030  0.19357  0.04991  1.0000
  H   H3522     1.0  0.70640  0.09299  0.11145  1.0000
  H   H3523     1.0  0.72158  0.98425  0.08242  1.0000
  H   H3524     1.0  0.68214  0.28361  0.05109  1.0000
  H   H3525     1.0  0.72535  0.17766  0.03259  1.0000
  H   H3526     1.0  0.72335  0.16116  0.01921  1.0000
  C   C2929     1.0  0.62478  0.46520  0.16003  1.0000
  C   C2930     1.0  0.72890  0.11424  0.10879  1.0000
  H   H3527     1.0  0.68207  0.33511  0.05456  1.0000
  N   N198      1.0  0.58674  0.36451  0.15479  1.0000
  Fe  Fe397     1.0  0.72392  0.13238  0.16779  1.0000
  H   H3528     1.0  0.71036  0.35271  0.04062  1.0000
  H   H3529     1.0  0.71707  0.09219  0.12353  1.0000
  H   H3530     1.0  0.72339  0.19376  0.12238  1.0000
  C   C2931     1.0  0.70455  0.21562  0.13401  1.0000
  H   H3531     1.0  0.59938  0.38062  0.14838  1.0000
  C   C2932     1.0  0.57302  0.36373  0.15235  1.0000
  C   C2933     1.0  0.64969  0.40285  0.15983  1.0000
  H   H3532     1.0  0.67837  0.30969  0.04543  1.0000
  C   C2934     1.0  0.68528  0.15271  0.13163  1.0000
  C   C2935     1.0  0.69637  0.15985  0.12482  1.0000
  C   C2936     1.0  0.70165  0.16164  0.10995  1.0000
  C   C2937     1.0  0.69589  0.15614  0.10193  1.0000
  C   C2938     1.0  0.68478  0.14898  0.10873  1.0000
  C   C2939     1.0  0.67937  0.14741  0.12356  1.0000
  H   H3533     1.0  0.70072  0.16413  0.13102  1.0000
  H   H3534     1.0  0.61908  0.38243  0.17184  1.0000
  H   H3535     1.0  0.68022  0.14483  0.10251  1.0000
  H   H3536     1.0  0.67066  0.14201  0.12882  1.0000
  C   C2940     1.0  0.66260  0.18865  0.12560  1.0000
  H   H3537     1.0  0.58449  0.32312  0.12864  1.0000
  C   C2941     1.0  0.72199  0.24760  0.10018  1.0000
  H   H3538     1.0  0.67341  0.23401  0.16976  1.0000
  H   H3539     1.0  0.65823  0.40854  0.15637  1.0000
  H   H3540     1.0  0.70943  0.12664  0.12004  1.0000
  H   H3541     1.0  0.60849  0.30320  0.16409  1.0000
  C   C2942     1.0  0.70229  0.25908  0.06214  1.0000
  H   H3542     1.0  0.61502  0.31447  0.17611  1.0000
  C   C2943     1.0  0.71265  0.36637  0.15280  1.0000
  C   C2944     1.0  0.56834  0.31740  0.14739  1.0000
  H   H3543     1.0  0.70975  0.34837  0.14688  1.0000
  C   C2945     1.0  0.58807  0.30022  0.13660  1.0000
  H   H3544     1.0  0.72743  0.28116  0.03212  1.0000
  H   H3545     1.0  0.68733  0.25062  0.13429  1.0000
  S   S793      1.0  0.71582  0.18395  0.17140  1.0000
  N   N199      1.0  0.65630  0.19895  0.08767  1.0000
  C   C2946     1.0  0.64997  0.21275  0.07885  1.0000
  C   C2947     1.0  0.67055  0.19336  0.07921  1.0000
  C   C2948     1.0  0.64701  0.18885  0.09004  1.0000
  C   C2949     1.0  0.65774  0.20026  0.10165  1.0000
  C   C2950     1.0  0.65460  0.21366  0.10561  1.0000
  C   C2951     1.0  0.66225  0.18782  0.11192  1.0000
  C   C2952     1.0  0.65516  0.21434  0.11929  1.0000
  H   H3546     1.0  0.72907  0.25889  0.04856  1.0000
  H   H3547     1.0  0.71461  0.37609  0.07500  1.0000
  H   H3548     1.0  0.65682  0.22066  0.07586  1.0000
  H   H3549     1.0  0.64888  0.21143  0.06848  1.0000
  H   H3550     1.0  0.63917  0.21755  0.08459  1.0000
  H   H3551     1.0  0.66995  0.19202  0.06866  1.0000
  H   H3552     1.0  0.67590  0.18276  0.08488  1.0000
  H   H3553     1.0  0.67766  0.20086  0.07689  1.0000
  H   H3554     1.0  0.65190  0.17767  0.09484  1.0000
  H   H3555     1.0  0.63655  0.19207  0.09734  1.0000
  H   H3556     1.0  0.64486  0.18840  0.07980  1.0000
  H   H3557     1.0  0.65152  0.22377  0.09843  1.0000
  H   H3558     1.0  0.66532  0.17731  0.10954  1.0000
  C   C2953     1.0  0.59725  0.34131  0.14580  1.0000
  H   H3559     1.0  0.49827  0.33593  0.16633  1.0000
  H   H3560     1.0  0.69507  0.37128  0.05375  1.0000
  H   H3561     1.0  0.70700  0.99006  0.11408  1.0000
  H   H3562     1.0  0.68965  0.18638  0.14608  1.0000
  C   C2954     1.0  0.73282  0.16547  0.01625  1.0000
  H   H3563     1.0  0.72718  0.25892  0.03099  1.0000
  C   C2955     1.0  0.71880  0.22774  0.09278  1.0000
  H   H3564     1.0  0.72297  0.30700  0.02721  1.0000
  C   C2956     1.0  0.71329  0.11748  0.09300  1.0000
  H   H3565     1.0  0.70408  0.24719  0.06558  1.0000
  S   S794      1.0  0.71622  0.15339  0.15352  1.0000
  S   S795      1.0  0.72810  0.28282  0.06366  1.0000
  H   H3566     1.0  0.61467  0.36031  0.15621  1.0000
  H   H3567     1.0  0.65826  0.25869  0.16678  1.0000
  C   C2957     1.0  0.69923  0.25910  0.03888  1.0000
  C   C2958     1.0  0.69903  0.36065  0.05965  1.0000
  H   H3568     1.0  0.62515  0.45475  0.15773  1.0000
  H   H3569     1.0  0.58100  0.38754  0.14809  1.0000
  C   C2959     1.0  0.69579  0.24108  0.13475  1.0000
  C   C2960     1.0  0.57048  0.29187  0.15729  1.0000
  S   S796      1.0  0.72352  0.32362  0.04997  1.0000
  C   C2961     1.0  0.62427  0.34120  0.14858  1.0000
  C   C2962     1.0  0.73197  0.21966  0.09571  1.0000
  H   H3570     1.0  0.62705  0.23005  0.17073  1.0000
  H   H3571     1.0  0.71034  0.16705  0.10475  1.0000
  C   C2963     1.0  0.71496  0.19045  0.13182  1.0000
  C   C2964     1.0  0.69343  0.22813  0.13409  1.0000
  Fe  Fe398     1.0  0.72616  0.19808  0.07965  1.0000
  H   H3572     1.0  0.71290  0.18066  0.13035  1.0000
  C   C2965     1.0  0.71143  0.09953  0.11515  1.0000
  C   C2966     1.0  0.72653  0.98752  0.08936  1.0000
  S   S797      1.0  0.55962  0.33531  0.14772  1.0000
  Fe  Fe399     1.0  0.71161  0.16259  0.17285  1.0000
  C   C2967     1.0  0.71361  0.24156  0.09545  1.0000
  Fe  Fe400     1.0  0.73226  0.27642  0.08567  1.0000
  H   H3573     1.0  0.70242  0.26292  0.02703  1.0000
  C   C2968     1.0  0.58066  0.31443  0.13676  1.0000
  H   H3574     1.0  0.72637  0.35121  0.07505  1.0000
  C   C2969     1.0  0.71315  0.35187  0.15445  1.0000
  C   C2970     1.0  0.58296  0.28891  0.14683  1.0000
  C   C2971     1.0  0.69133  0.19700  0.14595  1.0000
  H   H3575     1.0  0.69480  0.19597  0.15592  1.0000
  S   S798      1.0  0.70249  0.12659  0.17560  1.0000
  C   C2972     1.0  0.69131  0.28831  0.04581  1.0000
  C   C2973     1.0  0.60896  0.33041  0.14207  1.0000
  H   H3576     1.0  0.59000  0.31179  0.16425  1.0000
  C   C2974     1.0  0.65887  0.20185  0.12934  1.0000
  H   H3577     1.0  0.68575  0.21235  0.12045  1.0000
  H   H3578     1.0  0.66749  0.35473  0.06653  1.0000
  C   C2975     1.0  0.48690  0.33717  0.17061  1.0000
  H   H3579     1.0  0.66086  0.36247  0.17421  1.0000
  H   H3580     1.0  0.68076  0.20452  0.14666  1.0000
  S   S799      1.0  0.73399  0.17846  0.07057  1.0000
  H   H3581     1.0  0.56961  0.35375  0.15891  1.0000
  H   H3582     1.0  0.70487  0.12547  0.09832  1.0000
  H   H3583     1.0  0.69879  0.32150  0.03379  1.0000
  H   H3584     1.0  0.69405  0.19434  0.11916  1.0000
  S   S800      1.0  0.65581  0.22459  0.15435  1.0000
  C   C2976     1.0  0.72014  0.22973  0.13611  1.0000
  H   H3585     1.0  0.63481  0.34137  0.14938  1.0000
  H   H3586     1.0  0.56413  0.37270  0.15550  1.0000
  Fe  Fe401     1.0  0.69458  0.14832  0.16263  1.0000
  C   C2977     1.0  0.71286  0.33640  0.05977  1.0000
  H   H3587     1.0  0.69746  0.21983  0.16434  1.0000
  H   H3588     1.0  0.60759  0.32202  0.13794  1.0000
  S   S801      1.0  0.59233  0.27106  0.14720  1.0000
  Fe  Fe402     1.0  0.73466  0.30291  0.06199  1.0000
  C   C2978     1.0  0.59876  0.35257  0.15104  1.0000
  H   H3589     1.0  0.71916  0.33049  0.16665  1.0000
  N   N200      1.0  0.68139  0.30130  0.09838  1.0000
  C   C2979     1.0  0.69300  0.30093  0.10506  1.0000
  C   C2980     1.0  0.66898  0.29767  0.10994  1.0000
  C   C2981     1.0  0.68639  0.28992  0.08999  1.0000
  C   C2982     1.0  0.67747  0.31583  0.08947  1.0000
  C   C2983     1.0  0.68203  0.31899  0.07426  1.0000
  C   C2984     1.0  0.66961  0.32751  0.09598  1.0000
  C   C2985     1.0  0.67818  0.33282  0.06611  1.0000
  C   C2986     1.0  0.66584  0.34129  0.08773  1.0000
  C   C2987     1.0  0.66999  0.34391  0.07282  1.0000
  H   H3590     1.0  0.68984  0.30904  0.11176  1.0000
  H   H3591     1.0  0.69620  0.29025  0.11207  1.0000
  H   H3592     1.0  0.70268  0.30316  0.09679  1.0000
  H   H3593     1.0  0.66600  0.30400  0.11832  1.0000
  H   H3594     1.0  0.67125  0.28629  0.11579  1.0000
  H   H3595     1.0  0.65948  0.29936  0.10543  1.0000
  H   H3596     1.0  0.69698  0.29045  0.08261  1.0000
  H   H3597     1.0  0.68786  0.27899  0.09705  1.0000
  H   H3598     1.0  0.67853  0.29055  0.08372  1.0000
  H   H3599     1.0  0.68894  0.31106  0.06845  1.0000
  H   H3600     1.0  0.66664  0.32619  0.10750  1.0000
  H   H3601     1.0  0.66014  0.35014  0.09291  1.0000
  H   H3602     1.0  0.71937  0.18720  0.14162  1.0000
  C   C2988     1.0  0.63755  0.40707  0.17009  1.0000
  H   H3603     1.0  0.70796  0.26273  0.06813  1.0000
  H   H3604     1.0  0.72001  0.08736  0.15005  1.0000
  H   H3605     1.0  0.71251  0.22330  0.08865  1.0000
  C   C2989     1.0  0.71869  0.34172  0.16552  1.0000
  C   C2990     1.0  0.64861  0.21972  0.17270  1.0000
  H   H3606     1.0  0.68037  0.37483  0.16685  1.0000
  H   H3607     1.0  0.56645  0.28315  0.16518  1.0000
  C   C2991     1.0  0.59011  0.37837  0.14603  1.0000
  H   H3608     1.0  0.55378  0.30827  0.16588  1.0000
  H   H3609     1.0  0.63148  0.32188  0.14054  1.0000
  C   C2992     1.0  0.56332  0.30609  0.15772  1.0000
  H   H3610     1.0  0.57372  0.36415  0.14087  1.0000
  C   C2993     1.0  0.73394  0.17483  0.02384  1.0000
  H   H3611     1.0  0.72035  0.12362  0.08415  1.0000
  C   C2994     1.0  0.70517  0.27960  0.04238  1.0000
  S   S802      1.0  0.62680  0.26027  0.15949  1.0000
  H   H3612     1.0  0.66553  0.17896  0.13346  1.0000
  H   H3613     1.0  0.72715  0.20793  0.13519  1.0000
  H   H3614     1.0  0.73122  0.35749  0.12260  1.0000
  N   N201      1.0  0.61244  0.46893  0.17182  1.0000
  H   H3615     1.0  0.72136  0.13835  0.13005  1.0000
  H   H3616     1.0  0.73059  0.23048  0.13658  1.0000
  C   C2995     1.0  0.71785  0.37072  0.16217  1.0000
  C   C2996     1.0  0.71800  0.21679  0.13519  1.0000
  H   H3617     1.0  0.59750  0.29802  0.12832  1.0000
  H   H3618     1.0  0.72154  0.10633  0.16062  1.0000
  C   C2997     1.0  0.73506  0.99479  0.11157  1.0000
  C   C2998     1.0  0.59932  0.46892  0.16764  1.0000
  C   C2999     1.0  0.71648  0.28680  0.03513  1.0000
  C   C3000     1.0  0.69510  0.22751  0.17100  1.0000
  C   C3001     1.0  0.69606  0.20439  0.12020  1.0000
  H   H3619     1.0  0.72383  0.24441  0.04583  1.0000
  C   C3002     1.0  0.72400  0.37139  0.07953  1.0000
  C   C3003     1.0  0.62765  0.38808  0.16850  1.0000
  C   C3004     1.0  0.73129  0.09574  0.09549  1.0000
  H   H3620     1.0  0.63511  0.46381  0.16294  1.0000
  C   C3005     1.0  0.73091  0.10123  0.15387  1.0000
  C   C3006     1.0  0.59735  0.30200  0.16887  1.0000
  C   C3007     1.0  0.72095  0.12421  0.11744  1.0000
  C   C3008     1.0  0.72768  0.13119  0.12308  1.0000
  H   H3621     1.0  0.72860  0.32893  0.09431  1.0000
  C   C3009     1.0  0.72900  0.37954  0.08551  1.0000
  H   H3622     1.0  0.59652  0.29292  0.16494  1.0000
  C   C3010     1.0  0.58443  0.36449  0.17018  1.0000
  C   C3011     1.0  0.73007  0.09046  0.14784  1.0000
  H   H3623     1.0  0.66837  0.42040  0.16896  1.0000
  H   H3624     1.0  0.72353  0.39059  0.08558  1.0000
  C   C3012     1.0  0.68898  0.40797  0.17231  1.0000
  H   H3625     1.0  0.62425  0.47346  0.14989  1.0000
  H   H3626     1.0  0.59706  0.47806  0.15853  1.0000
  H   H3627     1.0  0.57552  0.37344  0.17329  1.0000
  C   C3013     1.0  0.68124  0.23570  0.17431  1.0000
  S   S803      1.0  0.52927  0.35951  0.17118  1.0000
  C   C3014     1.0  0.73540  0.23974  0.10254  1.0000
  C   C3015     1.0  0.72314  0.36056  0.17349  1.0000
  H   H3628     1.0  0.71671  0.22296  0.17342  1.0000
  H   H3629     1.0  0.73203  0.20582  0.15964  1.0000
  C   C3016     1.0  0.73412  0.18312  0.16803  1.0000
  H   H3630     1.0  0.72885  0.00386  0.10546  1.0000
  C   C3017     1.0  0.70597  0.22921  0.17613  1.0000
  H   H3631     1.0  0.58160  0.35436  0.17716  1.0000
  C   C3018     1.0  0.62659  0.39957  0.17459  1.0000
  C   C3019     1.0  0.72355  0.34606  0.17511  1.0000
  H   H3632     1.0  0.73527  0.14608  0.05373  1.0000
  H   H3633     1.0  0.73596  0.33008  0.10825  1.0000
  C   C3020     1.0  0.67546  0.41635  0.17638  1.0000
  H   H3634     1.0  0.66949  0.27384  0.17678  1.0000
  H   H3635     1.0  0.58977  0.46966  0.17664  1.0000
  H   H3636     1.0  0.68329  0.34809  0.17707  1.0000
  S   S804      1.0  0.63637  0.42156  0.17737  1.0000
  Fe  Fe403     1.0  0.69646  0.21789  0.31713  1.0000
  S   S805      1.0  0.70660  0.23670  0.31057  1.0000
  C   C3021     1.0  0.67088  0.41945  0.19004  1.0000
  H   H3637     1.0  0.71047  0.14146  0.24111  1.0000
  C   C3022     1.0  0.49063  0.25885  0.26045  1.0000
  Fe  Fe404     1.0  0.72577  0.22077  0.31686  1.0000
  H   H3638     1.0  0.54934  0.23832  0.26279  1.0000
  Fe  Fe405     1.0  0.71499  0.23061  0.28924  1.0000
  S   S806      1.0  0.71508  0.24759  0.26881  1.0000
  S   S807      1.0  0.71502  0.20223  0.32523  1.0000
  S   S808      1.0  0.70331  0.21293  0.29527  1.0000
  Fe  Fe406     1.0  0.55556  0.27252  0.31717  1.0000
  S   S809      1.0  0.56907  0.27553  0.29475  1.0000
  S   S810      1.0  0.56559  0.26678  0.33663  1.0000
  C   C3023     1.0  0.65911  0.33059  0.37055  1.0000
  S   S811      1.0  0.53972  0.27921  0.28395  1.0000
  Fe  Fe407     1.0  0.55705  0.26132  0.29137  1.0000
  S   S812      1.0  0.56764  0.24531  0.27752  1.0000
  Fe  Fe408     1.0  0.55062  0.29319  0.28918  1.0000
  S   S813      1.0  0.55342  0.31381  0.27312  1.0000
  S   S814      1.0  0.54477  0.25669  0.31415  1.0000
  H   H3639     1.0  0.51985  0.26236  0.28103  1.0000
  Fe  Fe409     1.0  0.66720  0.19300  0.25083  1.0000
  S   S815      1.0  0.66960  0.20507  0.22796  1.0000
  S   S816      1.0  0.67894  0.17059  0.25800  1.0000
  Fe  Fe410     1.0  0.64579  0.21757  0.26243  1.0000
  S   S817      1.0  0.64643  0.23201  0.24059  1.0000
  S   S818      1.0  0.63206  0.22438  0.28256  1.0000
  Fe  Fe411     1.0  0.64586  0.21254  0.23392  1.0000
  S   S819      1.0  0.63051  0.21403  0.22077  1.0000
  Fe  Fe412     1.0  0.67005  0.22323  0.23677  1.0000
  S   S820      1.0  0.68563  0.23723  0.22533  1.0000
  S   S821      1.0  0.64335  0.19871  0.25611  1.0000
  S   S822      1.0  0.66957  0.21057  0.25924  1.0000
  H   H3640     1.0  0.70695  0.33001  0.34656  1.0000
  S   S823      1.0  0.72108  0.14209  0.18653  1.0000
  C   C3024     1.0  0.68906  0.24674  0.18864  1.0000
  H   H3641     1.0  0.63728  0.47471  0.34078  1.0000
  S   S824      1.0  0.68915  0.12992  0.21593  1.0000
  Fe  Fe413     1.0  0.51459  0.34590  0.18699  1.0000
  H   H3642     1.0  0.72749  0.20094  0.24863  1.0000
  H   H3643     1.0  0.70941  0.20006  0.19310  1.0000
  H   H3644     1.0  0.56094  0.28888  0.26093  1.0000
  C   C3025     1.0  0.72684  0.39760  0.25365  1.0000
  C   C3026     1.0  0.50522  0.25928  0.23657  1.0000
  C   C3027     1.0  0.59573  0.33529  0.19958  1.0000
  H   H3645     1.0  0.52983  0.38905  0.21705  1.0000
  Fe  Fe414     1.0  0.68699  0.46641  0.27818  1.0000
  S   S825      1.0  0.66516  0.46242  0.28916  1.0000
  H   H3646     1.0  0.60451  0.27693  0.18677  1.0000
  Fe  Fe415     1.0  0.69885  0.43469  0.27696  1.0000
  S   S826      1.0  0.67780  0.42872  0.28773  1.0000
  S   S827      1.0  0.71779  0.41717  0.27078  1.0000
  Fe  Fe416     1.0  0.66876  0.44888  0.27342  1.0000
  S   S828      1.0  0.65153  0.45280  0.26154  1.0000
  Fe  Fe417     1.0  0.67644  0.44261  0.30245  1.0000
  S   S829      1.0  0.66721  0.43491  0.32596  1.0000
  S   S830      1.0  0.68991  0.45398  0.26143  1.0000
  S   S831      1.0  0.69817  0.44747  0.29272  1.0000
  Fe  Fe418     1.0  0.53883  0.32623  0.20039  1.0000
  S   S832      1.0  0.58883  0.46002  0.22204  1.0000
  H   H3647     1.0  0.71532  0.17113  0.21680  1.0000
  C   C3028     1.0  0.49531  0.26765  0.30600  1.0000
  C   C3029     1.0  0.60603  0.31836  0.18413  1.0000
  Fe  Fe419     1.0  0.53912  0.35793  0.18953  1.0000
  S   S833      1.0  0.54574  0.37808  0.18954  1.0000
  S   S834      1.0  0.62353  0.43143  0.21380  1.0000
  S   S835      1.0  0.55540  0.33796  0.18587  1.0000
  H   H3648     1.0  0.72499  0.27665  0.24944  1.0000
  S   S836      1.0  0.59740  0.41753  0.23689  1.0000
  Fe  Fe420     1.0  0.62099  0.41999  0.19870  1.0000
  S   S837      1.0  0.62105  0.39917  0.21466  1.0000
  Fe  Fe421     1.0  0.59716  0.40682  0.21966  1.0000
  S   S838      1.0  0.58549  0.38872  0.22397  1.0000
  Fe  Fe422     1.0  0.62125  0.41132  0.23039  1.0000
  S   S839      1.0  0.63642  0.40267  0.24538  1.0000
  H   H3649     1.0  0.68928  0.40180  0.24748  1.0000
  C   C3030     1.0  0.55774  0.38038  0.19849  1.0000
  C   C3031     1.0  0.56085  0.39396  0.19558  1.0000
  C   C3032     1.0  0.56981  0.39654  0.20282  1.0000
  C   C3033     1.0  0.57568  0.38558  0.21319  1.0000
  C   C3034     1.0  0.57283  0.37188  0.21589  1.0000
  C   C3035     1.0  0.56398  0.36926  0.20854  1.0000
  H   H3650     1.0  0.58132  0.26022  0.35857  1.0000
  H   H3651     1.0  0.57180  0.40714  0.20069  1.0000
  H   H3652     1.0  0.57730  0.36332  0.22391  1.0000
  H   H3653     1.0  0.56159  0.35880  0.21096  1.0000
  C   C3036     1.0  0.64692  0.43848  0.25818  1.0000
  C   C3037     1.0  0.65408  0.42428  0.26233  1.0000
  C   C3038     1.0  0.65035  0.41319  0.25899  1.0000
  C   C3039     1.0  0.63969  0.41632  0.25125  1.0000
  C   C3040     1.0  0.63233  0.43049  0.24746  1.0000
  C   C3041     1.0  0.63597  0.44153  0.25087  1.0000
  H   H3654     1.0  0.66249  0.42184  0.26803  1.0000
  H   H3655     1.0  0.65595  0.40222  0.26212  1.0000
  H   H3656     1.0  0.62377  0.43299  0.24195  1.0000
  H   H3657     1.0  0.63027  0.45248  0.24779  1.0000
  C   C3042     1.0  0.67891  0.42472  0.33726  1.0000
  C   C3043     1.0  0.67376  0.41560  0.35012  1.0000
  C   C3044     1.0  0.68286  0.40744  0.35940  1.0000
  C   C3045     1.0  0.69706  0.40865  0.35600  1.0000
  C   C3046     1.0  0.70219  0.41779  0.34314  1.0000
  C   C3047     1.0  0.69318  0.42573  0.33374  1.0000
  H   H3658     1.0  0.66272  0.41479  0.35292  1.0000
  C   C3048     1.0  0.53965  0.24080  0.25831  1.0000
  H   H3659     1.0  0.71317  0.41880  0.34051  1.0000
  H   H3660     1.0  0.69722  0.43283  0.32393  1.0000
  C   C3049     1.0  0.63764  0.21579  0.20235  1.0000
  C   C3050     1.0  0.65211  0.21040  0.19704  1.0000
  C   C3051     1.0  0.65758  0.21220  0.18219  1.0000
  C   C3052     1.0  0.59349  0.27647  0.35345  1.0000
  C   C3053     1.0  0.60447  0.28663  0.19026  1.0000
  C   C3054     1.0  0.62858  0.22252  0.19285  1.0000
  H   H3661     1.0  0.65908  0.20485  0.20433  1.0000
  H   H3662     1.0  0.68821  0.23623  0.36386  1.0000
  H   H3663     1.0  0.56432  0.35161  0.26727  1.0000
  H   H3664     1.0  0.61732  0.22645  0.19694  1.0000
  C   C3055     1.0  0.68146  0.15966  0.24606  1.0000
  C   C3056     1.0  0.68010  0.14546  0.25151  1.0000
  C   C3057     1.0  0.68225  0.13649  0.24215  1.0000
  C   C3058     1.0  0.68614  0.14156  0.22731  1.0000
  C   C3059     1.0  0.68778  0.15571  0.22181  1.0000
  C   C3060     1.0  0.68525  0.16480  0.23120  1.0000
  H   H3665     1.0  0.67725  0.14141  0.26300  1.0000
  H   H3666     1.0  0.68104  0.12554  0.24644  1.0000
  H   H3667     1.0  0.69089  0.15966  0.21035  1.0000
  H   H3668     1.0  0.68634  0.17572  0.22697  1.0000
  C   C3061     1.0  0.55319  0.31176  0.25621  1.0000
  C   C3062     1.0  0.54875  0.32372  0.24579  1.0000
  C   C3063     1.0  0.54672  0.32194  0.23306  1.0000
  C   C3064     1.0  0.54924  0.30817  0.23072  1.0000
  H   H3669     1.0  0.54645  0.33430  0.24773  1.0000
  H   H3670     1.0  0.54291  0.33120  0.22526  1.0000
  C   C3065     1.0  0.58537  0.23855  0.27929  1.0000
  C   C3066     1.0  0.58920  0.23863  0.29174  1.0000
  C   C3067     1.0  0.60347  0.23371  0.29294  1.0000
  C   C3068     1.0  0.61402  0.22912  0.28152  1.0000
  C   C3069     1.0  0.61016  0.22881  0.26916  1.0000
  C   C3070     1.0  0.59582  0.23340  0.26811  1.0000
  H   H3671     1.0  0.58112  0.24238  0.30051  1.0000
  H   H3672     1.0  0.60626  0.23362  0.30268  1.0000
  H   H3673     1.0  0.61819  0.22520  0.26033  1.0000
  H   H3674     1.0  0.59288  0.23330  0.25848  1.0000
  C   C3071     1.0  0.55666  0.29810  0.25335  1.0000
  C   C3072     1.0  0.70753  0.24432  0.25643  1.0000
  C   C3073     1.0  0.70567  0.23065  0.25750  1.0000
  C   C3074     1.0  0.69893  0.22839  0.24798  1.0000
  C   C3075     1.0  0.69432  0.23977  0.23717  1.0000
  C   C3076     1.0  0.69668  0.25331  0.23573  1.0000
  C   C3077     1.0  0.70309  0.25563  0.24547  1.0000
  H   H3675     1.0  0.70954  0.22178  0.26555  1.0000
  H   H3676     1.0  0.69756  0.21779  0.24889  1.0000
  H   H3677     1.0  0.69316  0.26214  0.22737  1.0000
  C   C3078     1.0  0.71245  0.37563  0.33208  1.0000
  H   H3678     1.0  0.68905  0.37633  0.17960  1.0000
  H   H3679     1.0  0.63030  0.24123  0.32334  1.0000
  C   C3079     1.0  0.53786  0.37992  0.23641  1.0000
  S   S840      1.0  0.70863  0.38173  0.23140  1.0000
  C   C3080     1.0  0.66599  0.24538  0.36379  1.0000
  C   C3081     1.0  0.66988  0.36722  0.20335  1.0000
  C   C3082     1.0  0.71322  0.27006  0.36761  1.0000
  C   C3083     1.0  0.70293  0.23877  0.18498  1.0000
  S   S841      1.0  0.49030  0.34982  0.19077  1.0000
  H   H3680     1.0  0.72186  0.19770  0.27495  1.0000
  H   H3681     1.0  0.57102  0.30455  0.18649  1.0000
  C   C3084     1.0  0.58196  0.28725  0.32884  1.0000
  S   S842      1.0  0.59715  0.42723  0.20249  1.0000
  H   H3682     1.0  0.61954  0.27255  0.28636  1.0000
  H   H3683     1.0  0.57742  0.29158  0.31943  1.0000
  H   H3684     1.0  0.73030  0.34406  0.31291  1.0000
  Fe  Fe423     1.0  0.52808  0.27587  0.30688  1.0000
  C   C3085     1.0  0.52940  0.38092  0.22697  1.0000
  N   N202      1.0  0.62723  0.25810  0.30461  1.0000
  C   C3086     1.0  0.70172  0.40883  0.25751  1.0000
  N   N203      1.0  0.67544  0.41738  0.21456  1.0000
  C   C3087     1.0  0.70472  0.31909  0.34975  1.0000
  H   H3685     1.0  0.61858  0.25418  0.28880  1.0000
  C   C3088     1.0  0.65360  0.25451  0.17825  1.0000
  H   H3686     1.0  0.52185  0.24323  0.28358  1.0000
  N   N204      1.0  0.68675  0.27857  0.33108  1.0000
  C   C3089     1.0  0.69681  0.26638  0.33794  1.0000
  C   C3090     1.0  0.68254  0.28989  0.33948  1.0000
  C   C3091     1.0  0.67368  0.27368  0.33223  1.0000
  C   C3092     1.0  0.69361  0.28352  0.31584  1.0000
  C   C3093     1.0  0.69539  0.27539  0.30555  1.0000
  C   C3094     1.0  0.69935  0.29602  0.31086  1.0000
  C   C3095     1.0  0.70217  0.27962  0.29120  1.0000
  C   C3096     1.0  0.70602  0.30023  0.29644  1.0000
  C   C3097     1.0  0.70740  0.29206  0.28664  1.0000
  H   H3687     1.0  0.70636  0.26975  0.33829  1.0000
  H   H3688     1.0  0.70064  0.25752  0.33209  1.0000
  H   H3689     1.0  0.67650  0.28629  0.35060  1.0000
  H   H3690     1.0  0.67557  0.29973  0.33440  1.0000
  H   H3691     1.0  0.69198  0.29279  0.34081  1.0000
  H   H3692     1.0  0.67601  0.26357  0.32853  1.0000
  H   H3693     1.0  0.66783  0.27104  0.34357  1.0000
  H   H3694     1.0  0.66628  0.28206  0.32610  1.0000
  H   H3695     1.0  0.69178  0.26555  0.30852  1.0000
  H   H3696     1.0  0.69915  0.30254  0.31795  1.0000
  H   H3697     1.0  0.70356  0.27310  0.28360  1.0000
  H   H3698     1.0  0.71047  0.30970  0.29285  1.0000
  H   H3699     1.0  0.71276  0.29527  0.27553  1.0000
  N   N205      1.0  0.64329  0.16784  0.22001  1.0000
  C   C3098     1.0  0.63843  0.17781  0.20725  1.0000
  C   C3099     1.0  0.65158  0.17473  0.22525  1.0000
  C   C3100     1.0  0.65315  0.15499  0.21524  1.0000
  C   C3101     1.0  0.63077  0.16459  0.23149  1.0000
  C   C3102     1.0  0.62047  0.17579  0.23726  1.0000
  C   C3103     1.0  0.62845  0.15047  0.23736  1.0000
  C   C3104     1.0  0.60866  0.17302  0.24822  1.0000
  C   C3105     1.0  0.61656  0.14783  0.24832  1.0000
  C   C3106     1.0  0.60671  0.15907  0.25375  1.0000
  H   H3700     1.0  0.63179  0.18820  0.20964  1.0000
  C   C3107     1.0  0.55267  0.28843  0.37088  1.0000
  H   H3701     1.0  0.63189  0.17313  0.20317  1.0000
  H   H3702     1.0  0.64537  0.18513  0.22791  1.0000
  H   H3703     1.0  0.66129  0.17705  0.21705  1.0000
  H   H3704     1.0  0.65496  0.16775  0.23516  1.0000
  H   H3705     1.0  0.64784  0.14954  0.21058  1.0000
  H   H3706     1.0  0.66256  0.15776  0.20678  1.0000
  H   H3707     1.0  0.65754  0.14714  0.22424  1.0000
  H   H3708     1.0  0.62150  0.18681  0.23337  1.0000
  H   H3709     1.0  0.63567  0.14124  0.23372  1.0000
  H   H3710     1.0  0.60102  0.18179  0.25248  1.0000
  H   H3711     1.0  0.61500  0.13698  0.25268  1.0000
  H   H3712     1.0  0.59754  0.15698  0.26228  1.0000
  C   C3108     1.0  0.73212  0.25266  0.31697  1.0000
  H   H3713     1.0  0.61259  0.24608  0.32023  1.0000
  S   S843      1.0  0.50407  0.27909  0.30950  1.0000
  N   N206      1.0  0.67216  0.36476  0.18878  1.0000
  C   C3109     1.0  0.53776  0.36913  0.24929  1.0000
  H   H3714     1.0  0.59367  0.30381  0.32397  1.0000
  H   H3715     1.0  0.50108  0.29303  0.27304  1.0000
  C   C3110     1.0  0.51649  0.25646  0.25649  1.0000
  H   H3716     1.0  0.51450  0.37189  0.22238  1.0000
  C   C3111     1.0  0.73085  0.15528  0.25310  1.0000
  C   C3112     1.0  0.67947  0.23709  0.35907  1.0000
  C   C3113     1.0  0.59684  0.28893  0.34384  1.0000
  H   H3717     1.0  0.72263  0.36248  0.34919  1.0000
  C   C3114     1.0  0.71882  0.15242  0.25106  1.0000
  H   H3718     1.0  0.66657  0.47920  0.25381  1.0000
  H   H3719     1.0  0.68333  0.42525  0.22837  1.0000
  S   S844      1.0  0.67325  0.22191  0.32820  1.0000
  C   C3115     1.0  0.67045  0.23085  0.34195  1.0000
  C   C3116     1.0  0.62369  0.26952  0.31276  1.0000
  H   H3720     1.0  0.69645  0.41305  0.21906  1.0000
  C   C3117     1.0  0.59116  0.29417  0.33146  1.0000
  H   H3721     1.0  0.73252  0.17380  0.21611  1.0000
  H   H3722     1.0  0.66551  0.25072  0.26515  1.0000
  H   H3723     1.0  0.54659  0.26475  0.25861  1.0000
  H   H3724     1.0  0.49509  0.28640  0.21728  1.0000
  H   H3725     1.0  0.64640  0.37297  0.20836  1.0000
  C   C3118     1.0  0.49846  0.29585  0.26257  1.0000
  C   C3119     1.0  0.51736  0.25770  0.24171  1.0000
  H   H3726     1.0  0.71554  0.36528  0.30108  1.0000
  H   H3727     1.0  0.66732  0.26986  0.19599  1.0000
  H   H3728     1.0  0.59782  0.27226  0.36298  1.0000
  H   H3729     1.0  0.51023  0.24807  0.31218  1.0000
  Fe  Fe424     1.0  0.69895  0.13833  0.19292  1.0000
  C   C3120     1.0  0.50047  0.25280  0.30837  1.0000
  H   H3730     1.0  0.73397  0.38218  0.24014  1.0000
  C   C3121     1.0  0.73391  0.22490  0.20555  1.0000
  C   C3122     1.0  0.53779  0.36867  0.27379  1.0000
  C   C3123     1.0  0.68204  0.35069  0.18758  1.0000
  H   H3731     1.0  0.68147  0.38467  0.32343  1.0000
  H   H3732     1.0  0.69301  0.35036  0.18826  1.0000
  C   C3124     1.0  0.68171  0.36586  0.20923  1.0000
  H   H3733     1.0  0.69224  0.22377  0.34430  1.0000
  H   H3734     1.0  0.69713  0.19239  0.20817  1.0000
  C   C3125     1.0  0.65320  0.25291  0.30522  1.0000
  H   H3735     1.0  0.56292  0.35128  0.24975  1.0000
  H   H3736     1.0  0.68735  0.39565  0.33113  1.0000
  S   S845      1.0  0.71705  0.34327  0.22617  1.0000
  N   N207      1.0  0.52958  0.25408  0.26181  1.0000
  H   H3737     1.0  0.60606  0.26499  0.30016  1.0000
  H   H3738     1.0  0.64369  0.37619  0.23231  1.0000
  H   H3739     1.0  0.73417  0.34239  0.33675  1.0000
  C   C3126     1.0  0.64255  0.25542  0.29737  1.0000
  H   H3740     1.0  0.72408  0.11747  0.21666  1.0000
  H   H3741     1.0  0.68338  0.24721  0.27934  1.0000
  C   C3127     1.0  0.57821  0.27507  0.33869  1.0000
  H   H3742     1.0  0.63118  0.48082  0.21002  1.0000
  H   H3743     1.0  0.55083  0.34424  0.26555  1.0000
  C   C3128     1.0  0.61751  0.26267  0.29450  1.0000
  C   C3129     1.0  0.64743  0.25438  0.28272  1.0000
  C   C3130     1.0  0.52075  0.37123  0.22994  1.0000
  H   H3744     1.0  0.55706  0.28567  0.23864  1.0000
  H   H3745     1.0  0.66015  0.42572  0.19258  1.0000
  H   H3746     1.0  0.65671  0.23573  0.20326  1.0000
  H   H3747     1.0  0.68721  0.25358  0.19599  1.0000
  H   H3748     1.0  0.55608  0.40264  0.18783  1.0000
  H   H3749     1.0  0.69921  0.21019  0.20639  1.0000
  S   S846      1.0  0.72991  0.33309  0.18909  1.0000
  H   H3750     1.0  0.53981  0.26784  0.24297  1.0000
  S   S847      1.0  0.60754  0.29873  0.34701  1.0000
  C   C3131     1.0  0.72294  0.17826  0.21132  1.0000
  H   H3751     1.0  0.66307  0.24695  0.21015  1.0000
  H   H3752     1.0  0.69255  0.36343  0.20311  1.0000
  C   C3132     1.0  0.72493  0.38941  0.24515  1.0000
  C   C3133     1.0  0.52856  0.35963  0.25214  1.0000
  N   N208      1.0  0.59380  0.29916  0.18480  1.0000
  C   C3134     1.0  0.50769  0.30177  0.25041  1.0000
  H   H3753     1.0  0.67627  0.46690  0.32978  1.0000
  H   H3754     1.0  0.65330  0.35652  0.19283  1.0000
  C   C3135     1.0  0.65690  0.23897  0.34681  1.0000
  C   C3136     1.0  0.55579  0.37822  0.25490  1.0000
  C   C3137     1.0  0.72415  0.21600  0.21092  1.0000
  C   C3138     1.0  0.66771  0.25012  0.29870  1.0000
  S   S848      1.0  0.53772  0.29143  0.31186  1.0000
  S   S849      1.0  0.64413  0.29026  0.35590  1.0000
  H   H3755     1.0  0.64022  0.25553  0.27598  1.0000
  H   H3756     1.0  0.62691  0.23583  0.30910  1.0000
  H   H3757     1.0  0.56334  0.37741  0.24442  1.0000
  C   C3139     1.0  0.69981  0.40065  0.24907  1.0000
  N   N209      1.0  0.66403  0.19797  0.30444  1.0000
  C   C3140     1.0  0.65919  0.19051  0.29627  1.0000
  C   C3141     1.0  0.65174  0.20183  0.31620  1.0000
  C   C3142     1.0  0.66764  0.21145  0.29496  1.0000
  C   C3143     1.0  0.67690  0.18887  0.30955  1.0000
  C   C3144     1.0  0.68875  0.18242  0.29990  1.0000
  C   C3145     1.0  0.67849  0.18695  0.32377  1.0000
  C   C3146     1.0  0.70123  0.17430  0.30431  1.0000
  C   C3147     1.0  0.69111  0.17892  0.32802  1.0000
  C   C3148     1.0  0.70243  0.17260  0.31832  1.0000
  H   H3758     1.0  0.65745  0.17982  0.30277  1.0000
  H   H3759     1.0  0.64901  0.19672  0.29308  1.0000
  H   H3760     1.0  0.66687  0.18885  0.28609  1.0000
  H   H3761     1.0  0.64899  0.19211  0.32416  1.0000
  H   H3762     1.0  0.64203  0.20797  0.31202  1.0000
  H   H3763     1.0  0.65389  0.20889  0.32189  1.0000
  H   H3764     1.0  0.67675  0.20944  0.28582  1.0000
  H   H3765     1.0  0.65847  0.21857  0.29044  1.0000
  H   H3766     1.0  0.67075  0.21756  0.30095  1.0000
  H   H3767     1.0  0.68868  0.18390  0.28873  1.0000
  H   H3768     1.0  0.67032  0.19187  0.33172  1.0000
  H   H3769     1.0  0.57932  0.28648  0.18501  1.0000
  H   H3770     1.0  0.69224  0.17789  0.33881  1.0000
  H   H3771     1.0  0.61535  0.44674  0.18278  1.0000
  N   N210      1.0  0.70133  0.39048  0.31136  1.0000
  C   C3149     1.0  0.69934  0.38996  0.29728  1.0000
  C   C3150     1.0  0.68696  0.39366  0.32081  1.0000
  C   C3151     1.0  0.70835  0.40249  0.30891  1.0000
  H   H3772     1.0  0.69268  0.40010  0.29238  1.0000
  H   H3773     1.0  0.70966  0.38853  0.28928  1.0000
  C   C3152     1.0  0.66307  0.26896  0.18718  1.0000
  H   H3774     1.0  0.67998  0.40354  0.31575  1.0000
  H   H3775     1.0  0.71131  0.23989  0.18922  1.0000
  H   H3776     1.0  0.72927  0.24937  0.30890  1.0000
  H   H3777     1.0  0.67583  0.35530  0.37228  1.0000
  H   H3778     1.0  0.70206  0.41285  0.30382  1.0000
  H   H3779     1.0  0.70969  0.40402  0.31905  1.0000
  C   C3153     1.0  0.65431  0.37305  0.22588  1.0000
  H   H3780     1.0  0.70435  0.26627  0.24465  1.0000
  C   C3154     1.0  0.67256  0.40417  0.22508  1.0000
  H   H3781     1.0  0.68901  0.36635  0.22750  1.0000
  C   C3155     1.0  0.73021  0.26725  0.31637  1.0000
  H   H3782     1.0  0.66467  0.37259  0.24226  1.0000
  H   H3783     1.0  0.70796  0.38420  0.33783  1.0000
  C   C3156     1.0  0.73144  0.19129  0.26975  1.0000
  H   H3784     1.0  0.52985  0.37907  0.27322  1.0000
  C   C3157     1.0  0.64845  0.46960  0.33627  1.0000
  C   C3158     1.0  0.65606  0.37119  0.21202  1.0000
  H   H3785     1.0  0.73152  0.23492  0.20890  1.0000
  H   H3786     1.0  0.64757  0.18042  0.19831  1.0000
  C   C3159     1.0  0.66842  0.33995  0.36629  1.0000
  C   C3160     1.0  0.58340  0.31707  0.20097  1.0000
  C   C3161     1.0  0.68689  0.42186  0.21791  1.0000
  S   S850      1.0  0.73113  0.28971  0.32651  1.0000
  H   H3787     1.0  0.51752  0.30361  0.25142  1.0000
  H   H3788     1.0  0.53453  0.23144  0.26284  1.0000
  C   C3162     1.0  0.73412  0.27157  0.32666  1.0000
  S   S851      1.0  0.65911  0.32034  0.35879  1.0000
  H   H3789     1.0  0.61719  0.40276  0.18257  1.0000
  C   C3163     1.0  0.69257  0.29489  0.37167  1.0000
  H   H3790     1.0  0.72700  0.36392  0.18083  1.0000
  Fe  Fe425     1.0  0.72519  0.36225  0.22583  1.0000
  H   H3791     1.0  0.66367  0.40076  0.22323  1.0000
  H   H3792     1.0  0.50844  0.30603  0.20764  1.0000
  H   H3793     1.0  0.70829  0.39562  0.17901  1.0000
  H   H3794     1.0  0.57418  0.31250  0.20625  1.0000
  S   S852      1.0  0.73209  0.31182  0.25551  1.0000
  H   H3795     1.0  0.57572  0.33267  0.21415  1.0000
  S   S853      1.0  0.70861  0.39908  0.36764  1.0000
  H   H3796     1.0  0.71234  0.16668  0.32153  1.0000
  N   N211      1.0  0.71656  0.19330  0.21284  1.0000
  C   C3164     1.0  0.71025  0.19278  0.22838  1.0000
  Fe  Fe426     1.0  0.72306  0.19915  0.30260  1.0000
  H   H3797     1.0  0.65377  0.46427  0.34545  1.0000
  C   C3165     1.0  0.72704  0.20260  0.20711  1.0000
  H   H3798     1.0  0.70833  0.15713  0.25667  1.0000
  C   C3166     1.0  0.73460  0.19302  0.25484  1.0000
  C   C3167     1.0  0.65880  0.36476  0.18503  1.0000
  H   H3799     1.0  0.62371  0.45728  0.18849  1.0000
  C   C3168     1.0  0.72961  0.27799  0.23801  1.0000
  C   C3169     1.0  0.72512  0.35286  0.31830  1.0000
  H   H3800     1.0  0.56251  0.37673  0.26264  1.0000
  H   H3801     1.0  0.67513  0.34127  0.35561  1.0000
  H   H3802     1.0  0.62687  0.27948  0.30571  1.0000
  H   H3803     1.0  0.52747  0.25729  0.23405  1.0000
  H   H3804     1.0  0.72588  0.27516  0.30787  1.0000
  C   C3170     1.0  0.65686  0.24706  0.20244  1.0000
  H   H3805     1.0  0.65979  0.43154  0.22722  1.0000
  H   H3806     1.0  0.65278  0.42547  0.21617  1.0000
  C   C3171     1.0  0.58417  0.32874  0.20567  1.0000
  S   S854      1.0  0.54548  0.30556  0.21561  1.0000
  C   C3172     1.0  0.72091  0.36320  0.33870  1.0000
  H   H3807     1.0  0.57678  0.29134  0.20157  1.0000
  H   H3808     1.0  0.64567  0.25272  0.20621  1.0000
  C   C3173     1.0  0.70503  0.19925  0.20482  1.0000
  H   H3809     1.0  0.52952  0.27648  0.25734  1.0000
  Fe  Fe427     1.0  0.62042  0.29370  0.36414  1.0000
  H   H3810     1.0  0.73148  0.30523  0.34809  1.0000
  C   C3174     1.0  0.57963  0.29528  0.18971  1.0000
  H   H3811     1.0  0.54427  0.36799  0.28151  1.0000
  H   H3812     1.0  0.55856  0.31331  0.33997  1.0000
  H   H3813     1.0  0.70304  0.20305  0.23045  1.0000
  C   C3175     1.0  0.61297  0.47114  0.21623  1.0000
  H   H3814     1.0  0.69033  0.43098  0.20944  1.0000
  H   H3815     1.0  0.54358  0.24161  0.24657  1.0000
  C   C3176     1.0  0.71661  0.36521  0.31159  1.0000
  H   H3816     1.0  0.64811  0.23952  0.34226  1.0000
  C   C3177     1.0  0.50431  0.30550  0.23691  1.0000
  H   H3817     1.0  0.71433  0.21976  0.21807  1.0000
  C   C3178     1.0  0.53665  0.26630  0.25484  1.0000
  H   H3818     1.0  0.65139  0.24388  0.17945  1.0000
  H   H3819     1.0  0.65042  0.25277  0.31655  1.0000
  H   H3820     1.0  0.54918  0.38933  0.25399  1.0000
  H   H3821     1.0  0.53182  0.35997  0.27862  1.0000
  H   H3822     1.0  0.59622  0.34436  0.20327  1.0000
  Fe  Fe428     1.0  0.64354  0.30593  0.36838  1.0000
  N   N212      1.0  0.54686  0.36741  0.25937  1.0000
  H   H3823     1.0  0.70358  0.18466  0.23327  1.0000
  C   C3179     1.0  0.66233  0.42886  0.21650  1.0000
  H   H3824     1.0  0.60480  0.45888  0.19390  1.0000
  H   H3825     1.0  0.66345  0.43890  0.20826  1.0000
  C   C3180     1.0  0.67982  0.36758  0.22317  1.0000
  C   C3181     1.0  0.67211  0.24947  0.28429  1.0000
  C   C3182     1.0  0.67992  0.41436  0.20000  1.0000
  C   C3183     1.0  0.66200  0.25149  0.27633  1.0000
  H   H3826     1.0  0.61203  0.27236  0.31746  1.0000
  S   S855      1.0  0.52312  0.34607  0.20572  1.0000
  C   C3184     1.0  0.69339  0.40535  0.19572  1.0000
  H   H3827     1.0  0.54694  0.29280  0.35056  1.0000
  C   C3185     1.0  0.58095  0.32023  0.37441  1.0000
  H   H3828     1.0  0.51200  0.31004  0.22800  1.0000
  H   H3829     1.0  0.62886  0.26632  0.32204  1.0000
  H   H3830     1.0  0.71600  0.11999  0.23445  1.0000
  H   H3831     1.0  0.53687  0.25051  0.28131  1.0000
  H   H3832     1.0  0.57125  0.32030  0.35339  1.0000
  H   H3833     1.0  0.72939  0.28264  0.18726  1.0000
  H   H3834     1.0  0.52799  0.35108  0.26166  1.0000
  C   C3186     1.0  0.68177  0.23006  0.34797  1.0000
  H   H3835     1.0  0.51365  0.35300  0.24475  1.0000
  C   C3187     1.0  0.71004  0.37705  0.31829  1.0000
  C   C3188     1.0  0.65473  0.24644  0.35756  1.0000
  C   C3189     1.0  0.55209  0.29612  0.35695  1.0000
  C   C3190     1.0  0.52030  0.36062  0.24253  1.0000
  C   C3191     1.0  0.72230  0.12481  0.22392  1.0000
  C   C3192     1.0  0.62412  0.24474  0.31479  1.0000
  C   C3193     1.0  0.49138  0.30348  0.23524  1.0000
  H   H3836     1.0  0.69295  0.32041  0.35208  1.0000
  H   H3837     1.0  0.72972  0.16224  0.26017  1.0000
  C   C3194     1.0  0.56596  0.31158  0.35891  1.0000
  N   N213      1.0  0.66308  0.25392  0.18759  1.0000
  H   H3838     1.0  0.69181  0.26184  0.34921  1.0000
  H   H3839     1.0  0.67562  0.24814  0.30497  1.0000
  H   H3840     1.0  0.66950  0.40569  0.23624  1.0000
  H   H3841     1.0  0.69271  0.41631  0.26217  1.0000
  C   C3195     1.0  0.73389  0.13677  0.23483  1.0000
  C   C3196     1.0  0.72023  0.14331  0.24207  1.0000
  C   C3197     1.0  0.49187  0.25985  0.24594  1.0000
  C   C3198     1.0  0.50269  0.25729  0.26568  1.0000
  H   H3842     1.0  0.54459  0.38756  0.23314  1.0000
  H   H3843     1.0  0.71910  0.40072  0.30168  1.0000
  H   H3844     1.0  0.72597  0.17738  0.19991  1.0000
  C   C3199     1.0  0.66614  0.37105  0.23152  1.0000
  C   C3200     1.0  0.71140  0.39101  0.24276  1.0000
  H   H3845     1.0  0.71023  0.16964  0.29672  1.0000
  Fe  Fe429     1.0  0.73480  0.33030  0.23692  1.0000
  C   C3201     1.0  0.52683  0.25249  0.27760  1.0000
  C   C3202     1.0  0.55663  0.35305  0.26053  1.0000
  C   C3203     1.0  0.71525  0.40733  0.25983  1.0000
  C   C3204     1.0  0.58417  0.26963  0.35090  1.0000
  S   S856      1.0  0.52935  0.32516  0.18294  1.0000
  C   C3205     1.0  0.55460  0.29629  0.24067  1.0000
  H   H3846     1.0  0.61906  0.46135  0.21301  1.0000
  Fe  Fe430     1.0  0.59973  0.43727  0.21918  1.0000
  H   H3847     1.0  0.69586  0.25914  0.37573  1.0000
  H   H3848     1.0  0.67812  0.34189  0.19618  1.0000
  C   C3206     1.0  0.49275  0.24400  0.30623  1.0000
  H   H3849     1.0  0.68203  0.39516  0.22451  1.0000
  C   C3207     1.0  0.59420  0.31168  0.18981  1.0000
  C   C3208     1.0  0.59822  0.47296  0.22160  1.0000
  C   C3209     1.0  0.55867  0.30768  0.35100  1.0000
  H   H3850     1.0  0.70052  0.40037  0.20300  1.0000
  H   H3851     1.0  0.61547  0.28858  0.18626  1.0000
  C   C3210     1.0  0.70496  0.31754  0.37438  1.0000
  H   H3852     1.0  0.71877  0.18996  0.23450  1.0000
  H   H3853     1.0  0.64429  0.25283  0.36119  1.0000
  H   H3854     1.0  0.50618  0.25989  0.22530  1.0000
  C   C3211     1.0  0.60666  0.33008  0.18885  1.0000
  C   C3212     1.0  0.56668  0.30401  0.37322  1.0000
  H   H3855     1.0  0.60220  0.28409  0.20221  1.0000
  H   H3856     1.0  0.72608  0.30085  0.23433  1.0000
  N   N214      1.0  0.65612  0.48019  0.32550  1.0000
  H   H3857     1.0  0.64071  0.47893  0.24401  1.0000
  C   C3213     1.0  0.73024  0.29160  0.22949  1.0000
  H   H3858     1.0  0.67881  0.40043  0.36930  1.0000
  C   C3214     1.0  0.67780  0.24566  0.18323  1.0000
  C   C3215     1.0  0.72731  0.35188  0.33178  1.0000
  N   N215      1.0  0.71083  0.31019  0.36218  1.0000
  C   C3216     1.0  0.49797  0.31377  0.20912  1.0000
  C   C3217     1.0  0.72646  0.30935  0.35807  1.0000
  H   H3859     1.0  0.49958  0.32376  0.21074  1.0000
  H   H3860     1.0  0.69387  0.38130  0.29834  1.0000
  H   H3861     1.0  0.73443  0.25554  0.23862  1.0000
  C   C3218     1.0  0.67098  0.47251  0.32063  1.0000
  H   H3862     1.0  0.70841  0.32782  0.37202  1.0000
  H   H3863     1.0  0.65129  0.37542  0.18455  1.0000
  C   C3219     1.0  0.70703  0.29603  0.36618  1.0000
  H   H3864     1.0  0.59315  0.29201  0.37669  1.0000
  S   S857      1.0  0.61963  0.31105  0.37508  1.0000
  S   S858      1.0  0.66359  0.25473  0.37712  1.0000
  H   H3865     1.0  0.58918  0.31796  0.36465  1.0000
  H   H3866     1.0  0.72845  0.28298  0.35964  1.0000
  H   H3867     1.0  0.50090  0.25669  0.27699  1.0000
  H   H3868     1.0  0.49674  0.23252  0.30827  1.0000
  H   H3869     1.0  0.61575  0.33506  0.18424  1.0000
  S   S859      1.0  0.73523  0.21655  0.29490  1.0000
  H   H3870     1.0  0.64827  0.46078  0.33154  1.0000
  H   H3871     1.0  0.70924  0.31406  0.34027  1.0000
  H   H3872     1.0  0.71561  0.13507  0.21926  1.0000
  Fe  Fe431     1.0  0.73356  0.34175  0.20584  1.0000
  H   H3873     1.0  0.65880  0.47635  0.23383  1.0000
  H   H3874     1.0  0.63233  0.47559  0.31875  1.0000
  C   C3220     1.0  0.73497  0.26609  0.23186  1.0000
  H   H3875     1.0  0.65212  0.27590  0.18841  1.0000
  C   C3221     1.0  0.61414  0.45747  0.18480  1.0000
  C   C3222     1.0  0.71726  0.28318  0.36414  1.0000
  S   S860      1.0  0.68917  0.15958  0.18064  1.0000
  H   H3876     1.0  0.57292  0.33008  0.37118  1.0000
  C   C3223     1.0  0.69787  0.40237  0.18203  1.0000
  H   H3877     1.0  0.67772  0.47979  0.31309  1.0000
  H   H3878     1.0  0.73182  0.30240  0.36681  1.0000
  H   H3879     1.0  0.67142  0.38693  0.17862  1.0000
  C   C3224     1.0  0.67855  0.37620  0.17802  1.0000
  H   H3880     1.0  0.49455  0.31682  0.19872  1.0000
  H   H3881     1.0  0.64293  0.26163  0.18101  1.0000
  H   H3882     1.0  0.67125  0.46421  0.31505  1.0000
  H   H3883     1.0  0.72121  0.26043  0.36584  1.0000
  C   C3225     1.0  0.66882  0.34792  0.37571  1.0000
  N   N216      1.0  0.48722  0.30763  0.22121  1.0000
  H   H3884     1.0  0.66882  0.20831  0.17806  1.0000
  C   C3226     1.0  0.63408  0.22460  0.17804  1.0000
  H   H3885     1.0  0.54783  0.27921  0.37528  1.0000
  H   H3886     1.0  0.72903  0.32004  0.35582  1.0000
  H   H3887     1.0  0.68410  0.30424  0.37306  1.0000
  H   H3888     1.0  0.73368  0.35312  0.37195  1.0000
  Fe  Fe432     1.0  0.64554  0.27403  0.37638  1.0000
  C   C3227     1.0  0.69897  0.26931  0.37315  1.0000
  C   C3228     1.0  0.68868  0.28170  0.37516  1.0000
  H   H3889     1.0  0.69311  0.32037  0.37708  1.0000
  S   S861      1.0  0.73588  0.17845  0.29665  1.0000
  N   N217      1.0  0.73588  0.12699  0.22528  1.0000
  H   H3890     1.0  0.73636  0.30429  0.20888  1.0000
  C   C3229     1.0  0.73627  0.29340  0.21477  1.0000
  C   C3230     1.0  0.70208  0.29999  0.52878  1.0000
  C   C3231     1.0  0.58604  0.29385  0.57321  1.0000
  C   C3232     1.0  0.69735  0.27952  0.52313  1.0000
  H   H3891     1.0  0.62564  0.28618  0.54778  1.0000
  H   H3892     1.0  0.48680  0.32886  0.57152  1.0000
  H   H3893     1.0  0.67186  0.37634  0.47881  1.0000
  H   H3894     1.0  0.71867  0.35107  0.43025  1.0000
  C   C3233     1.0  0.62496  0.29070  0.57263  1.0000
  H   H3895     1.0  0.64104  0.40649  0.48022  1.0000
  Fe  Fe433     1.0  0.61485  0.31024  0.51068  1.0000
  S   S862      1.0  0.62409  0.28843  0.50563  1.0000
  S   S863      1.0  0.59240  0.31861  0.52219  1.0000
  Fe  Fe434     1.0  0.64342  0.31911  0.50000  1.0000
  S   S864      1.0  0.65487  0.29790  0.49463  1.0000
  S   S865      1.0  0.65586  0.33641  0.49388  1.0000
  Fe  Fe435     1.0  0.63635  0.29996  0.48498  1.0000
  S   S866      1.0  0.64398  0.29581  0.46234  1.0000
  Fe  Fe436     1.0  0.64164  0.28855  0.51555  1.0000
  S   S867      1.0  0.64930  0.26926  0.53197  1.0000
  S   S868      1.0  0.62559  0.32187  0.48925  1.0000
  S   S869      1.0  0.63171  0.30962  0.52176  1.0000
  S   S870      1.0  0.70759  0.36571  0.54634  1.0000
  Fe  Fe437     1.0  0.70906  0.38428  0.50661  1.0000
  S   S871      1.0  0.68946  0.38888  0.52408  1.0000
  S   S872      1.0  0.70930  0.39481  0.48307  1.0000
  Fe  Fe438     1.0  0.70467  0.38930  0.53701  1.0000
  S   S873      1.0  0.70025  0.40078  0.55527  1.0000
  Fe  Fe439     1.0  0.69428  0.36502  0.53197  1.0000
  S   S874      1.0  0.67765  0.35163  0.54044  1.0000
  S   S875      1.0  0.71295  0.36035  0.51398  1.0000
  H   H3896     1.0  0.72710  0.36498  0.57024  1.0000
  C   C3234     1.0  0.49135  0.27432  0.53114  1.0000
  H   H3897     1.0  0.69122  0.32058  0.51763  1.0000
  C   C3235     1.0  0.50980  0.30272  0.53165  1.0000
  H   H3898     1.0  0.58074  0.27120  0.53821  1.0000
  C   C3236     1.0  0.62106  0.24892  0.55058  1.0000
  H   H3899     1.0  0.52003  0.27246  0.51874  1.0000
  N   N218      1.0  0.57420  0.30785  0.38201  1.0000
  S   S876      1.0  0.64659  0.28942  0.38836  1.0000
  H   H3900     1.0  0.63379  0.26744  0.42234  1.0000
  C   C3237     1.0  0.55978  0.29232  0.37896  1.0000
  H   H3901     1.0  0.60197  0.31154  0.55180  1.0000
  H   H3902     1.0  0.59900  0.25669  0.55083  1.0000
  Fe  Fe440     1.0  0.62284  0.29310  0.39435  1.0000
  S   S877      1.0  0.61062  0.29426  0.41714  1.0000
  H   H3903     1.0  0.69683  0.46575  0.57415  1.0000
  H   H3904     1.0  0.70137  0.31866  0.55293  1.0000
  H   H3905     1.0  0.50793  0.31060  0.52157  1.0000
  H   H3906     1.0  0.67124  0.33274  0.57068  1.0000
  C   C3238     1.0  0.73120  0.37270  0.57338  1.0000
  Fe  Fe441     1.0  0.69556  0.36923  0.41851  1.0000
  S   S878      1.0  0.68127  0.38326  0.40365  1.0000
  S   S879      1.0  0.69211  0.36613  0.44273  1.0000
  S   S880      1.0  0.65940  0.35725  0.40096  1.0000
  S   S881      1.0  0.69278  0.34901  0.41498  1.0000
  H   H3907     1.0  0.64274  0.32226  0.38752  1.0000
  H   H3908     1.0  0.71344  0.28763  0.55348  1.0000
  H   H3909     1.0  0.69841  0.26805  0.52504  1.0000
  C   C3239     1.0  0.66212  0.26093  0.41591  1.0000
  Fe  Fe442     1.0  0.68015  0.36290  0.39898  1.0000
  H   H3910     1.0  0.66960  0.35142  0.44415  1.0000
  S   S882      1.0  0.71577  0.36935  0.40136  1.0000
  H   H3911     1.0  0.55937  0.30240  0.40217  1.0000
  C   C3240     1.0  0.71881  0.29540  0.54468  1.0000
  C   C3241     1.0  0.60206  0.24114  0.57074  1.0000
  C   C3242     1.0  0.65000  0.24411  0.46899  1.0000
  H   H3912     1.0  0.72786  0.38319  0.56618  1.0000
  Fe  Fe443     1.0  0.53448  0.28184  0.57473  1.0000
  C   C3243     1.0  0.73027  0.33132  0.55220  1.0000
  H   H3913     1.0  0.67373  0.39330  0.46703  1.0000
  H   H3914     1.0  0.56922  0.31489  0.40184  1.0000
  S   S883      1.0  0.68738  0.27710  0.56916  1.0000
  S   S884      1.0  0.73157  0.44522  0.56183  1.0000
  H   H3915     1.0  0.72390  0.30043  0.55003  1.0000
  H   H3916     1.0  0.52841  0.34487  0.55752  1.0000
  H   H3917     1.0  0.63913  0.25789  0.40843  1.0000
  H   H3918     1.0  0.68903  0.32163  0.54194  1.0000
  H   H3919     1.0  0.56001  0.28594  0.38968  1.0000
  C   C3244     1.0  0.51942  0.28370  0.51897  1.0000
  H   H3920     1.0  0.66315  0.33424  0.42528  1.0000
  H   H3921     1.0  0.71779  0.31731  0.56812  1.0000
  C   C3245     1.0  0.70613  0.38607  0.47139  1.0000
  C   C3246     1.0  0.70595  0.39323  0.45705  1.0000
  C   C3247     1.0  0.70245  0.38697  0.44779  1.0000
  C   C3248     1.0  0.69900  0.37351  0.45287  1.0000
  C   C3249     1.0  0.69969  0.36616  0.46702  1.0000
  C   C3250     1.0  0.70321  0.37239  0.47625  1.0000
  H   H3922     1.0  0.70824  0.40381  0.45317  1.0000
  H   H3923     1.0  0.70189  0.39278  0.43692  1.0000
  N   N219      1.0  0.65291  0.25054  0.42352  1.0000
  C   C3251     1.0  0.71085  0.41155  0.55695  1.0000
  H   H3924     1.0  0.53413  0.35531  0.57445  1.0000
  H   H3925     1.0  0.60542  0.31616  0.56653  1.0000
  H   H3926     1.0  0.51342  0.26698  0.54503  1.0000
  C   C3252     1.0  0.68150  0.43854  0.56507  1.0000
  C   C3253     1.0  0.71885  0.41932  0.54498  1.0000
  H   H3927     1.0  0.58653  0.32283  0.38127  1.0000
  C   C3254     1.0  0.72406  0.33958  0.43188  1.0000
  H   H3928     1.0  0.72981  0.36380  0.43734  1.0000
  C   C3255     1.0  0.67869  0.33114  0.57737  1.0000
  C   C3256     1.0  0.63376  0.29710  0.44992  1.0000
  C   C3257     1.0  0.64043  0.29886  0.43528  1.0000
  C   C3258     1.0  0.63325  0.29855  0.42511  1.0000
  C   C3259     1.0  0.61938  0.29623  0.42949  1.0000
  C   C3260     1.0  0.61254  0.29488  0.44409  1.0000
  C   C3261     1.0  0.61966  0.29538  0.45428  1.0000
  H   H3929     1.0  0.65129  0.30030  0.43178  1.0000
  H   H3930     1.0  0.63853  0.30003  0.41391  1.0000
  H   H3931     1.0  0.60179  0.29315  0.44760  1.0000
  H   H3932     1.0  0.61442  0.29397  0.46553  1.0000
  C   C3262     1.0  0.66252  0.33961  0.50701  1.0000
  C   C3263     1.0  0.67240  0.34838  0.50264  1.0000
  C   C3264     1.0  0.67728  0.35193  0.51282  1.0000
  C   C3265     1.0  0.67228  0.34671  0.52746  1.0000
  C   C3266     1.0  0.66273  0.33756  0.53185  1.0000
  C   C3267     1.0  0.65789  0.33397  0.52164  1.0000
  H   H3933     1.0  0.67618  0.35250  0.49134  1.0000
  H   H3934     1.0  0.68466  0.35896  0.50934  1.0000
  H   H3935     1.0  0.65892  0.33340  0.54317  1.0000
  H   H3936     1.0  0.65036  0.32710  0.52509  1.0000
  C   C3268     1.0  0.67564  0.27533  0.55980  1.0000
  C   C3269     1.0  0.67239  0.26208  0.56176  1.0000
  C   C3270     1.0  0.66407  0.26041  0.55336  1.0000
  C   C3271     1.0  0.65886  0.27199  0.54301  1.0000
  C   C3272     1.0  0.66155  0.28544  0.54149  1.0000
  C   C3273     1.0  0.66991  0.28711  0.54989  1.0000
  H   H3937     1.0  0.58535  0.29821  0.56213  1.0000
  H   H3938     1.0  0.66200  0.24999  0.55467  1.0000
  H   H3939     1.0  0.65765  0.29444  0.53350  1.0000
  H   H3940     1.0  0.67232  0.29742  0.54834  1.0000
  C   C3274     1.0  0.63468  0.36949  0.50900  1.0000
  C   C3275     1.0  0.59920  0.29078  0.57738  1.0000
  H   H3941     1.0  0.66266  0.22523  0.44301  1.0000
  C   C3276     1.0  0.71631  0.31702  0.52645  1.0000
  S   S885      1.0  0.55432  0.27418  0.55893  1.0000
  H   H3942     1.0  0.55497  0.32054  0.39236  1.0000
  H   H3943     1.0  0.51680  0.29062  0.50871  1.0000
  C   C3277     1.0  0.63352  0.35745  0.43176  1.0000
  C   C3278     1.0  0.65737  0.23450  0.44755  1.0000
  H   H3944     1.0  0.66395  0.26261  0.40403  1.0000
  C   C3279     1.0  0.56462  0.28674  0.54863  1.0000
  C   C3280     1.0  0.56028  0.30109  0.54966  1.0000
  C   C3281     1.0  0.56881  0.31083  0.54135  1.0000
  C   C3282     1.0  0.58181  0.30623  0.53218  1.0000
  C   C3283     1.0  0.58616  0.29186  0.53124  1.0000
  C   C3284     1.0  0.57751  0.28219  0.53933  1.0000
  H   H3945     1.0  0.55037  0.30471  0.55682  1.0000
  H   H3946     1.0  0.56540  0.32195  0.54211  1.0000
  H   H3947     1.0  0.59605  0.28825  0.52408  1.0000
  Fe  Fe444     1.0  0.72585  0.36328  0.52761  1.0000
  H   H3948     1.0  0.68026  0.31067  0.50473  1.0000
  H   H3949     1.0  0.67841  0.40371  0.48230  1.0000
  H   H3950     1.0  0.64986  0.32457  0.46415  1.0000
  H   H3951     1.0  0.64301  0.33680  0.40395  1.0000
  H   H3952     1.0  0.62795  0.36389  0.50680  1.0000
  C   C3285     1.0  0.62964  0.33470  0.44711  1.0000
  H   H3953     1.0  0.50408  0.28100  0.55437  1.0000
  C   C3286     1.0  0.64513  0.25931  0.44646  1.0000
  C   C3287     1.0  0.64497  0.37434  0.52583  1.0000
  H   H3954     1.0  0.53033  0.28431  0.51911  1.0000
  H   H3955     1.0  0.69130  0.30547  0.55532  1.0000
  H   H3956     1.0  0.66220  0.33442  0.46351  1.0000
  H   H3957     1.0  0.60232  0.35126  0.43014  1.0000
  H   H3958     1.0  0.65840  0.32031  0.44036  1.0000
  H   H3959     1.0  0.70898  0.32689  0.52196  1.0000
  H   H3960     1.0  0.70336  0.36670  0.48719  1.0000
  C   C3288     1.0  0.70378  0.28498  0.53061  1.0000
  N   N220      1.0  0.70854  0.30620  0.53666  1.0000
  S   S886      1.0  0.72386  0.38689  0.51879  1.0000
  H   H3961     1.0  0.67274  0.25714  0.41877  1.0000
  C   C3289     1.0  0.65646  0.23267  0.46223  1.0000
  H   H3962     1.0  0.72268  0.32069  0.53169  1.0000
  C   C3290     1.0  0.65020  0.33760  0.39349  1.0000
  H   H3963     1.0  0.64355  0.34260  0.46699  1.0000
  C   C3291     1.0  0.56399  0.31157  0.39516  1.0000
  C   C3292     1.0  0.65277  0.38305  0.51462  1.0000
  H   H3964     1.0  0.67331  0.32762  0.43901  1.0000
  H   H3965     1.0  0.63278  0.32474  0.45435  1.0000
  H   H3966     1.0  0.69709  0.35572  0.47102  1.0000
  C   C3293     1.0  0.63850  0.34476  0.44153  1.0000
  H   H3967     1.0  0.65557  0.41549  0.47459  1.0000
  H   H3968     1.0  0.64945  0.24272  0.48032  1.0000
  H   H3969     1.0  0.70865  0.31074  0.38421  1.0000
  C   C3294     1.0  0.65004  0.32937  0.38419  1.0000
  C   C3295     1.0  0.63862  0.25660  0.42005  1.0000
  N   N221      1.0  0.61222  0.29367  0.56650  1.0000
  C   C3296     1.0  0.58563  0.29548  0.38631  1.0000
  H   H3970     1.0  0.71938  0.41817  0.53433  1.0000
  H   H3971     1.0  0.64627  0.37247  0.53672  1.0000
  H   H3972     1.0  0.66193  0.35802  0.42892  1.0000
  C   C3297     1.0  0.61221  0.34956  0.43343  1.0000
  C   C3298     1.0  0.52357  0.35334  0.57634  1.0000
  N   N222      1.0  0.65989  0.39439  0.48804  1.0000
  C   C3299     1.0  0.64999  0.40813  0.48370  1.0000
  H   H3973     1.0  0.58143  0.28605  0.39326  1.0000
  H   H3974     1.0  0.64259  0.24022  0.55324  1.0000
  C   C3300     1.0  0.50683  0.34448  0.56948  1.0000
  H   H3975     1.0  0.66813  0.40434  0.49985  1.0000
  H   H3976     1.0  0.63451  0.29317  0.56417  1.0000
  C   C3301     1.0  0.68902  0.28875  0.51374  1.0000
  C   C3302     1.0  0.68702  0.30350  0.51181  1.0000
  C   C3303     1.0  0.52032  0.34743  0.56684  1.0000
  H   H3977     1.0  0.72200  0.33641  0.54626  1.0000
  C   C3304     1.0  0.61573  0.28455  0.55598  1.0000
  Fe  Fe445     1.0  0.70130  0.38166  0.38609  1.0000
  C   C3305     1.0  0.64231  0.37830  0.49773  1.0000
  H   H3978     1.0  0.68375  0.28445  0.50828  1.0000
  C   C3306     1.0  0.66235  0.33040  0.43706  1.0000
  C   C3307     1.0  0.60967  0.30895  0.55883  1.0000
  H   H3979     1.0  0.61961  0.31193  0.55163  1.0000
  H   H3980     1.0  0.67925  0.38754  0.49590  1.0000
  H   H3981     1.0  0.61724  0.36932  0.42000  1.0000
  C   C3308     1.0  0.69339  0.30907  0.51923  1.0000
  C   C3309     1.0  0.61672  0.33707  0.44311  1.0000
  H   H3982     1.0  0.52279  0.27917  0.54629  1.0000
  H   H3983     1.0  0.67043  0.23283  0.41887  1.0000
  C   C3310     1.0  0.71028  0.41320  0.57069  1.0000
  C   C3311     1.0  0.63603  0.36749  0.52301  1.0000
  H   H3984     1.0  0.65957  0.23955  0.40603  1.0000
  Fe  Fe446     1.0  0.71181  0.35017  0.39697  1.0000
  C   C3312     1.0  0.65169  0.24797  0.43919  1.0000
  C   C3313     1.0  0.51241  0.27841  0.54482  1.0000
  C   C3314     1.0  0.65196  0.33553  0.46052  1.0000
  H   H3985     1.0  0.62431  0.25537  0.53995  1.0000
  C   C3315     1.0  0.71702  0.42307  0.57245  1.0000
  H   H3986     1.0  0.65969  0.38775  0.51760  1.0000
  N   N223      1.0  0.65275  0.34137  0.44490  1.0000
  H   H3987     1.0  0.72753  0.28937  0.53744  1.0000
  H   H3988     1.0  0.61035  0.32901  0.44734  1.0000
  C   C3316     1.0  0.57928  0.24002  0.56722  1.0000
  S   S887      1.0  0.72791  0.32950  0.39584  1.0000
  H   H3989     1.0  0.65791  0.38731  0.47001  1.0000
  H   H3990     1.0  0.70960  0.27721  0.53813  1.0000
  C   C3317     1.0  0.64433  0.25739  0.46111  1.0000
  H   H3991     1.0  0.70220  0.46303  0.54919  1.0000
  C   C3318     1.0  0.62058  0.35974  0.42779  1.0000
  H   H3992     1.0  0.65734  0.27164  0.41858  1.0000
  N   N224      1.0  0.50868  0.28822  0.53149  1.0000
  H   H3993     1.0  0.69247  0.44573  0.54328  1.0000
  C   C3319     1.0  0.72551  0.42926  0.54671  1.0000
  H   H3994     1.0  0.64072  0.26985  0.44083  1.0000
  C   C3320     1.0  0.65920  0.23737  0.41773  1.0000
  H   H3995     1.0  0.52058  0.30276  0.53271  1.0000
  C   C3321     1.0  0.65930  0.35401  0.44075  1.0000
  H   H3996     1.0  0.59192  0.29813  0.39248  1.0000
  C   C3322     1.0  0.69709  0.31330  0.54716  1.0000
  H   H3997     1.0  0.60721  0.28686  0.54998  1.0000
  H   H3998     1.0  0.66092  0.22236  0.46841  1.0000
  C   C3323     1.0  0.65963  0.34682  0.38928  1.0000
  H   H3999     1.0  0.72382  0.31256  0.51735  1.0000
  C   C3324     1.0  0.66604  0.38755  0.47550  1.0000
  H   H4000     1.0  0.67758  0.28113  0.37922  1.0000
  H   H4001     1.0  0.73123  0.43563  0.53734  1.0000
  H   H4002     1.0  0.50515  0.33962  0.56186  1.0000
  C   C3325     1.0  0.65187  0.38510  0.50013  1.0000
  C   C3326     1.0  0.67187  0.39758  0.49177  1.0000
  H   H4003     1.0  0.63944  0.26635  0.46634  1.0000
  C   C3327     1.0  0.72439  0.43142  0.56041  1.0000
  H   H4004     1.0  0.63104  0.24960  0.42632  1.0000
  H   H4005     1.0  0.64078  0.37952  0.48710  1.0000
  H   H4006     1.0  0.63038  0.36037  0.53167  1.0000
  H   H4007     1.0  0.63964  0.36558  0.42661  1.0000
  H   H4008     1.0  0.50204  0.30666  0.54096  1.0000
  H   H4009     1.0  0.65216  0.36288  0.44577  1.0000
  H   H4010     1.0  0.65279  0.22907  0.42306  1.0000
  H   H4011     1.0  0.67662  0.25296  0.56947  1.0000
  H   H4012     1.0  0.64522  0.41368  0.49278  1.0000
  H   H4013     1.0  0.49933  0.26446  0.53237  1.0000
  C   C3328     1.0  0.68673  0.34130  0.57477  1.0000
  S   S888      1.0  0.62186  0.27599  0.38400  1.0000
  C   C3329     1.0  0.69524  0.45689  0.55752  1.0000
  C   C3330     1.0  0.68978  0.44711  0.55423  1.0000
  H   H4014     1.0  0.67808  0.43087  0.56174  1.0000
  C   C3331     1.0  0.49434  0.28761  0.53058  1.0000
  S   S889      1.0  0.69902  0.36225  0.38044  1.0000
  H   H4015     1.0  0.61751  0.27300  0.56141  1.0000
  C   C3332     1.0  0.60659  0.24948  0.55686  1.0000
  H   H4016     1.0  0.57914  0.24878  0.55745  1.0000
  H   H4017     1.0  0.58443  0.22972  0.56380  1.0000
  C   C3333     1.0  0.63141  0.24039  0.55807  1.0000
  C   C3334     1.0  0.72790  0.32050  0.56454  1.0000
  C   C3335     1.0  0.62735  0.23229  0.57182  1.0000
  H   H4018     1.0  0.58123  0.26517  0.57047  1.0000
  S   S890      1.0  0.52016  0.30380  0.57191  1.0000
  H   H4019     1.0  0.68536  0.35080  0.56627  1.0000
  H   H4020     1.0  0.71885  0.33422  0.44274  1.0000
  H   H4021     1.0  0.72160  0.33536  0.42383  1.0000
  H   H4022     1.0  0.56782  0.24001  0.57219  1.0000
  C   C3336     1.0  0.69227  0.45833  0.57164  1.0000
  H   H4023     1.0  0.73366  0.37140  0.45694  1.0000
  C   C3337     1.0  0.73627  0.35605  0.44434  1.0000
  N   N225      1.0  0.58665  0.24214  0.57727  1.0000
  Fe  Fe447     1.0  0.64341  0.14902  0.72830  1.0000
  S   S891      1.0  0.65473  0.16322  0.73277  1.0000
  S   S892      1.0  0.62066  0.16032  0.72720  1.0000
  Fe  Fe448     1.0  0.67020  0.12516  0.72532  1.0000
  S   S893      1.0  0.68354  0.13815  0.72830  1.0000
  Fe  Fe449     1.0  0.66539  0.14337  0.74627  1.0000
  Fe  Fe450     1.0  0.67166  0.15658  0.71438  1.0000
  S   S894      1.0  0.68202  0.17293  0.69749  1.0000
  S   S895      1.0  0.66018  0.14316  0.70918  1.0000
  Fe  Fe451     1.0  0.59353  0.23910  0.63296  1.0000
  S   S896      1.0  0.58563  0.21899  0.64428  1.0000
  S   S897      1.0  0.60191  0.24715  0.60957  1.0000
  Fe  Fe452     1.0  0.59252  0.24677  0.66057  1.0000
  S   S898      1.0  0.58448  0.22755  0.67455  1.0000
  S   S899      1.0  0.59567  0.26355  0.66949  1.0000
  Fe  Fe453     1.0  0.60054  0.21548  0.65884  1.0000
  S   S900      1.0  0.61696  0.19502  0.66386  1.0000
  Fe  Fe454     1.0  0.57036  0.23284  0.65896  1.0000
  S   S901      1.0  0.54709  0.23345  0.66776  1.0000
  S   S902      1.0  0.60971  0.23446  0.64602  1.0000
  S   S903      1.0  0.57707  0.25321  0.64635  1.0000
  H   H4024     1.0  0.56065  0.42639  0.67555  1.0000
  Fe  Fe455     1.0  0.51573  0.27035  0.60268  1.0000
  S   S904      1.0  0.53466  0.28012  0.59773  1.0000
  S   S905      1.0  0.50993  0.25246  0.62105  1.0000
  Fe  Fe456     1.0  0.51878  0.30109  0.59539  1.0000
  S   S906      1.0  0.51576  0.31881  0.60646  1.0000
  N   N226      1.0  0.72843  0.37788  0.69877  1.0000
  C   C3338     1.0  0.54745  0.44864  0.70499  1.0000
  S   S907      1.0  0.66605  0.21712  0.60916  1.0000
  Fe  Fe457     1.0  0.67879  0.34650  0.75070  1.0000
  S   S908      1.0  0.68176  0.32916  0.73917  1.0000
  S   S909      1.0  0.65918  0.36429  0.75054  1.0000
  Fe  Fe458     1.0  0.70768  0.33439  0.75893  1.0000
  S   S910      1.0  0.71293  0.31617  0.74807  1.0000
  S   S911      1.0  0.68553  0.33171  0.77046  1.0000
  Fe  Fe459     1.0  0.70397  0.33269  0.73036  1.0000
  S   S912      1.0  0.71459  0.33539  0.70689  1.0000
  Fe  Fe460     1.0  0.69025  0.31470  0.75808  1.0000
  H   H4025     1.0  0.60866  0.28169  0.59635  1.0000
  S   S913      1.0  0.70045  0.35105  0.74051  1.0000
  C   C3339     1.0  0.49985  0.35348  0.59124  1.0000
  Fe  Fe461     1.0  0.64234  0.41976  0.68272  1.0000
  S   S914      1.0  0.62074  0.42580  0.69669  1.0000
  S   S915      1.0  0.66150  0.40280  0.68785  1.0000
  Fe  Fe462     1.0  0.61240  0.42369  0.67873  1.0000
  S   S916      1.0  0.59522  0.41070  0.68602  1.0000
  S   S917      1.0  0.63402  0.41613  0.66567  1.0000
  Fe  Fe463     1.0  0.64102  0.28711  0.70598  1.0000
  S   S918      1.0  0.66284  0.27704  0.69465  1.0000
  S   S919      1.0  0.63081  0.30994  0.69670  1.0000
  S   S920      1.0  0.65862  0.24704  0.71892  1.0000
  Fe  Fe464     1.0  0.66659  0.26655  0.71671  1.0000
  S   S921      1.0  0.68802  0.26121  0.72196  1.0000
  Fe  Fe465     1.0  0.65320  0.25849  0.69778  1.0000
  S   S922      1.0  0.65725  0.24692  0.68041  1.0000
  S   S923      1.0  0.63117  0.26904  0.70756  1.0000
  Fe  Fe466     1.0  0.56332  0.36710  0.65046  1.0000
  S   S924      1.0  0.54975  0.35794  0.67151  1.0000
  S   S925      1.0  0.57409  0.38594  0.64493  1.0000
  Fe  Fe467     1.0  0.56153  0.34457  0.63591  1.0000
  S   S926      1.0  0.54810  0.33377  0.65571  1.0000
  S   S927      1.0  0.56862  0.33374  0.61720  1.0000
  Fe  Fe468     1.0  0.53599  0.35587  0.65796  1.0000
  Fe  Fe469     1.0  0.56294  0.33662  0.66728  1.0000
  S   S928      1.0  0.57066  0.31687  0.68319  1.0000
  S   S929      1.0  0.54845  0.36672  0.63713  1.0000
  S   S930      1.0  0.57743  0.34575  0.64726  1.0000
  C   C3340     1.0  0.61392  0.31209  0.69314  1.0000
  C   C3341     1.0  0.60848  0.32433  0.68349  1.0000
  C   C3342     1.0  0.59513  0.32602  0.68044  1.0000
  C   C3343     1.0  0.58722  0.31541  0.68696  1.0000
  C   C3344     1.0  0.59260  0.30330  0.69669  1.0000
  C   C3345     1.0  0.60579  0.30174  0.69990  1.0000
  H   H4026     1.0  0.61460  0.33249  0.67836  1.0000
  H   H4027     1.0  0.59094  0.33554  0.67310  1.0000
  H   H4028     1.0  0.58646  0.29516  0.70194  1.0000
  H   H4029     1.0  0.60944  0.29269  0.70791  1.0000
  C   C3346     1.0  0.58990  0.40349  0.67446  1.0000
  C   C3347     1.0  0.59403  0.40762  0.65953  1.0000
  C   C3348     1.0  0.58916  0.40205  0.65069  1.0000
  C   C3349     1.0  0.58033  0.39212  0.65664  1.0000
  C   C3350     1.0  0.57640  0.38780  0.67159  1.0000
  C   C3351     1.0  0.58107  0.39357  0.68045  1.0000
  H   H4030     1.0  0.60078  0.41527  0.65476  1.0000
  H   H4031     1.0  0.59221  0.40549  0.63914  1.0000
  H   H4032     1.0  0.56956  0.38023  0.67632  1.0000
  H   H4033     1.0  0.57775  0.39035  0.69199  1.0000
  C   C3352     1.0  0.68706  0.28429  0.75561  1.0000
  C   C3353     1.0  0.69623  0.27091  0.75499  1.0000
  C   C3354     1.0  0.69665  0.26391  0.74446  1.0000
  C   C3355     1.0  0.68764  0.27014  0.73483  1.0000
  C   C3356     1.0  0.67826  0.28338  0.73565  1.0000
  C   C3357     1.0  0.67815  0.29059  0.74590  1.0000
  H   H4034     1.0  0.70307  0.26601  0.76255  1.0000
  H   H4035     1.0  0.70374  0.25355  0.74396  1.0000
  H   H4036     1.0  0.67133  0.28822  0.72818  1.0000
  H   H4037     1.0  0.67096  0.30088  0.74650  1.0000
  C   C3358     1.0  0.65964  0.37519  0.73322  1.0000
  C   C3359     1.0  0.67087  0.37167  0.72185  1.0000
  C   C3360     1.0  0.67131  0.38033  0.70804  1.0000
  C   C3361     1.0  0.66041  0.39240  0.70541  1.0000
  C   C3362     1.0  0.64902  0.39587  0.71670  1.0000
  C   C3363     1.0  0.64867  0.38728  0.73064  1.0000
  H   H4038     1.0  0.67919  0.36222  0.72364  1.0000
  H   H4039     1.0  0.68011  0.37763  0.69937  1.0000
  H   H4040     1.0  0.64063  0.40526  0.71477  1.0000
  H   H4041     1.0  0.63996  0.39002  0.73942  1.0000
  C   C3364     1.0  0.57354  0.29133  0.58320  1.0000
  C   C3365     1.0  0.69373  0.26641  0.64388  1.0000
  H   H4042     1.0  0.49261  0.26529  0.64734  1.0000
  C   C3366     1.0  0.62270  0.48015  0.69370  1.0000
  C   C3367     1.0  0.70699  0.47689  0.63939  1.0000
  H   H4043     1.0  0.65814  0.44813  0.60185  1.0000
  H   H4044     1.0  0.66083  0.42518  0.65046  1.0000
  H   H4045     1.0  0.60458  0.36694  0.71780  1.0000
  C   C3368     1.0  0.57378  0.28565  0.59764  1.0000
  H   H4046     1.0  0.68229  0.22026  0.71639  1.0000
  S   S931      1.0  0.73135  0.21602  0.60409  1.0000
  H   H4047     1.0  0.70260  0.27885  0.69900  1.0000
  H   H4048     1.0  0.53615  0.42778  0.69048  1.0000
  H   H4049     1.0  0.69254  0.18284  0.73642  1.0000
  C   C3369     1.0  0.64742  0.22426  0.77274  1.0000
  H   H4050     1.0  0.67970  0.43075  0.60824  1.0000
  C   C3370     1.0  0.53064  0.32335  0.60855  1.0000
  C   C3371     1.0  0.54451  0.31740  0.60197  1.0000
  C   C3372     1.0  0.55621  0.32090  0.60433  1.0000
  C   C3373     1.0  0.55401  0.33022  0.61338  1.0000
  C   C3374     1.0  0.54011  0.33626  0.61982  1.0000
  C   C3375     1.0  0.52847  0.33294  0.61728  1.0000
  H   H4051     1.0  0.54618  0.31015  0.59508  1.0000
  H   H4052     1.0  0.56696  0.31629  0.59928  1.0000
  H   H4053     1.0  0.53833  0.34357  0.62669  1.0000
  H   H4054     1.0  0.51777  0.33784  0.62215  1.0000
  C   C3376     1.0  0.61343  0.25962  0.67085  1.0000
  C   C3377     1.0  0.62228  0.24637  0.66898  1.0000
  C   C3378     1.0  0.63638  0.24299  0.67045  1.0000
  C   C3379     1.0  0.64147  0.25269  0.67430  1.0000
  C   C3380     1.0  0.63292  0.26624  0.67543  1.0000
  C   C3381     1.0  0.61878  0.26962  0.67401  1.0000
  H   H4055     1.0  0.61806  0.23832  0.66740  1.0000
  H   H4056     1.0  0.64301  0.23261  0.66938  1.0000
  H   H4057     1.0  0.63711  0.27400  0.67778  1.0000
  H   H4058     1.0  0.61199  0.27984  0.67562  1.0000
  C   C3382     1.0  0.61991  0.23850  0.60738  1.0000
  C   C3383     1.0  0.62358  0.22420  0.61445  1.0000
  C   C3384     1.0  0.63786  0.21758  0.61444  1.0000
  C   C3385     1.0  0.64850  0.22534  0.60763  1.0000
  C   C3386     1.0  0.64491  0.23954  0.60014  1.0000
  C   C3387     1.0  0.63057  0.24609  0.59992  1.0000
  H   H4059     1.0  0.61536  0.21830  0.62028  1.0000
  H   H4060     1.0  0.64059  0.20659  0.62017  1.0000
  H   H4061     1.0  0.65315  0.24546  0.59461  1.0000
  H   H4062     1.0  0.62772  0.25715  0.59451  1.0000
  C   C3388     1.0  0.53728  0.23838  0.65440  1.0000
  C   C3389     1.0  0.54302  0.24464  0.64020  1.0000
  C   C3390     1.0  0.53472  0.24898  0.62982  1.0000
  C   C3391     1.0  0.52082  0.24674  0.63358  1.0000
  C   C3392     1.0  0.51527  0.24015  0.64768  1.0000
  C   C3393     1.0  0.52339  0.23620  0.65810  1.0000
  H   H4063     1.0  0.55381  0.24620  0.63726  1.0000
  H   H4064     1.0  0.53918  0.25374  0.61889  1.0000
  H   H4065     1.0  0.50460  0.23827  0.65063  1.0000
  H   H4066     1.0  0.51897  0.23127  0.66904  1.0000
  C   C3394     1.0  0.69900  0.16312  0.69135  1.0000
  C   C3395     1.0  0.71039  0.16990  0.68495  1.0000
  H   H4067     1.0  0.70858  0.18141  0.68298  1.0000
  C   C3396     1.0  0.61846  0.16933  0.70969  1.0000
  C   C3397     1.0  0.60819  0.18217  0.70751  1.0000
  C   C3398     1.0  0.60728  0.19005  0.69348  1.0000
  C   C3399     1.0  0.61654  0.18501  0.68162  1.0000
  C   C3400     1.0  0.62638  0.17193  0.68386  1.0000
  C   C3401     1.0  0.62739  0.16417  0.69780  1.0000
  H   H4068     1.0  0.60113  0.18618  0.71665  1.0000
  H   H4069     1.0  0.59954  0.20006  0.69187  1.0000
  H   H4070     1.0  0.63329  0.16774  0.67475  1.0000
  H   H4071     1.0  0.63487  0.15402  0.69934  1.0000
  C   C3402     1.0  0.73506  0.26984  0.73401  1.0000
  H   H4072     1.0  0.70796  0.29119  0.59612  1.0000
  C   C3403     1.0  0.58027  0.25655  0.58038  1.0000
  H   H4073     1.0  0.67166  0.41607  0.61196  1.0000
  C   C3404     1.0  0.49281  0.32663  0.64317  1.0000
  H   H4074     1.0  0.69108  0.36748  0.67954  1.0000
  H   H4075     1.0  0.67041  0.26131  0.76323  1.0000
  H   H4076     1.0  0.56364  0.29372  0.57969  1.0000
  C   C3405     1.0  0.65334  0.20842  0.69158  1.0000
  N   N227      1.0  0.63788  0.17874  0.77341  1.0000
  H   H4077     1.0  0.56065  0.25576  0.69551  1.0000
  C   C3406     1.0  0.67845  0.43957  0.57966  1.0000
  H   H4078     1.0  0.68828  0.41667  0.59890  1.0000
  H   H4079     1.0  0.58564  0.25860  0.58775  1.0000
  C   C3407     1.0  0.61292  0.23255  0.57809  1.0000
  C   C3408     1.0  0.54311  0.43350  0.69210  1.0000
  H   H4080     1.0  0.61056  0.22618  0.58886  1.0000
  C   C3409     1.0  0.72167  0.28530  0.71086  1.0000
  H   H4081     1.0  0.65692  0.17913  0.75674  1.0000
  H   H4082     1.0  0.61010  0.37627  0.68438  1.0000
  H   H4083     1.0  0.69687  0.31367  0.62300  1.0000
  H   H4084     1.0  0.59024  0.43835  0.69389  1.0000
  H   H4085     1.0  0.55149  0.25333  0.68372  1.0000
  S   S932      1.0  0.51194  0.35859  0.66568  1.0000
  H   H4086     1.0  0.67885  0.27395  0.66192  1.0000
  H   H4087     1.0  0.49256  0.35543  0.60116  1.0000
  H   H4088     1.0  0.72894  0.26716  0.63429  1.0000
  H   H4089     1.0  0.69666  0.28166  0.66916  1.0000
  Fe  Fe470     1.0  0.63763  0.25972  0.72851  1.0000
  H   H4090     1.0  0.71541  0.99920  0.77695  1.0000
  H   H4091     1.0  0.50007  0.36904  0.61846  1.0000
  C   C3410     1.0  0.71520  0.20689  0.68807  1.0000
  S   S933      1.0  0.70648  0.25594  0.60110  1.0000
  C   C3411     1.0  0.58371  0.23137  0.59090  1.0000
  Fe  Fe471     1.0  0.67985  0.23244  0.60593  1.0000
  C   C3412     1.0  0.69070  0.43802  0.63365  1.0000
  S   S934      1.0  0.69304  0.22856  0.62201  1.0000
  H   H4092     1.0  0.52766  0.44196  0.70925  1.0000
  H   H4093     1.0  0.56722  0.47403  0.68267  1.0000
  C   C3413     1.0  0.69994  0.27676  0.66002  1.0000
  H   H4094     1.0  0.57206  0.23200  0.59523  1.0000
  H   H4095     1.0  0.70665  0.32573  0.59960  1.0000
  C   C3414     1.0  0.66753  0.43204  0.64292  1.0000
  S   S935      1.0  0.73450  0.31073  0.62161  1.0000
  H   H4096     1.0  0.70871  0.47517  0.65038  1.0000
  H   H4097     1.0  0.73305  0.22065  0.71999  1.0000
  H   H4098     1.0  0.69606  0.31031  0.69539  1.0000
  S   S936      1.0  0.51674  0.27025  0.57995  1.0000
  H   H4099     1.0  0.67758  0.29385  0.62829  1.0000
  H   H4100     1.0  0.66016  0.24851  0.76563  1.0000
  H   H4101     1.0  0.60691  0.23985  0.77506  1.0000
  C   C3415     1.0  0.71934  0.41191  0.67068  1.0000
  H   H4102     1.0  0.57374  0.46795  0.71216  1.0000
  C   C3416     1.0  0.51334  0.35643  0.58847  1.0000
  H   H4103     1.0  0.72814  0.16474  0.77477  1.0000
  H   H4104     1.0  0.51152  0.27754  0.63152  1.0000
  C   C3417     1.0  0.69995  0.37097  0.67141  1.0000
  C   C3418     1.0  0.71069  0.28476  0.69160  1.0000
  H   H4105     1.0  0.72451  0.22603  0.66365  1.0000
  Fe  Fe472     1.0  0.63370  0.43934  0.65607  1.0000
  H   H4106     1.0  0.72023  0.26387  0.71033  1.0000
  H   H4107     1.0  0.49500  0.33688  0.64332  1.0000
  C   C3419     1.0  0.69259  0.17451  0.74609  1.0000
  H   H4108     1.0  0.68915  0.39313  0.66783  1.0000
  H   H4109     1.0  0.67146  0.31285  0.62249  1.0000
  H   H4110     1.0  0.62169  0.21176  0.69191  1.0000
  H   H4111     1.0  0.63125  0.27049  0.77029  1.0000
  H   H4112     1.0  0.63546  0.19120  0.69806  1.0000
  H   H4113     1.0  0.68405  0.20089  0.62779  1.0000
  C   C3420     1.0  0.70456  0.41580  0.67495  1.0000
  C   C3421     1.0  0.72001  0.39072  0.69066  1.0000
  C   C3422     1.0  0.68843  0.09305  0.73873  1.0000
  C   C3423     1.0  0.63094  0.21641  0.70714  1.0000
  C   C3424     1.0  0.62045  0.21844  0.69924  1.0000
  C   C3425     1.0  0.62879  0.22665  0.71547  1.0000
  C   C3426     1.0  0.60834  0.22959  0.70011  1.0000
  H   H4114     1.0  0.67406  0.31118  0.58984  1.0000
  C   C3427     1.0  0.60651  0.23933  0.70844  1.0000
  C   C3428     1.0  0.69139  0.21637  0.70844  1.0000
  H   H4115     1.0  0.65284  0.19261  0.76697  1.0000
  H   H4116     1.0  0.60063  0.23108  0.69377  1.0000
  H   H4117     1.0  0.68436  0.46637  0.64364  1.0000
  C   C3429     1.0  0.72375  0.36538  0.65688  1.0000
  H   H4118     1.0  0.73296  0.16692  0.67619  1.0000
  H   H4119     1.0  0.68601  0.42062  0.65151  1.0000
  H   H4120     1.0  0.66976  0.30049  0.61318  1.0000
  C   C3430     1.0  0.68519  0.44937  0.62330  1.0000
  C   C3431     1.0  0.70328  0.20686  0.71287  1.0000
  C   C3432     1.0  0.70048  0.30390  0.61850  1.0000
  S   S937      1.0  0.73513  0.30060  0.58788  1.0000
  C   C3433     1.0  0.71373  0.23136  0.66153  1.0000
  H   H4121     1.0  0.73184  0.25106  0.73003  1.0000
  H   H4122     1.0  0.66049  0.17124  0.66805  1.0000
  H   H4123     1.0  0.71002  0.19446  0.62186  1.0000
  C   C3434     1.0  0.65213  0.20225  0.71693  1.0000
  H   H4124     1.0  0.59737  0.24829  0.70864  1.0000
  S   S938      1.0  0.67264  0.14191  0.76600  1.0000
  C   C3435     1.0  0.53642  0.27692  0.69258  1.0000
  H   H4125     1.0  0.62405  0.16966  0.75735  1.0000
  H   H4126     1.0  0.70054  0.29459  0.62779  1.0000
  N   N228      1.0  0.55072  0.27560  0.68281  1.0000
  H   H4127     1.0  0.51603  0.36067  0.59603  1.0000
  H   H4128     1.0  0.72396  0.40442  0.62739  1.0000
  C   C3436     1.0  0.69676  0.07668  0.76430  1.0000
  H   H4129     1.0  0.69197  0.45607  0.61573  1.0000
  S   S939      1.0  0.68627  0.29286  0.76892  1.0000
  H   H4130     1.0  0.72598  0.25258  0.67322  1.0000
  H   H4131     1.0  0.63066  0.20798  0.76498  1.0000
  H   H4132     1.0  0.68401  0.09461  0.77349  1.0000
  C   C3437     1.0  0.69669  0.33915  0.58293  1.0000
  H   H4133     1.0  0.72769  0.38047  0.62201  1.0000
  H   H4134     1.0  0.66352  0.20027  0.69027  1.0000
  C   C3438     1.0  0.50518  0.29506  0.64227  1.0000
  H   H4135     1.0  0.54472  0.29604  0.62793  1.0000
  H   H4136     1.0  0.61524  0.24557  0.72248  1.0000
  S   S940      1.0  0.68047  0.26258  0.63813  1.0000
  C   C3439     1.0  0.61134  0.20450  0.74375  1.0000
  C   C3440     1.0  0.50565  0.36413  0.63900  1.0000
  C   C3441     1.0  0.68410  0.15363  0.76167  1.0000
  N   N229      1.0  0.66985  0.43060  0.59148  1.0000
  H   H4137     1.0  0.68586  0.41052  0.69030  1.0000
  C   C3442     1.0  0.49628  0.36635  0.62998  1.0000
  H   H4138     1.0  0.58674  0.27758  0.61329  1.0000
  H   H4139     1.0  0.65256  0.34879  0.73286  1.0000
  H   H4140     1.0  0.71180  0.30304  0.61255  1.0000
  H   H4141     1.0  0.48995  0.31078  0.67844  1.0000
  H   H4142     1.0  0.59221  0.44875  0.70482  1.0000
  S   S941      1.0  0.64371  0.44724  0.63300  1.0000
  H   H4143     1.0  0.65014  0.23580  0.75060  1.0000
  H   H4144     1.0  0.49882  0.32412  0.63266  1.0000
  S   S942      1.0  0.69786  0.23453  0.58671  1.0000
  C   C3443     1.0  0.54247  0.27466  0.66146  1.0000
  C   C3444     1.0  0.62609  0.20251  0.76005  1.0000
  H   H4145     1.0  0.63747  0.36926  0.72024  1.0000
  Fe  Fe473     1.0  0.62128  0.44854  0.68441  1.0000
  H   H4146     1.0  0.55378  0.29451  0.68723  1.0000
  C   C3445     1.0  0.63898  0.16308  0.77611  1.0000
  H   H4147     1.0  0.71183  0.36594  0.70816  1.0000
  S   S943      1.0  0.49981  0.29115  0.60228  1.0000
  C   C3446     1.0  0.73321  0.40005  0.63265  1.0000
  H   H4148     1.0  0.70339  0.20338  0.72421  1.0000
  C   C3447     1.0  0.55215  0.29914  0.64489  1.0000
  H   H4149     1.0  0.65691  0.21149  0.71558  1.0000
  H   H4150     1.0  0.73160  0.40594  0.64117  1.0000
  H   H4151     1.0  0.61014  0.35860  0.69503  1.0000
  Fe  Fe474     1.0  0.72258  0.44483  0.61507  1.0000
  N   N230      1.0  0.66553  0.18992  0.65198  1.0000
  C   C3448     1.0  0.65961  0.18605  0.64186  1.0000
  C   C3449     1.0  0.65905  0.18299  0.66678  1.0000
  C   C3450     1.0  0.66089  0.20567  0.65076  1.0000
  C   C3451     1.0  0.68131  0.18553  0.64833  1.0000
  C   C3452     1.0  0.68919  0.17395  0.65709  1.0000
  C   C3453     1.0  0.68928  0.19254  0.63538  1.0000
  C   C3454     1.0  0.70409  0.17003  0.65321  1.0000
  C   C3455     1.0  0.70419  0.18877  0.63178  1.0000
  C   C3456     1.0  0.71158  0.17756  0.64071  1.0000
  H   H4152     1.0  0.64770  0.18915  0.64426  1.0000
  H   H4153     1.0  0.66339  0.19149  0.63055  1.0000
  H   H4154     1.0  0.64733  0.18728  0.66954  1.0000
  H   H4155     1.0  0.66372  0.18471  0.67489  1.0000
  H   H4156     1.0  0.66354  0.21182  0.63953  1.0000
  H   H4157     1.0  0.64907  0.20913  0.65417  1.0000
  H   H4158     1.0  0.66595  0.20927  0.65734  1.0000
  H   H4159     1.0  0.68413  0.16765  0.66696  1.0000
  H   H4160     1.0  0.70987  0.16102  0.65993  1.0000
  H   H4161     1.0  0.72312  0.17452  0.63782  1.0000
  N   N231      1.0  0.62276  0.36989  0.70046  1.0000
  C   C3457     1.0  0.61046  0.37545  0.71135  1.0000
  C   C3458     1.0  0.63065  0.38140  0.69272  1.0000
  C   C3459     1.0  0.61697  0.36657  0.68984  1.0000
  C   C3460     1.0  0.63223  0.35737  0.70773  1.0000
  C   C3461     1.0  0.63897  0.35897  0.71780  1.0000
  C   C3462     1.0  0.63474  0.34332  0.70546  1.0000
  C   C3463     1.0  0.64767  0.34729  0.72511  1.0000
  C   C3464     1.0  0.64352  0.33172  0.71279  1.0000
  C   C3465     1.0  0.64996  0.33369  0.72259  1.0000
  H   H4162     1.0  0.61380  0.37954  0.71892  1.0000
  H   H4163     1.0  0.60275  0.38453  0.70628  1.0000
  H   H4164     1.0  0.64045  0.37747  0.68496  1.0000
  H   H4165     1.0  0.63403  0.38577  0.70005  1.0000
  H   H4166     1.0  0.62396  0.39071  0.68663  1.0000
  S   S944      1.0  0.64371  0.44253  0.67213  1.0000
  N   N232      1.0  0.70366  0.22169  0.66757  1.0000
  N   N233      1.0  0.64389  0.20473  0.70581  1.0000
  C   C3466     1.0  0.71398  0.27537  0.65195  1.0000
  H   H4167     1.0  0.62997  0.34088  0.69819  1.0000
  C   C3467     1.0  0.72769  0.24552  0.68337  1.0000
  H   H4168     1.0  0.64520  0.32109  0.71095  1.0000
  H   H4169     1.0  0.65666  0.32466  0.72832  1.0000
  H   H4170     1.0  0.69038  0.28960  0.59672  1.0000
  C   C3468     1.0  0.72643  0.29233  0.71863  1.0000
  C   C3469     1.0  0.63762  0.47648  0.69001  1.0000
  C   C3470     1.0  0.71994  0.11026  0.76864  1.0000
  C   C3471     1.0  0.67773  0.42321  0.60309  1.0000
  C   C3472     1.0  0.70158  0.30381  0.70416  1.0000
  H   H4171     1.0  0.70869  0.40130  0.64943  1.0000
  C   C3473     1.0  0.73601  0.32580  0.77585  1.0000
  H   H4172     1.0  0.73104  0.33120  0.72774  1.0000
  C   C3474     1.0  0.72308  0.38003  0.64988  1.0000
  C   C3475     1.0  0.68401  0.09864  0.75108  1.0000
  C   C3476     1.0  0.56595  0.44001  0.68577  1.0000
  C   C3477     1.0  0.72743  0.13205  0.74435  1.0000
  N   N234      1.0  0.60469  0.30335  0.64212  1.0000
  C   C3478     1.0  0.61128  0.31083  0.64866  1.0000
  C   C3479     1.0  0.60083  0.31334  0.62890  1.0000
  C   C3480     1.0  0.59140  0.30039  0.65251  1.0000
  C   C3481     1.0  0.61413  0.28988  0.63843  1.0000
  C   C3482     1.0  0.62829  0.28482  0.64065  1.0000
  C   C3483     1.0  0.60935  0.28158  0.63199  1.0000
  C   C3484     1.0  0.63696  0.27217  0.63680  1.0000
  C   C3485     1.0  0.61812  0.26899  0.62813  1.0000
  C   C3486     1.0  0.63188  0.26427  0.63057  1.0000
  H   H4173     1.0  0.62104  0.31402  0.64125  1.0000
  H   H4174     1.0  0.60385  0.32081  0.65142  1.0000
  H   H4175     1.0  0.61403  0.30406  0.65895  1.0000
  H   H4176     1.0  0.61051  0.31525  0.62046  1.0000
  H   H4177     1.0  0.59442  0.32394  0.63098  1.0000
  H   H4178     1.0  0.59416  0.30932  0.62434  1.0000
  H   H4179     1.0  0.59369  0.29361  0.66293  1.0000
  H   H4180     1.0  0.58382  0.31043  0.65488  1.0000
  H   H4181     1.0  0.58563  0.29475  0.64863  1.0000
  H   H4182     1.0  0.63283  0.29016  0.64575  1.0000
  H   H4183     1.0  0.59869  0.28465  0.63009  1.0000
  H   H4184     1.0  0.64758  0.26826  0.63901  1.0000
  H   H4185     1.0  0.61415  0.26268  0.62349  1.0000
  H   H4186     1.0  0.63855  0.25435  0.62782  1.0000
  C   C3487     1.0  0.72538  0.23854  0.77640  1.0000
  C   C3488     1.0  0.61667  0.23783  0.71614  1.0000
  H   H4187     1.0  0.56817  0.25867  0.67663  1.0000
  H   H4188     1.0  0.71961  0.20363  0.66070  1.0000
  H   H4189     1.0  0.53609  0.27431  0.64265  1.0000
  H   H4190     1.0  0.64969  0.18202  0.70642  1.0000
  H   H4191     1.0  0.57658  0.43895  0.67899  1.0000
  C   C3489     1.0  0.71517  0.20212  0.70270  1.0000
  C   C3490     1.0  0.73435  0.15484  0.73634  1.0000
  C   C3491     1.0  0.61742  0.21093  0.75057  1.0000
  H   H4192     1.0  0.71117  0.25919  0.62724  1.0000
  H   H4193     1.0  0.60461  0.21105  0.73641  1.0000
  H   H4194     1.0  0.70386  0.98256  0.77205  1.0000
  H   H4195     1.0  0.67727  0.10921  0.75090  1.0000
  H   H4196     1.0  0.70553  0.25024  0.69406  1.0000
  S   S945      1.0  0.72283  0.33947  0.76866  1.0000
  N   N235      1.0  0.57174  0.45502  0.69899  1.0000
  H   H4197     1.0  0.71316  0.34977  0.67288  1.0000
  C   C3492     1.0  0.54096  0.27988  0.64725  1.0000
  H   H4198     1.0  0.72552  0.37348  0.58457  1.0000
  C   C3493     1.0  0.68996  0.31666  0.59733  1.0000
  C   C3494     1.0  0.68389  0.44994  0.58254  1.0000
  C   C3495     1.0  0.69888  0.38540  0.66473  1.0000
  H   H4199     1.0  0.56999  0.28269  0.68020  1.0000
  C   C3496     1.0  0.69842  0.32697  0.59400  1.0000
  H   H4200     1.0  0.58129  0.43566  0.71232  1.0000
  H   H4201     1.0  0.51601  0.30518  0.66353  1.0000
  N   N236      1.0  0.73170  0.14319  0.73161  1.0000
  C   C3497     1.0  0.51189  0.31464  0.65553  1.0000
  C   C3498     1.0  0.50409  0.28218  0.64016  1.0000
  H   H4202     1.0  0.71492  0.23521  0.64971  1.0000
  H   H4203     1.0  0.52981  0.27073  0.69052  1.0000
  H   H4204     1.0  0.72489  0.20329  0.68061  1.0000
  C   C3499     1.0  0.69716  0.29091  0.60320  1.0000
  H   H4205     1.0  0.51287  0.32443  0.65819  1.0000
  N   N237      1.0  0.71476  0.29370  0.69881  1.0000
  C   C3500     1.0  0.55801  0.26022  0.68476  1.0000
  C   C3501     1.0  0.64014  0.19100  0.70699  1.0000
  H   H4206     1.0  0.58432  0.47073  0.68704  1.0000
  H   H4207     1.0  0.56073  0.27812  0.69839  1.0000
  H   H4208     1.0  0.72384  0.24346  0.76561  1.0000
  H   H4209     1.0  0.72752  0.07525  0.72283  1.0000
  H   H4210     1.0  0.70433  0.40704  0.57998  1.0000
  H   H4211     1.0  0.68245  0.47391  0.65856  1.0000
  C   C3502     1.0  0.68523  0.16369  0.74858  1.0000
  H   H4212     1.0  0.70877  0.46615  0.63702  1.0000
  H   H4213     1.0  0.58171  0.46042  0.67641  1.0000
  H   H4214     1.0  0.66720  0.47989  0.73653  1.0000
  C   C3503     1.0  0.55914  0.28308  0.68728  1.0000
  C   C3504     1.0  0.54911  0.28145  0.66777  1.0000
  H   H4215     1.0  0.51659  0.36514  0.63442  1.0000
  S   S946      1.0  0.70847  0.43464  0.63484  1.0000
  H   H4216     1.0  0.55862  0.30011  0.66301  1.0000
  H   H4217     1.0  0.64529  0.28664  0.76890  1.0000
  H   H4218     1.0  0.62567  0.36243  0.68124  1.0000
  C   C3505     1.0  0.71517  0.14000  0.69069  1.0000
  H   H4219     1.0  0.70081  0.07500  0.72958  1.0000
  H   H4220     1.0  0.67982  0.16364  0.74064  1.0000
  C   C3506     1.0  0.59913  0.28481  0.59217  1.0000
  C   C3507     1.0  0.69896  0.17513  0.75666  1.0000
  H   H4221     1.0  0.69866  0.42533  0.66891  1.0000
  C   C3508     1.0  0.68982  0.27242  0.65591  1.0000
  H   H4222     1.0  0.66630  0.46137  0.61539  1.0000
  C   C3509     1.0  0.48768  0.31923  0.66883  1.0000
  C   C3510     1.0  0.68032  0.31892  0.58841  1.0000
  C   C3511     1.0  0.71025  0.38995  0.65412  1.0000
  C   C3512     1.0  0.70857  0.20962  0.66008  1.0000
  S   S947      1.0  0.71716  0.46292  0.59675  1.0000
  Fe  Fe475     1.0  0.68775  0.25230  0.61923  1.0000
  H   H4223     1.0  0.55588  0.30868  0.63844  1.0000
  H   H4224     1.0  0.53856  0.26512  0.66740  1.0000
  H   H4225     1.0  0.64528  0.20014  0.72793  1.0000
  N   N238      1.0  0.73524  0.38433  0.63849  1.0000
  C   C3513     1.0  0.66188  0.44358  0.63285  1.0000
  C   C3514     1.0  0.56161  0.44803  0.69661  1.0000
  H   H4226     1.0  0.68125  0.22363  0.66922  1.0000
  H   H4227     1.0  0.56410  0.28362  0.60538  1.0000
  C   C3515     1.0  0.71956  0.36991  0.71140  1.0000
  Fe  Fe476     1.0  0.50236  0.29205  0.57907  1.0000
  C   C3516     1.0  0.61393  0.18963  0.74637  1.0000
  S   S948      1.0  0.70465  0.19052  0.75562  1.0000
  H   H4228     1.0  0.71356  0.37663  0.71936  1.0000
  H   H4229     1.0  0.49063  0.32201  0.59589  1.0000
  C   C3517     1.0  0.69741  0.07939  0.73909  1.0000
  C   C3518     1.0  0.53838  0.44147  0.70269  1.0000
  C   C3519     1.0  0.54585  0.29205  0.63896  1.0000
  C   C3520     1.0  0.69738  0.40741  0.68697  1.0000
  S   S949      1.0  0.61118  0.44689  0.66748  1.0000
  C   C3521     1.0  0.72388  0.27013  0.71526  1.0000
  C   C3522     1.0  0.66621  0.41937  0.58687  1.0000
  C   C3523     1.0  0.65631  0.43986  0.59748  1.0000
  H   H4230     1.0  0.69019  0.23294  0.65243  1.0000
  H   H4231     1.0  0.70588  0.29141  0.68240  1.0000
  C   C3524     1.0  0.70315  0.21637  0.68315  1.0000
  H   H4232     1.0  0.53718  0.27279  0.70404  1.0000
  C   C3525     1.0  0.69126  0.22114  0.69382  1.0000
  C   C3526     1.0  0.64258  0.23324  0.76058  1.0000
  H   H4233     1.0  0.72694  0.31015  0.69184  1.0000
  H   H4234     1.0  0.64951  0.43361  0.60656  1.0000
  H   H4235     1.0  0.73310  0.39026  0.71075  1.0000
  C   C3527     1.0  0.56573  0.46286  0.71080  1.0000
  C   C3528     1.0  0.50076  0.36095  0.65392  1.0000
  H   H4236     1.0  0.56253  0.45553  0.72128  1.0000
  C   C3529     1.0  0.72667  0.14671  0.68509  1.0000
  S   S950      1.0  0.61210  0.46825  0.69425  1.0000
  H   H4237     1.0  0.55639  0.47166  0.70859  1.0000
  N   N239      1.0  0.49694  0.31516  0.65537  1.0000
  H   H4238     1.0  0.66130  0.19286  0.71621  1.0000
  C   C3530     1.0  0.49569  0.30136  0.65355  1.0000
  C   C3531     1.0  0.71237  0.36099  0.66755  1.0000
  H   H4239     1.0  0.70993  0.24101  0.66625  1.0000
  H   H4240     1.0  0.72346  0.11442  0.72094  1.0000
  H   H4241     1.0  0.71694  0.12845  0.69310  1.0000
  N   N240      1.0  0.69115  0.30386  0.60924  1.0000
  C   C3532     1.0  0.73344  0.11325  0.76517  1.0000
  H   H4242     1.0  0.68183  0.22877  0.69112  1.0000
  Fe  Fe477     1.0  0.71072  0.23227  0.60280  1.0000
  C   C3533     1.0  0.67071  0.45229  0.62303  1.0000
  C   C3534     1.0  0.70795  0.26419  0.63631  1.0000
  H   H4243     1.0  0.51342  0.30017  0.63485  1.0000
  H   H4244     1.0  0.71825  0.14146  0.71885  1.0000
  S   S951      1.0  0.65220  0.12962  0.74413  1.0000
  H   H4245     1.0  0.63241  0.18809  0.71724  1.0000
  S   S952      1.0  0.68308  0.10318  0.72276  1.0000
  H   H4246     1.0  0.66279  0.17432  0.64237  1.0000
  H   H4247     1.0  0.64814  0.20931  0.68277  1.0000
  C   C3535     1.0  0.70131  0.14823  0.69364  1.0000
  H   H4248     1.0  0.69245  0.14299  0.69792  1.0000
  H   H4249     1.0  0.70944  0.23435  0.71722  1.0000
  S   S953      1.0  0.64585  0.27862  0.72801  1.0000
  C   C3536     1.0  0.68185  0.42938  0.64345  1.0000
  H   H4250     1.0  0.53051  0.28831  0.69131  1.0000
  S   S954      1.0  0.67242  0.25588  0.60536  1.0000
  H   H4251     1.0  0.69857  0.38909  0.70393  1.0000
  C   C3537     1.0  0.71004  0.11816  0.76038  1.0000
  S   S955      1.0  0.62148  0.25062  0.74686  1.0000
  C   C3538     1.0  0.58653  0.28240  0.60210  1.0000
  C   C3539     1.0  0.71804  0.26876  0.64028  1.0000
  C   C3540     1.0  0.55687  0.43278  0.68366  1.0000
  C   C3541     1.0  0.55371  0.29403  0.65910  1.0000
  H   H4252     1.0  0.68186  0.45153  0.59328  1.0000
  H   H4253     1.0  0.66012  0.41253  0.59606  1.0000
  C   C3542     1.0  0.70490  0.39503  0.69474  1.0000
  H   H4254     1.0  0.63633  0.22640  0.72147  1.0000
  H   H4255     1.0  0.73449  0.07605  0.73707  1.0000
  C   C3543     1.0  0.62797  0.23897  0.76149  1.0000
  H   H4256     1.0  0.73641  0.29033  0.73589  1.0000
  H   H4257     1.0  0.72488  0.41859  0.66139  1.0000
  H   H4258     1.0  0.64293  0.46628  0.68721  1.0000
  H   H4259     1.0  0.65611  0.21883  0.69010  1.0000
  C   C3544     1.0  0.71365  0.12894  0.74845  1.0000
  H   H4260     1.0  0.60920  0.18463  0.74104  1.0000
  S   S956      1.0  0.72617  0.28220  0.65640  1.0000
  C   C3545     1.0  0.65936  0.25996  0.76522  1.0000
  C   C3546     1.0  0.57642  0.46548  0.68572  1.0000
  C   C3547     1.0  0.67686  0.30280  0.61864  1.0000
  H   H4261     1.0  0.54315  0.45448  0.71345  1.0000
  H   H4262     1.0  0.72455  0.15763  0.71297  1.0000
  C   C3548     1.0  0.72422  0.16167  0.68151  1.0000
  C   C3549     1.0  0.72330  0.10287  0.72512  1.0000
  H   H4263     1.0  0.58764  0.23310  0.59954  1.0000
  H   H4264     1.0  0.71079  0.15555  0.72870  1.0000
  C   C3550     1.0  0.62252  0.18110  0.75591  1.0000
  C   C3551     1.0  0.72081  0.14968  0.72273  1.0000
  C   C3552     1.0  0.68795  0.09039  0.76387  1.0000
  H   H4265     1.0  0.69822  0.28110  0.61188  1.0000
  H   H4266     1.0  0.65507  0.26651  0.75568  1.0000
  H   H4267     1.0  0.56869  0.25782  0.58547  1.0000
  H   H4268     1.0  0.48931  0.32934  0.67017  1.0000
  H   H4269     1.0  0.66097  0.28125  0.77572  1.0000
  H   H4270     1.0  0.65000  0.44560  0.58916  1.0000
  H   H4271     1.0  0.70879  0.21342  0.64837  1.0000
  H   H4272     1.0  0.58870  0.22027  0.58938  1.0000
  H   H4273     1.0  0.70537  0.13478  0.74274  1.0000
  H   H4274     1.0  0.61535  0.22253  0.74857  1.0000
  C   C3553     1.0  0.58439  0.44400  0.70267  1.0000
  H   H4275     1.0  0.72010  0.30783  0.67816  1.0000
  C   C3554     1.0  0.70176  0.07129  0.75180  1.0000
  H   H4276     1.0  0.67600  0.41212  0.58206  1.0000
  H   H4277     1.0  0.68613  0.24022  0.66770  1.0000
  H   H4278     1.0  0.72495  0.30385  0.71605  1.0000
  H   H4279     1.0  0.69397  0.29795  0.71250  1.0000
  H   H4280     1.0  0.70143  0.20191  0.66461  1.0000
  H   H4281     1.0  0.65869  0.21986  0.77208  1.0000
  H   H4282     1.0  0.70370  0.31149  0.70907  1.0000
  C   C3555     1.0  0.72462  0.30197  0.68776  1.0000
  H   H4283     1.0  0.73306  0.35718  0.65405  1.0000
  H   H4284     1.0  0.70846  0.06066  0.75210  1.0000
  H   H4285     1.0  0.71611  0.42459  0.58304  1.0000
  H   H4286     1.0  0.51925  0.31420  0.64490  1.0000
  H   H4287     1.0  0.71371  0.10128  0.72272  1.0000
  C   C3556     1.0  0.68969  0.22987  0.66420  1.0000
  C   C3557     1.0  0.72697  0.39956  0.67838  1.0000
  Fe  Fe478     1.0  0.69145  0.25793  0.58720  1.0000
  H   H4288     1.0  0.70329  0.34685  0.58048  1.0000
  H   H4289     1.0  0.72148  0.10051  0.73702  1.0000
  H   H4290     1.0  0.62313  0.29724  0.58064  1.0000
  Fe  Fe479     1.0  0.73551  0.47073  0.59884  1.0000
  H   H4291     1.0  0.72013  0.27696  0.68716  1.0000
  C   C3558     1.0  0.71620  0.24422  0.69506  1.0000
  C   C3559     1.0  0.73216  0.22746  0.70958  1.0000
  C   C3560     1.0  0.65249  0.18138  0.76766  1.0000
  C   C3561     1.0  0.73298  0.33108  0.70568  1.0000
  H   H4292     1.0  0.72450  0.19487  0.70615  1.0000
  C   C3562     1.0  0.49342  0.27527  0.64904  1.0000
  H   H4293     1.0  0.73326  0.30900  0.76786  1.0000
  C   C3563     1.0  0.68210  0.47671  0.64699  1.0000
  H   H4294     1.0  0.72913  0.36414  0.68527  1.0000
  H   H4295     1.0  0.72616  0.36027  0.71720  1.0000
  Fe  Fe480     1.0  0.73346  0.44900  0.58271  1.0000
  C   C3564     1.0  0.71845  0.23523  0.70813  1.0000
  H   H4296     1.0  0.73339  0.23516  0.62019  1.0000
  C   C3565     1.0  0.73302  0.28469  0.73002  1.0000
  H   H4297     1.0  0.72706  0.09347  0.70159  1.0000
  H   H4298     1.0  0.72474  0.15958  0.74377  1.0000
  H   H4299     1.0  0.69939  0.11607  0.76328  1.0000
  C   C3566     1.0  0.62876  0.18734  0.76319  1.0000
  C   C3567     1.0  0.49615  0.34741  0.58183  1.0000
  C   C3568     1.0  0.69139  0.15363  0.77173  1.0000
  H   H4300     1.0  0.69282  0.47881  0.61937  1.0000
  H   H4301     1.0  0.72482  0.99077  0.73309  1.0000
  H   H4302     1.0  0.64399  0.15897  0.76613  1.0000
  H   H4303     1.0  0.65935  0.42412  0.57889  1.0000
  H   H4304     1.0  0.73494  0.29476  0.68398  1.0000
  H   H4305     1.0  0.63544  0.22590  0.57777  1.0000
  H   H4306     1.0  0.65994  0.17440  0.77457  1.0000
  C   C3569     1.0  0.69892  0.16430  0.76917  1.0000
  S   S957      1.0  0.73152  0.03450  0.76463  1.0000
  C   C3570     1.0  0.73055  0.26258  0.72663  1.0000
  C   C3571     1.0  0.61822  0.23550  0.77438  1.0000
  C   C3572     1.0  0.73628  0.07846  0.72517  1.0000
  C   C3573     1.0  0.48651  0.35980  0.65972  1.0000
  H   H4307     1.0  0.73634  0.10749  0.69744  1.0000
  H   H4308     1.0  0.70377  0.16473  0.77741  1.0000
  H   H4309     1.0  0.62811  0.27916  0.57772  1.0000
  C   C3574     1.0  0.72900  0.22637  0.80447  1.0000
  H   H4310     1.0  0.63850  0.17632  0.79554  1.0000
  H   H4311     1.0  0.64399  0.28256  0.78801  1.0000
  H   H4312     1.0  0.72655  0.25940  0.80359  1.0000
  H   H4313     1.0  0.72343  0.06224  0.82991  1.0000
  H   H4314     1.0  0.71724  0.13949  0.89734  1.0000
  H   H4315     1.0  0.69391  0.09057  0.79585  1.0000
  H   H4316     1.0  0.70621  0.05582  0.82190  1.0000
  H   H4317     1.0  0.67941  0.13188  0.80600  1.0000
  H   H4318     1.0  0.62835  0.16030  0.78065  1.0000
  C   C3575     1.0  0.72479  0.30692  0.81545  1.0000
  H   H4319     1.0  0.72641  0.09770  0.95344  1.0000
  H   H4320     1.0  0.70662  0.22965  0.78304  1.0000
  H   H4321     1.0  0.69075  0.27507  0.79775  1.0000
  H   H4322     1.0  0.70448  0.30813  0.79303  1.0000
  N   N241      1.0  0.65039  0.26408  0.77869  1.0000
  H   H4323     1.0  0.68722  0.24579  0.80353  1.0000
  C   C3576     1.0  0.72087  0.07504  0.80336  1.0000
  S   S958      1.0  0.68362  0.21522  0.78465  1.0000
  Fe  Fe481     1.0  0.69434  0.20537  0.80329  1.0000
  S   S959      1.0  0.67672  0.19494  0.81768  1.0000
  S   S960      1.0  0.70503  0.21586  0.81316  1.0000
  Fe  Fe482     1.0  0.68847  0.17618  0.80777  1.0000
  S   S961      1.0  0.69322  0.15294  0.81857  1.0000
  Fe  Fe483     1.0  0.66688  0.20316  0.79846  1.0000
  S   S962      1.0  0.64323  0.21082  0.80134  1.0000
  S   S963      1.0  0.70707  0.18584  0.79505  1.0000
  H   H4324     1.0  0.73056  0.19336  0.81177  1.0000
  H   H4325     1.0  0.67433  0.22860  0.82186  1.0000
  C   C3577     1.0  0.67656  0.24567  0.80308  1.0000
  S   S964      1.0  0.67686  0.18341  0.78999  1.0000
  C   C3578     1.0  0.65652  0.25463  0.79091  1.0000
  H   H4326     1.0  0.69050  0.29328  0.79608  1.0000
  Fe  Fe484     1.0  0.72136  0.04969  0.77947  1.0000
  N   N242      1.0  0.71048  0.27865  0.79938  1.0000
  C   C3579     1.0  0.71560  0.31245  0.80605  1.0000
  H   H4327     1.0  0.61545  0.22431  0.79654  1.0000
  C   C3580     1.0  0.63763  0.22124  0.78576  1.0000
  C   C3581     1.0  0.71702  0.14664  0.85344  1.0000
  H   H4328     1.0  0.71071  0.25642  0.80147  1.0000
  C   C3582     1.0  0.71075  0.13711  0.83674  1.0000
  C   C3583     1.0  0.70193  0.15040  0.83237  1.0000
  C   C3584     1.0  0.70054  0.16174  0.83868  1.0000
  C   C3585     1.0  0.70784  0.15976  0.84946  1.0000
  S   S965      1.0  0.72647  0.03325  0.79911  1.0000
  H   H4329     1.0  0.71185  0.12828  0.83194  1.0000
  H   H4330     1.0  0.69367  0.17198  0.83545  1.0000
  H   H4331     1.0  0.70654  0.16846  0.85452  1.0000
  C   C3586     1.0  0.70034  0.10201  0.82232  1.0000
  H   H4332     1.0  0.65044  0.22742  0.82046  1.0000
  H   H4333     1.0  0.68966  0.28137  0.81343  1.0000
  C   C3587     1.0  0.71738  0.22486  0.80036  1.0000
  C   C3588     1.0  0.71856  0.13533  0.84702  1.0000
  C   C3589     1.0  0.64947  0.24451  0.80162  1.0000
  H   H4334     1.0  0.68061  0.11541  0.79094  1.0000
  H   H4335     1.0  0.71410  0.14346  0.91469  1.0000
  H   H4336     1.0  0.71371  0.27351  0.77883  1.0000
  C   C3590     1.0  0.72448  0.28284  0.81506  1.0000
  H   H4337     1.0  0.71247  0.32396  0.80225  1.0000
  C   C3591     1.0  0.69241  0.11609  0.81948  1.0000
  H   H4338     1.0  0.72338  0.18231  0.83498  1.0000
  H   H4339     1.0  0.73106  0.16504  0.80798  1.0000
  H   H4340     1.0  0.62821  0.26625  0.78954  1.0000
  C   C3592     1.0  0.71525  0.28814  0.80529  1.0000
  H   H4341     1.0  0.67653  0.26197  0.78399  1.0000
  H   H4342     1.0  0.63224  0.19418  0.78682  1.0000
  H   H4343     1.0  0.71632  0.07664  0.79393  1.0000
  C   C3593     1.0  0.72808  0.18916  0.83863  1.0000
  H   H4344     1.0  0.73044  0.22179  0.81533  1.0000
  H   H4345     1.0  0.72414  0.20056  0.83356  1.0000
  N   N243      1.0  0.70973  0.07730  0.81643  1.0000
  H   H4346     1.0  0.72378  0.10709  0.92863  1.0000
  C   C3594     1.0  0.71103  0.30325  0.80086  1.0000
  S   S966      1.0  0.72716  0.14467  0.86583  1.0000
  H   H4347     1.0  0.71904  0.15433  0.79707  1.0000
  C   C3595     1.0  0.68544  0.12091  0.80816  1.0000
  C   C3596     1.0  0.69469  0.28225  0.80181  1.0000
  C   C3597     1.0  0.68615  0.11161  0.79971  1.0000
  H   H4348     1.0  0.69542  0.06832  0.81047  1.0000
  H   H4349     1.0  0.71258  0.12644  0.91321  1.0000
  H   H4350     1.0  0.72840  0.27155  0.81894  1.0000
  H   H4351     1.0  0.72859  0.27834  0.78150  1.0000
  C   C3598     1.0  0.71707  0.07350  0.82850  1.0000
  C   C3599     1.0  0.71886  0.13488  0.90851  1.0000
  H   H4352     1.0  0.71060  0.26086  0.81775  1.0000
  C   C3600     1.0  0.67032  0.25488  0.79196  1.0000
  C   C3601     1.0  0.62304  0.22672  0.78651  1.0000
  H   H4353     1.0  0.72878  0.31409  0.81898  1.0000
  C   C3602     1.0  0.70026  0.06719  0.81963  1.0000
  C   C3603     1.0  0.66934  0.23593  0.81342  1.0000
  C   C3604     1.0  0.71672  0.28069  0.78373  1.0000
  H   H4354     1.0  0.70933  0.07439  0.83889  1.0000
  C   C3605     1.0  0.63209  0.18292  0.78749  1.0000
  C   C3606     1.0  0.71564  0.23075  0.78625  1.0000
  C   C3607     1.0  0.65586  0.23533  0.81265  1.0000
  H   H4355     1.0  0.72567  0.12516  0.85010  1.0000
  C   C3608     1.0  0.71477  0.26319  0.80592  1.0000
  C   C3609     1.0  0.72926  0.29216  0.81991  1.0000
  C   C3610     1.0  0.70132  0.09223  0.81390  1.0000
  H   H4356     1.0  0.63915  0.24317  0.80158  1.0000
  H   H4357     1.0  0.69139  0.06888  0.82909  1.0000
  H   H4358     1.0  0.69160  0.12335  0.82614  1.0000
  H   H4359     1.0  0.70555  0.09908  0.83120  1.0000
  C   C3611     1.0  0.69384  0.09744  0.80259  1.0000
  H   H4360     1.0  0.62086  0.18173  0.79192  1.0000
  H   H4361     1.0  0.72359  0.18792  0.85039  1.0000
  H   H4362     1.0  0.63500  0.25235  0.77950  1.0000
  C   C3612     1.0  0.73585  0.12365  0.92374  1.0000
  S   S967      1.0  0.70090  0.06642  0.78073  1.0000
  H   H4363     1.0  0.73386  0.10882  0.90508  1.0000
  H   H4364     1.0  0.72482  0.08033  0.82655  1.0000
  H   H4365     1.0  0.72401  0.13685  0.80716  1.0000
  C   C3613     1.0  0.72780  0.14459  0.79726  1.0000
  H   H4366     1.0  0.72824  0.08241  0.80055  1.0000
  C   C3614     1.0  0.63556  0.26326  0.77963  1.0000
  C   C3615     1.0  0.73276  0.98266  0.78375  1.0000
  H   H4367     1.0  0.72736  0.06389  0.80489  1.0000
  C   C3616     1.0  0.72022  0.98787  0.77858  1.0000
  H   H4368     1.0  0.64584  0.15688  0.78387  1.0000
  C   C3617     1.0  0.72966  0.11209  0.93265  1.0000
  H   H4369     1.0  0.72882  0.13995  0.78798  1.0000
  N   N244      1.0  0.73419  0.12920  0.90870  1.0000
  H   H4370     1.0  0.69066  0.14582  0.78182  1.0000
  H   H4371     1.0  0.73492  0.14787  0.81980  1.0000
  C   C3618     1.0  0.73104  0.10667  0.94690  1.0000
  H   H4372     1.0  0.71305  0.29181  0.77783  1.0000
  Fe  Fe485     1.0  0.69473  0.19447  0.77780  1.0000
  H   H4373     1.0  0.71708  0.10189  0.77782  1.0000
  C   C3619     1.0  0.65015  0.27925  0.77782  1.0000
  Fe  Fe486     1.0  0.68447  0.79075  0.11009  1.0000
  S   S968      1.0  0.69497  0.78519  0.12869  1.0000
  S   S969      1.0  0.68404  0.81176  0.09402  1.0000
  Fe  Fe487     1.0  0.67377  0.76305  0.11941  1.0000
  S   S970      1.0  0.68303  0.75526  0.13884  1.0000
  S   S971      1.0  0.66244  0.75036  0.11278  1.0000
  Fe  Fe488     1.0  0.67500  0.77787  0.14151  1.0000
  S   S972      1.0  0.66409  0.78119  0.16362  1.0000
  Fe  Fe489     1.0  0.70200  0.76319  0.12425  1.0000
  S   S973      1.0  0.72389  0.74965  0.12412  1.0000
  S   S974      1.0  0.66382  0.78511  0.12331  1.0000
  S   S975      1.0  0.69341  0.76936  0.10439  1.0000
  H   H4374     1.0  0.63349  0.64462  0.12598  1.0000
  C   C3620     1.0  0.71389  0.84512  0.09379  1.0000
  C   C3621     1.0  0.67490  0.69969  0.12920  1.0000
  S   S976      1.0  0.61927  0.71591  0.15891  1.0000
  H   H4375     1.0  0.69920  0.84326  0.12973  1.0000
  H   H4376     1.0  0.69881  0.85984  0.07421  1.0000
  C   C3622     1.0  0.67714  0.71652  0.17397  1.0000
  C   C3623     1.0  0.71797  0.65883  0.13135  1.0000
  H   H4377     1.0  0.72134  0.66644  0.13535  1.0000
  C   C3624     1.0  0.72708  0.76963  0.05114  1.0000
  H   H4378     1.0  0.63024  0.84935  0.17203  1.0000
  C   C3625     1.0  0.65705  0.82156  0.13444  1.0000
  H   H4379     1.0  0.70648  0.87491  0.08604  1.0000
  Fe  Fe490     1.0  0.68425  0.62179  0.15055  1.0000
  S   S977      1.0  0.68726  0.60639  0.13687  1.0000
  S   S978      1.0  0.66718  0.64185  0.14842  1.0000
  Fe  Fe491     1.0  0.69246  0.58955  0.15618  1.0000
  H   H4380     1.0  0.69891  0.72313  0.07342  1.0000
  C   C3626     1.0  0.61966  0.64974  0.16768  1.0000
  C   C3627     1.0  0.68050  0.70967  0.16258  1.0000
  H   H4381     1.0  0.73306  0.86603  0.14797  1.0000
  C   C3628     1.0  0.69938  0.73405  0.07273  1.0000
  S   S979      1.0  0.68173  0.84816  0.15871  1.0000
  C   C3629     1.0  0.73514  0.98048  0.11168  1.0000
  H   H4382     1.0  0.66327  0.59598  0.17082  1.0000
  S   S980      1.0  0.68136  0.87785  0.16745  1.0000
  H   H4383     1.0  0.65588  0.60905  0.13570  1.0000
  H   H4384     1.0  0.62757  0.81261  0.17287  1.0000
  C   C3630     1.0  0.66525  0.57331  0.17416  1.0000
  Fe  Fe492     1.0  0.69634  0.86331  0.15351  1.0000
  S   S981      1.0  0.70858  0.87096  0.13115  1.0000
  H   H4385     1.0  0.71038  0.65361  0.14040  1.0000
  S   S982      1.0  0.70875  0.85025  0.17009  1.0000
  H   H4386     1.0  0.67394  0.70272  0.16245  1.0000
  C   C3631     1.0  0.72635  0.73710  0.11396  1.0000
  H   H4387     1.0  0.62925  0.50967  0.16825  1.0000
  C   C3632     1.0  0.72693  0.90981  0.12555  1.0000
  C   C3633     1.0  0.59723  0.75230  0.17301  1.0000
  C   C3634     1.0  0.72472  0.89071  0.11617  1.0000
  C   C3635     1.0  0.71519  0.88621  0.12895  1.0000
  C   C3636     1.0  0.71156  0.89356  0.14002  1.0000
  C   C3637     1.0  0.71733  0.90540  0.13828  1.0000
  C   C3638     1.0  0.62752  0.83868  0.17525  1.0000
  H   H4388     1.0  0.71589  0.64680  0.11125  1.0000
  H   H4389     1.0  0.70437  0.89010  0.14995  1.0000
  H   H4390     1.0  0.71445  0.91104  0.14687  1.0000
  H   H4391     1.0  0.65010  0.63985  0.13178  1.0000
  C   C3639     1.0  0.62737  0.64470  0.15532  1.0000
  C   C3640     1.0  0.68765  0.75773  0.07659  1.0000
  C   C3641     1.0  0.71775  0.86966  0.08204  1.0000
  C   C3642     1.0  0.68559  0.72559  0.17451  1.0000
  H   H4392     1.0  0.68541  0.71405  0.11174  1.0000
  H   H4393     1.0  0.69477  0.70652  0.14248  1.0000
  N   N245      1.0  0.63659  0.62463  0.14159  1.0000
  S   S983      1.0  0.72853  0.85150  0.01979  1.0000
  H   H4394     1.0  0.73402  0.72058  0.16526  1.0000
  S   S984      1.0  0.73453  0.92426  0.12379  1.0000
  C   C3643     1.0  0.62181  0.62147  0.16687  1.0000
  C   C3644     1.0  0.71249  0.73814  0.06764  1.0000
  C   C3645     1.0  0.65766  0.64556  0.16508  1.0000
  C   C3646     1.0  0.65039  0.65959  0.16587  1.0000
  H   H4395     1.0  0.62257  0.61035  0.16722  1.0000
  N   N246      1.0  0.72630  0.97746  0.10363  1.0000
  C   C3647     1.0  0.64738  0.82931  0.15733  1.0000
  H   H4396     1.0  0.65021  0.66789  0.15618  1.0000
  H   H4397     1.0  0.73605  0.63283  0.08542  1.0000
  H   H4398     1.0  0.62765  0.78892  0.16377  1.0000
  C   C3648     1.0  0.64973  0.81918  0.14885  1.0000
  H   H4399     1.0  0.65559  0.61699  0.14994  1.0000
  C   C3649     1.0  0.71358  0.75222  0.06710  1.0000
  C   C3650     1.0  0.71143  0.97906  0.11209  1.0000
  N   N247      1.0  0.71894  0.85503  0.08025  1.0000
  C   C3651     1.0  0.68767  0.67495  0.13372  1.0000
  H   H4400     1.0  0.72935  0.95437  0.11096  1.0000
  H   H4401     1.0  0.70385  0.73900  0.11635  1.0000
  C   C3652     1.0  0.67382  0.78985  0.16932  1.0000
  H   H4402     1.0  0.60360  0.78982  0.16943  1.0000
  C   C3653     1.0  0.72996  0.75990  0.07552  1.0000
  H   H4403     1.0  0.72425  0.86948  0.08954  1.0000
  C   C3654     1.0  0.68791  0.80766  0.16437  1.0000
  C   C3655     1.0  0.68044  0.80053  0.15965  1.0000
  S   S985      1.0  0.68758  0.60496  0.17039  1.0000
  C   C3656     1.0  0.68701  0.74377  0.07734  1.0000
  H   H4404     1.0  0.69289  0.81600  0.15691  1.0000
  H   H4405     1.0  0.67957  0.80355  0.14858  1.0000
  C   C3657     1.0  0.65165  0.73972  0.12601  1.0000
  C   C3658     1.0  0.65304  0.73509  0.14035  1.0000
  C   C3659     1.0  0.64354  0.72716  0.15062  1.0000
  C   C3660     1.0  0.63257  0.72414  0.14653  1.0000
  C   C3661     1.0  0.63152  0.72850  0.13217  1.0000
  C   C3662     1.0  0.64107  0.73611  0.12195  1.0000
  H   H4406     1.0  0.66138  0.73761  0.14349  1.0000
  H   H4407     1.0  0.64447  0.72369  0.16171  1.0000
  H   H4408     1.0  0.62311  0.72616  0.12894  1.0000
  H   H4409     1.0  0.64000  0.73956  0.11090  1.0000
  C   C3663     1.0  0.69897  0.81148  0.07958  1.0000
  C   C3664     1.0  0.69930  0.82308  0.06770  1.0000
  C   C3665     1.0  0.71121  0.82295  0.05611  1.0000
  H   H4410     1.0  0.73587  0.83891  0.07115  1.0000
  H   H4411     1.0  0.72165  0.87681  0.07166  1.0000
  C   C3666     1.0  0.71069  0.79988  0.07995  1.0000
  H   H4412     1.0  0.69026  0.83209  0.06740  1.0000
  H   H4413     1.0  0.71130  0.83179  0.04684  1.0000
  H   H4414     1.0  0.71070  0.79112  0.08927  1.0000
  H   H4415     1.0  0.66815  0.83556  0.11699  1.0000
  H   H4416     1.0  0.66547  0.70793  0.13173  1.0000
  H   H4417     1.0  0.66816  0.75104  0.17536  1.0000
  C   C3667     1.0  0.70399  0.82573  0.11934  1.0000
  H   H4418     1.0  0.67801  0.76519  0.08041  1.0000
  H   H4419     1.0  0.65898  0.81365  0.12817  1.0000
  C   C3668     1.0  0.73416  0.84927  0.07419  1.0000
  H   H4420     1.0  0.70016  0.81834  0.12907  1.0000
  H   H4421     1.0  0.71212  0.84620  0.06644  1.0000
  H   H4422     1.0  0.72764  0.88503  0.10760  1.0000
  C   C3669     1.0  0.69747  0.72751  0.16285  1.0000
  C   C3670     1.0  0.71650  0.72441  0.10292  1.0000
  S   S986      1.0  0.70682  0.62410  0.14380  1.0000
  H   H4423     1.0  0.63257  0.65216  0.14671  1.0000
  H   H4424     1.0  0.73265  0.66226  0.10453  1.0000
  C   C3671     1.0  0.65255  0.84199  0.15038  1.0000
  H   H4425     1.0  0.64637  0.80916  0.15321  1.0000
  C   C3672     1.0  0.67570  0.68568  0.13716  1.0000
  C   C3673     1.0  0.70694  0.65585  0.11401  1.0000
  C   C3674     1.0  0.71043  0.85641  0.06971  1.0000
  H   H4426     1.0  0.72164  0.72993  0.06458  1.0000
  H   H4427     1.0  0.67692  0.74047  0.08168  1.0000
  C   C3675     1.0  0.69939  0.67798  0.12225  1.0000
  C   C3676     1.0  0.66226  0.83395  0.12808  1.0000
  C   C3677     1.0  0.62853  0.63040  0.15448  1.0000
  C   C3678     1.0  0.65994  0.84419  0.13602  1.0000
  H   H4428     1.0  0.68754  0.66416  0.14000  1.0000
  H   H4429     1.0  0.71906  0.77908  0.05438  1.0000
  H   H4430     1.0  0.73163  0.79081  0.06870  1.0000
  C   C3679     1.0  0.70955  0.82122  0.10646  1.0000
  H   H4431     1.0  0.71988  0.67630  0.09654  1.0000
  H   H4432     1.0  0.70953  0.72264  0.14248  1.0000
  H   H4433     1.0  0.72542  0.70190  0.16123  1.0000
  C   C3680     1.0  0.72277  0.81118  0.05637  1.0000
  S   S987      1.0  0.71604  0.58887  0.14946  1.0000
  Fe  Fe493     1.0  0.66780  0.86166  0.17422  1.0000
  C   C3681     1.0  0.70069  0.76195  0.07149  1.0000
  H   H4434     1.0  0.71334  0.86439  0.05964  1.0000
  C   C3682     1.0  0.71453  0.73401  0.11156  1.0000
  S   S988      1.0  0.72184  0.61334  0.10857  1.0000
  C   C3683     1.0  0.69830  0.69246  0.11444  1.0000
  N   N248      1.0  0.71176  0.66630  0.11860  1.0000
  H   H4435     1.0  0.70731  0.86006  0.10822  1.0000
  H   H4436     1.0  0.61746  0.62679  0.13463  1.0000
  H   H4437     1.0  0.70661  0.69583  0.10551  1.0000
  H   H4438     1.0  0.72156  0.76877  0.07943  1.0000
  Fe  Fe494     1.0  0.71030  0.60741  0.13150  1.0000
  H   H4439     1.0  0.66689  0.68307  0.14592  1.0000
  H   H4440     1.0  0.71077  0.97145  0.12276  1.0000
  C   C3684     1.0  0.70818  0.84937  0.10714  1.0000
  C   C3685     1.0  0.73442  0.70570  0.15357  1.0000
  N   N249      1.0  0.62693  0.77243  0.15403  1.0000
  C   C3686     1.0  0.62829  0.78716  0.15300  1.0000
  C   C3687     1.0  0.63895  0.76238  0.16006  1.0000
  C   C3688     1.0  0.62850  0.77078  0.13925  1.0000
  C   C3689     1.0  0.61317  0.76919  0.16300  1.0000
  C   C3690     1.0  0.61019  0.75561  0.16482  1.0000
  C   C3691     1.0  0.60231  0.77927  0.16999  1.0000
  H   H4441     1.0  0.61969  0.83914  0.16904  1.0000
  S   S989      1.0  0.72302  0.60626  0.17743  1.0000
  H   H4442     1.0  0.70230  0.66100  0.10438  1.0000
  H   H4443     1.0  0.63882  0.78912  0.14637  1.0000
  H   H4444     1.0  0.61999  0.79541  0.14795  1.0000
  H   H4445     1.0  0.62385  0.60920  0.14467  1.0000
  H   H4446     1.0  0.63904  0.76425  0.17054  1.0000
  H   H4447     1.0  0.64946  0.76371  0.15282  1.0000
  H   H4448     1.0  0.63856  0.75101  0.16185  1.0000
  H   H4449     1.0  0.61953  0.77795  0.13441  1.0000
  H   H4450     1.0  0.63862  0.77325  0.13199  1.0000
  H   H4451     1.0  0.62874  0.75967  0.13893  1.0000
  H   H4452     1.0  0.61783  0.74738  0.15983  1.0000
  N   N250      1.0  0.72740  0.75662  0.06295  1.0000
  S   S990      1.0  0.73238  0.88079  0.03898  1.0000
  C   C3692     1.0  0.70060  0.72075  0.15142  1.0000
  S   S991      1.0  0.73263  0.70565  0.08618  1.0000
  C   C3693     1.0  0.73124  0.96273  0.10096  1.0000
  S   S992      1.0  0.68312  0.56992  0.16481  1.0000
  C   C3694     1.0  0.69221  0.71178  0.15133  1.0000
  H   H4453     1.0  0.73000  0.75047  0.08467  1.0000
  C   C3695     1.0  0.62083  0.50377  0.17281  1.0000
  H   H4454     1.0  0.65112  0.85023  0.15609  1.0000
  H   H4455     1.0  0.72767  0.67914  0.10956  1.0000
  C   C3696     1.0  0.72253  0.79972  0.06835  1.0000
  H   H4456     1.0  0.70736  0.72226  0.10088  1.0000
  C   C3697     1.0  0.70539  0.64825  0.17573  1.0000
  C   C3698     1.0  0.73026  0.71768  0.09690  1.0000
  C   C3699     1.0  0.73065  0.90243  0.11450  1.0000
  C   C3700     1.0  0.64221  0.63554  0.12925  1.0000
  H   H4457     1.0  0.69869  0.65098  0.12252  1.0000
  H   H4458     1.0  0.72746  0.65011  0.12884  1.0000
  C   C3701     1.0  0.68617  0.70309  0.11790  1.0000
  H   H4459     1.0  0.63284  0.61478  0.12662  1.0000
  Fe  Fe495     1.0  0.71055  0.60568  0.16225  1.0000
  H   H4460     1.0  0.66401  0.85385  0.13109  1.0000
  H   H4461     1.0  0.70435  0.73443  0.16208  1.0000
  H   H4462     1.0  0.64798  0.63095  0.11965  1.0000
  C   C3702     1.0  0.62727  0.61861  0.13669  1.0000
  C   C3703     1.0  0.72343  0.67128  0.10682  1.0000
  H   H4463     1.0  0.72822  0.90527  0.05089  1.0000
  C   C3704     1.0  0.70337  0.83976  0.11968  1.0000
  H   H4464     1.0  0.59526  0.74185  0.17400  1.0000
  H   H4465     1.0  0.70064  0.77280  0.07152  1.0000
  H   H4466     1.0  0.70990  0.81033  0.10617  1.0000
  H   H4467     1.0  0.71856  0.82671  0.08412  1.0000
  C   C3705     1.0  0.71445  0.83072  0.09386  1.0000
  C   C3706     1.0  0.64888  0.61309  0.14527  1.0000
  N   N251      1.0  0.64026  0.82695  0.17277  1.0000
  H   H4468     1.0  0.72590  0.83758  0.98376  1.0000
  H   H4469     1.0  0.64548  0.60368  0.15321  1.0000
  H   H4470     1.0  0.63150  0.48761  0.16118  1.0000
  C   C3707     1.0  0.61126  0.48287  0.17509  1.0000
  H   H4471     1.0  0.72948  0.87131  0.17098  1.0000
  C   C3708     1.0  0.70777  0.63395  0.17487  1.0000
  H   H4472     1.0  0.73577  0.65558  0.15492  1.0000
  S   S993      1.0  0.64425  0.86962  0.17580  1.0000
  H   H4473     1.0  0.72548  0.96094  0.09376  1.0000
  H   H4474     1.0  0.70433  0.97687  0.10649  1.0000
  H   H4475     1.0  0.69275  0.75023  0.17640  1.0000
  C   C3709     1.0  0.62199  0.49099  0.16889  1.0000
  H   H4476     1.0  0.69603  0.65588  0.17278  1.0000
  C   C3710     1.0  0.73577  0.62140  0.10734  1.0000
  H   H4477     1.0  0.61902  0.66066  0.16814  1.0000
  H   H4478     1.0  0.72454  0.76780  0.04169  1.0000
  Fe  Fe496     1.0  0.69279  0.83643  0.17674  1.0000
  C   C3711     1.0  0.65805  0.58715  0.17580  1.0000
  H   H4479     1.0  0.70013  0.63059  0.17148  1.0000
  H   H4480     1.0  0.66225  0.62379  0.17696  1.0000
  C   C3712     1.0  0.55102  0.67512  0.22123  1.0000
  Fe  Fe497     1.0  0.68888  0.55735  0.29561  1.0000
  S   S994      1.0  0.66921  0.57108  0.30663  1.0000
  S   S995      1.0  0.69512  0.53310  0.30271  1.0000
  C   C3713     1.0  0.52547  0.72577  0.28447  1.0000
  S   S996      1.0  0.67917  0.59868  0.28230  1.0000
  Fe  Fe498     1.0  0.68316  0.58634  0.30403  1.0000
  S   S997      1.0  0.67787  0.59938  0.32108  1.0000
  Fe  Fe499     1.0  0.66669  0.58245  0.28435  1.0000
  S   S998      1.0  0.64550  0.58895  0.27807  1.0000
  S   S999      1.0  0.68527  0.56784  0.27347  1.0000
  H   H4481     1.0  0.56521  0.67390  0.20063  1.0000
  H   H4482     1.0  0.64685  0.60397  0.24708  1.0000
  H   H4483     1.0  0.48950  0.66530  0.28785  1.0000
  H   H4484     1.0  0.65034  0.62968  0.20058  1.0000
  H   H4485     1.0  0.62610  0.73874  0.19497  1.0000
  C   C3714     1.0  0.67539  0.50313  0.23379  1.0000
  Fe  Fe500     1.0  0.71601  0.81819  0.27468  1.0000
  S   S1000     1.0  0.71860  0.82197  0.29480  1.0000
  H   H4486     1.0  0.65873  0.49498  0.26124  1.0000
  Fe  Fe501     1.0  0.68414  0.82902  0.28097  1.0000
  S   S1001     1.0  0.68370  0.83433  0.30157  1.0000
  S   S1002     1.0  0.66437  0.83478  0.27241  1.0000
  Fe  Fe502     1.0  0.70327  0.84279  0.28910  1.0000
  S   S1003     1.0  0.70709  0.86363  0.28988  1.0000
  Fe  Fe503     1.0  0.69895  0.81299  0.30535  1.0000
  S   S1004     1.0  0.69776  0.79513  0.32523  1.0000
  S   S1005     1.0  0.70211  0.83952  0.26821  1.0000
  S   S1006     1.0  0.69799  0.80710  0.28555  1.0000
  Fe  Fe504     1.0  0.50238  0.64625  0.26224  1.0000
  S   S1007     1.0  0.51196  0.63948  0.28173  1.0000
  H   H4487     1.0  0.55619  0.61026  0.23176  1.0000
  Fe  Fe505     1.0  0.52963  0.65438  0.24266  1.0000
  S   S1008     1.0  0.54111  0.64863  0.26044  1.0000
  S   S1009     1.0  0.54192  0.66264  0.22068  1.0000
  Fe  Fe506     1.0  0.53169  0.62921  0.26763  1.0000
  S   S1010     1.0  0.54702  0.60941  0.27608  1.0000
  Fe  Fe507     1.0  0.52060  0.65931  0.27291  1.0000
  S   S1011     1.0  0.51837  0.67563  0.28549  1.0000
  S   S1012     1.0  0.52156  0.63411  0.24876  1.0000
  S   S1013     1.0  0.50977  0.66697  0.25440  1.0000
  Fe  Fe508     1.0  0.61297  0.52944  0.22411  1.0000
  S   S1014     1.0  0.60224  0.52981  0.24716  1.0000
  S   S1015     1.0  0.62122  0.50920  0.21510  1.0000
  Fe  Fe509     1.0  0.61417  0.56131  0.21673  1.0000
  S   S1016     1.0  0.60349  0.56401  0.23909  1.0000
  S   S1017     1.0  0.62009  0.58139  0.20164  1.0000
  Fe  Fe510     1.0  0.61772  0.54289  0.24612  1.0000
  S   S1018     1.0  0.63139  0.53788  0.26231  1.0000
  Fe  Fe511     1.0  0.58906  0.55101  0.23796  1.0000
  S   S1019     1.0  0.56526  0.55871  0.24376  1.0000
  S   S1020     1.0  0.62955  0.54104  0.22375  1.0000
  S   S1021     1.0  0.59869  0.54980  0.21490  1.0000
  Fe  Fe512     1.0  0.62908  0.79326  0.24749  1.0000
  S   S1022     1.0  0.60941  0.80691  0.25843  1.0000
  S   S1023     1.0  0.64937  0.78533  0.25551  1.0000
  Fe  Fe513     1.0  0.61588  0.79343  0.22364  1.0000
  S   S1024     1.0  0.59507  0.80712  0.23235  1.0000
  H   H4488     1.0  0.73362  0.63189  0.22823  1.0000
  Fe  Fe514     1.0  0.60854  0.81965  0.23609  1.0000
  S   S1025     1.0  0.60205  0.84360  0.23085  1.0000
  Fe  Fe515     1.0  0.59776  0.79320  0.25383  1.0000
  S   S1026     1.0  0.57873  0.78631  0.26983  1.0000
  S   S1027     1.0  0.62924  0.80716  0.22541  1.0000
  S   S1028     1.0  0.61748  0.77823  0.24481  1.0000
  C   C3715     1.0  0.67812  0.88622  0.23410  1.0000
  S   S1029     1.0  0.54364  0.69965  0.34523  1.0000
  Fe  Fe516     1.0  0.57407  0.71485  0.31684  1.0000
  S   S1030     1.0  0.57829  0.69497  0.33369  1.0000
  S   S1031     1.0  0.59349  0.72208  0.30238  1.0000
  Fe  Fe517     1.0  0.56042  0.68913  0.32862  1.0000
  S   S1032     1.0  0.56199  0.66772  0.32382  1.0000
  Fe  Fe518     1.0  0.56144  0.70765  0.34841  1.0000
  C   C3716     1.0  0.65840  0.51159  0.21848  1.0000
  S   S1033     1.0  0.55784  0.70807  0.31027  1.0000
  S   S1034     1.0  0.55796  0.72787  0.33158  1.0000
  H   H4489     1.0  0.66687  0.77816  0.31291  1.0000
  H   H4490     1.0  0.71681  0.76004  0.29436  1.0000
  H   H4491     1.0  0.71671  0.55758  0.26964  1.0000
  H   H4492     1.0  0.57591  0.65994  0.29188  1.0000
  C   C3717     1.0  0.61403  0.85117  0.21608  1.0000
  C   C3718     1.0  0.59940  0.48838  0.18532  1.0000
  H   H4493     1.0  0.63246  0.51021  0.23761  1.0000
  Fe  Fe519     1.0  0.69255  0.86359  0.18456  1.0000
  C   C3719     1.0  0.62861  0.84498  0.21386  1.0000
  H   H4494     1.0  0.60248  0.61605  0.31621  1.0000
  H   H4495     1.0  0.63254  0.83571  0.22155  1.0000
  C   C3720     1.0  0.58288  0.76873  0.27952  1.0000
  C   C3721     1.0  0.59708  0.76153  0.27919  1.0000
  C   C3722     1.0  0.60031  0.74714  0.28623  1.0000
  C   C3723     1.0  0.58931  0.74004  0.29380  1.0000
  C   C3724     1.0  0.57508  0.74732  0.29444  1.0000
  C   C3725     1.0  0.57187  0.76168  0.28726  1.0000
  H   H4496     1.0  0.60559  0.76706  0.27358  1.0000
  H   H4497     1.0  0.61132  0.74152  0.28581  1.0000
  H   H4498     1.0  0.56654  0.74185  0.30024  1.0000
  H   H4499     1.0  0.56087  0.76725  0.28748  1.0000
  C   C3726     1.0  0.61218  0.49515  0.21866  1.0000
  H   H4500     1.0  0.63024  0.49984  0.25538  1.0000
  H   H4501     1.0  0.64734  0.59378  0.32550  1.0000
  H   H4502     1.0  0.70351  0.58892  0.19567  1.0000
  H   H4503     1.0  0.71940  0.49869  0.26202  1.0000
  C   C3727     1.0  0.59753  0.49679  0.22458  1.0000
  C   C3728     1.0  0.62147  0.62305  0.31619  1.0000
  H   H4504     1.0  0.66456  0.50126  0.30250  1.0000
  H   H4505     1.0  0.62193  0.48827  0.29821  1.0000
  H   H4506     1.0  0.59145  0.50668  0.22772  1.0000
  C   C3729     1.0  0.63721  0.57820  0.19062  1.0000
  H   H4507     1.0  0.66956  0.77808  0.19127  1.0000
  H   H4508     1.0  0.63901  0.55556  0.19372  1.0000
  C   C3730     1.0  0.52972  0.67227  0.29728  1.0000
  C   C3731     1.0  0.53981  0.65939  0.29967  1.0000
  C   C3732     1.0  0.54930  0.65765  0.30847  1.0000
  C   C3733     1.0  0.54891  0.66890  0.31458  1.0000
  C   C3734     1.0  0.53849  0.68148  0.31254  1.0000
  C   C3735     1.0  0.52888  0.68310  0.30406  1.0000
  H   H4509     1.0  0.54035  0.65084  0.29469  1.0000
  H   H4510     1.0  0.55714  0.64773  0.31025  1.0000
  H   H4511     1.0  0.53783  0.69003  0.31752  1.0000
  H   H4512     1.0  0.52078  0.69285  0.30275  1.0000
  C   C3736     1.0  0.55141  0.59495  0.26770  1.0000
  C   C3737     1.0  0.56347  0.58406  0.26992  1.0000
  C   C3738     1.0  0.56769  0.57279  0.26273  1.0000
  C   C3739     1.0  0.55971  0.57225  0.25348  1.0000
  C   C3740     1.0  0.54741  0.58290  0.25159  1.0000
  C   C3741     1.0  0.54332  0.59431  0.25860  1.0000
  H   H4513     1.0  0.56968  0.58445  0.27706  1.0000
  H   H4514     1.0  0.57707  0.56447  0.26440  1.0000
  H   H4515     1.0  0.54115  0.58243  0.24453  1.0000
  H   H4516     1.0  0.53388  0.60253  0.25704  1.0000
  C   C3742     1.0  0.70533  0.60076  0.32092  1.0000
  H   H4517     1.0  0.69941  0.48519  0.29555  1.0000
  H   H4518     1.0  0.64961  0.62005  0.30146  1.0000
  H   H4519     1.0  0.58512  0.74263  0.26655  1.0000
  C   C3743     1.0  0.72689  0.64260  0.18462  1.0000
  H   H4520     1.0  0.63838  0.76766  0.22097  1.0000
  C   C3744     1.0  0.68017  0.72251  0.20046  1.0000
  H   H4521     1.0  0.49547  0.74324  0.30966  1.0000
  C   C3745     1.0  0.54729  0.68131  0.23314  1.0000
  H   H4522     1.0  0.53839  0.67889  0.24181  1.0000
  H   H4523     1.0  0.69613  0.86163  0.24129  1.0000
  C   C3746     1.0  0.63621  0.73812  0.21161  1.0000
  H   H4524     1.0  0.58320  0.72658  0.34740  1.0000
  C   C3747     1.0  0.66116  0.82145  0.26618  1.0000
  C   C3748     1.0  0.67105  0.80844  0.26551  1.0000
  C   C3749     1.0  0.66751  0.79737  0.26201  1.0000
  C   C3750     1.0  0.65420  0.79945  0.25888  1.0000
  C   C3751     1.0  0.64467  0.81273  0.25879  1.0000
  C   C3752     1.0  0.64808  0.82366  0.26257  1.0000
  H   H4525     1.0  0.68133  0.80682  0.26780  1.0000
  H   H4526     1.0  0.67502  0.78720  0.26179  1.0000
  H   H4527     1.0  0.63460  0.81462  0.25593  1.0000
  H   H4528     1.0  0.64047  0.83376  0.26288  1.0000
  C   C3753     1.0  0.68115  0.79560  0.33754  1.0000
  C   C3754     1.0  0.65668  0.80765  0.34592  1.0000
  C   C3755     1.0  0.67009  0.80780  0.33652  1.0000
  H   H4529     1.0  0.64818  0.81715  0.34512  1.0000
  H   H4530     1.0  0.67184  0.81739  0.32856  1.0000
  C   C3756     1.0  0.73447  0.52698  0.25812  1.0000
  H   H4531     1.0  0.67114  0.71722  0.20269  1.0000
  C   C3757     1.0  0.72241  0.86835  0.20904  1.0000
  C   C3758     1.0  0.71440  0.86243  0.20376  1.0000
  C   C3759     1.0  0.71997  0.84893  0.20046  1.0000
  C   C3760     1.0  0.62627  0.59817  0.31294  1.0000
  N   N252      1.0  0.72379  0.75290  0.31429  1.0000
  H   H4532     1.0  0.71799  0.87864  0.21194  1.0000
  H   H4533     1.0  0.66436  0.74955  0.19440  1.0000
  H   H4534     1.0  0.66782  0.71471  0.18234  1.0000
  H   H4535     1.0  0.71406  0.67912  0.25333  1.0000
  C   C3761     1.0  0.72348  0.86635  0.26215  1.0000
  C   C3762     1.0  0.71668  0.87276  0.27389  1.0000
  C   C3763     1.0  0.71805  0.88653  0.27319  1.0000
  C   C3764     1.0  0.72624  0.89383  0.26092  1.0000
  C   C3765     1.0  0.64375  0.65223  0.19178  1.0000
  H   H4536     1.0  0.72275  0.85564  0.26264  1.0000
  H   H4537     1.0  0.71285  0.89154  0.28223  1.0000
  C   C3766     1.0  0.63703  0.50175  0.28895  1.0000
  Fe  Fe520     1.0  0.72305  0.67310  0.19727  1.0000
  C   C3767     1.0  0.62362  0.75976  0.19812  1.0000
  Fe  Fe521     1.0  0.62823  0.70906  0.20816  1.0000
  H   H4538     1.0  0.66052  0.48609  0.34286  1.0000
  C   C3768     1.0  0.64432  0.56437  0.18884  1.0000
  Fe  Fe522     1.0  0.72256  0.66685  0.34992  1.0000
  C   C3769     1.0  0.68472  0.51088  0.22332  1.0000
  N   N253      1.0  0.65165  0.49528  0.24252  1.0000
  C   C3770     1.0  0.51012  0.74847  0.27678  1.0000
  H   H4539     1.0  0.66341  0.49849  0.32609  1.0000
  C   C3771     1.0  0.68606  0.52614  0.28209  1.0000
  C   C3772     1.0  0.68494  0.51636  0.27486  1.0000
  H   H4540     1.0  0.68243  0.53750  0.27820  1.0000
  H   H4541     1.0  0.68046  0.52031  0.26541  1.0000
  C   C3773     1.0  0.64126  0.57475  0.27404  1.0000
  C   C3774     1.0  0.63012  0.57748  0.26704  1.0000
  C   C3775     1.0  0.62689  0.56623  0.26349  1.0000
  C   C3776     1.0  0.63471  0.55219  0.26706  1.0000
  C   C3777     1.0  0.64579  0.54950  0.27415  1.0000
  C   C3778     1.0  0.64909  0.56074  0.27758  1.0000
  H   H4542     1.0  0.62398  0.58829  0.26434  1.0000
  H   H4543     1.0  0.61827  0.56841  0.25814  1.0000
  H   H4544     1.0  0.65192  0.53872  0.27692  1.0000
  H   H4545     1.0  0.65757  0.55848  0.28317  1.0000
  C   C3779     1.0  0.69065  0.60534  0.32598  1.0000
  C   C3780     1.0  0.68264  0.79301  0.18833  1.0000
  H   H4546     1.0  0.70915  0.59354  0.31365  1.0000
  S   S1035     1.0  0.72961  0.68708  0.33625  1.0000
  C   C3781     1.0  0.68959  0.50153  0.27975  1.0000
  S   S1036     1.0  0.70324  0.57144  0.29519  1.0000
  H   H4547     1.0  0.61123  0.75371  0.23222  1.0000
  C   C3782     1.0  0.50879  0.71001  0.25789  1.0000
  C   C3783     1.0  0.67723  0.62528  0.22894  1.0000
  H   H4548     1.0  0.63684  0.79984  0.33459  1.0000
  H   H4549     1.0  0.70055  0.64421  0.22954  1.0000
  H   H4550     1.0  0.68241  0.64484  0.23944  1.0000
  C   C3784     1.0  0.58372  0.76521  0.24113  1.0000
  C   C3785     1.0  0.59006  0.75305  0.22187  1.0000
  H   H4551     1.0  0.58957  0.77348  0.23383  1.0000
  H   H4552     1.0  0.62823  0.86558  0.22909  1.0000
  H   H4553     1.0  0.57918  0.75707  0.21966  1.0000
  H   H4554     1.0  0.59637  0.76110  0.21507  1.0000
  C   C3786     1.0  0.69203  0.63796  0.23395  1.0000
  N   N254      1.0  0.70949  0.80187  0.22725  1.0000
  C   C3787     1.0  0.71671  0.79823  0.21310  1.0000
  C   C3788     1.0  0.71826  0.80990  0.23044  1.0000
  C   C3789     1.0  0.70936  0.78841  0.23844  1.0000
  C   C3790     1.0  0.69466  0.80995  0.22695  1.0000
  C   C3791     1.0  0.68491  0.80366  0.22416  1.0000
  C   C3792     1.0  0.68937  0.82401  0.22957  1.0000
  C   C3793     1.0  0.67078  0.81091  0.22410  1.0000
  C   C3794     1.0  0.67517  0.83111  0.22957  1.0000
  C   C3795     1.0  0.66593  0.82459  0.22684  1.0000
  H   H4555     1.0  0.72792  0.79214  0.21291  1.0000
  H   H4556     1.0  0.71129  0.79150  0.21016  1.0000
  H   H4557     1.0  0.71686  0.80810  0.20438  1.0000
  H   H4558     1.0  0.71929  0.81994  0.22215  1.0000
  H   H4559     1.0  0.72930  0.80352  0.23076  1.0000
  H   H4560     1.0  0.71365  0.81265  0.24115  1.0000
  H   H4561     1.0  0.70391  0.78120  0.23629  1.0000
  H   H4562     1.0  0.72038  0.78211  0.23914  1.0000
  H   H4563     1.0  0.70375  0.79073  0.24919  1.0000
  H   H4564     1.0  0.68812  0.79304  0.22204  1.0000
  H   H4565     1.0  0.69593  0.82974  0.23172  1.0000
  H   H4566     1.0  0.66349  0.80576  0.22219  1.0000
  H   H4567     1.0  0.67119  0.84169  0.23185  1.0000
  H   H4568     1.0  0.65492  0.83008  0.22711  1.0000
  N   N255      1.0  0.57724  0.67276  0.27012  1.0000
  C   C3796     1.0  0.58115  0.66949  0.25564  1.0000
  C   C3797     1.0  0.57973  0.65884  0.28056  1.0000
  C   C3798     1.0  0.56184  0.67956  0.27308  1.0000
  C   C3799     1.0  0.58536  0.68245  0.27150  1.0000
  C   C3800     1.0  0.58436  0.68500  0.28514  1.0000
  C   C3801     1.0  0.59385  0.69016  0.25946  1.0000
  C   C3802     1.0  0.59204  0.69397  0.28671  1.0000
  C   C3803     1.0  0.60141  0.69922  0.26114  1.0000
  C   C3804     1.0  0.60060  0.70103  0.27475  1.0000
  H   H4569     1.0  0.59277  0.66482  0.25253  1.0000
  H   H4570     1.0  0.57526  0.66175  0.25510  1.0000
  H   H4571     1.0  0.57836  0.67920  0.24730  1.0000
  H   H4572     1.0  0.59129  0.65367  0.27898  1.0000
  H   H4573     1.0  0.57394  0.65125  0.27952  1.0000
  H   H4574     1.0  0.55961  0.69008  0.26551  1.0000
  H   H4575     1.0  0.55521  0.67279  0.27200  1.0000
  H   H4576     1.0  0.55797  0.68154  0.28413  1.0000
  H   H4577     1.0  0.57749  0.68022  0.29473  1.0000
  H   H4578     1.0  0.59471  0.68950  0.24860  1.0000
  H   H4579     1.0  0.59122  0.69561  0.29726  1.0000
  H   H4580     1.0  0.60787  0.70493  0.25181  1.0000
  H   H4581     1.0  0.60638  0.70813  0.27605  1.0000
  C   C3805     1.0  0.71223  0.59236  0.37304  1.0000
  C   C3806     1.0  0.49566  0.66103  0.31939  1.0000
  H   H4582     1.0  0.50308  0.70469  0.25352  1.0000
  C   C3807     1.0  0.71134  0.74638  0.32187  1.0000
  C   C3808     1.0  0.71199  0.73146  0.32436  1.0000
  C   C3809     1.0  0.70011  0.72567  0.33199  1.0000
  C   C3810     1.0  0.50810  0.72396  0.32022  1.0000
  H   H4583     1.0  0.65361  0.83718  0.17852  1.0000
  C   C3811     1.0  0.62680  0.76796  0.20558  1.0000
  S   S1037     1.0  0.71052  0.67828  0.21836  1.0000
  C   C3812     1.0  0.58688  0.76235  0.17979  1.0000
  H   H4584     1.0  0.52185  0.70747  0.28034  1.0000
  C   C3813     1.0  0.58444  0.72690  0.35775  1.0000
  H   H4585     1.0  0.70096  0.71420  0.33402  1.0000
  C   C3814     1.0  0.63515  0.77396  0.33136  1.0000
  C   C3815     1.0  0.62712  0.76783  0.30943  1.0000
  C   C3816     1.0  0.62770  0.76313  0.33441  1.0000
  C   C3817     1.0  0.62366  0.76010  0.32349  1.0000
  H   H4586     1.0  0.63797  0.77595  0.34026  1.0000
  H   H4587     1.0  0.62489  0.75718  0.34538  1.0000
  H   H4588     1.0  0.61778  0.75178  0.32598  1.0000
  H   H4589     1.0  0.58445  0.76499  0.25213  1.0000
  H   H4590     1.0  0.61971  0.63040  0.21477  1.0000
  N   N256      1.0  0.66519  0.56782  0.22216  1.0000
  C   C3818     1.0  0.65407  0.58005  0.21702  1.0000
  C   C3819     1.0  0.66888  0.55715  0.21313  1.0000
  C   C3820     1.0  0.65886  0.56083  0.23698  1.0000
  C   C3821     1.0  0.67797  0.57308  0.22112  1.0000
  C   C3822     1.0  0.68570  0.57922  0.20750  1.0000
  C   C3823     1.0  0.68289  0.57266  0.23336  1.0000
  C   C3824     1.0  0.69771  0.58440  0.20621  1.0000
  C   C3825     1.0  0.69491  0.57793  0.23191  1.0000
  C   C3826     1.0  0.70230  0.58377  0.21837  1.0000
  H   H4591     1.0  0.65105  0.58832  0.22352  1.0000
  H   H4592     1.0  0.65774  0.58539  0.20566  1.0000
  H   H4593     1.0  0.64420  0.57660  0.21763  1.0000
  H   H4594     1.0  0.67756  0.54803  0.21638  1.0000
  H   H4595     1.0  0.67251  0.56179  0.20154  1.0000
  H   H4596     1.0  0.65954  0.55275  0.21394  1.0000
  H   H4597     1.0  0.65493  0.56846  0.24425  1.0000
  H   H4598     1.0  0.64945  0.55676  0.23730  1.0000
  H   H4599     1.0  0.66660  0.55144  0.24159  1.0000
  H   H4600     1.0  0.68253  0.58011  0.19769  1.0000
  H   H4601     1.0  0.67761  0.56840  0.24417  1.0000
  H   H4602     1.0  0.60605  0.79711  0.33918  1.0000
  H   H4603     1.0  0.67566  0.65409  0.21565  1.0000
  C   C3827     1.0  0.63733  0.48384  0.31120  1.0000
  H   H4604     1.0  0.59203  0.60410  0.20935  1.0000
  C   C3828     1.0  0.49176  0.70947  0.28062  1.0000
  H   H4605     1.0  0.57640  0.74990  0.32015  1.0000
  S   S1038     1.0  0.73406  0.81010  0.25794  1.0000
  C   C3829     1.0  0.57981  0.73760  0.26195  1.0000
  H   H4606     1.0  0.60551  0.74512  0.25029  1.0000
  H   H4607     1.0  0.64202  0.71274  0.36670  1.0000
  H   H4608     1.0  0.69589  0.62881  0.24233  1.0000
  C   C3830     1.0  0.50918  0.70929  0.32588  1.0000
  H   H4609     1.0  0.72660  0.71212  0.25178  1.0000
  C   C3831     1.0  0.49899  0.70251  0.32500  1.0000
  C   C3832     1.0  0.71947  0.69735  0.28776  1.0000
  C   C3833     1.0  0.66069  0.87264  0.22473  1.0000
  S   S1039     1.0  0.68874  0.48976  0.26976  1.0000
  C   C3834     1.0  0.63938  0.60403  0.32648  1.0000
  H   H4610     1.0  0.57088  0.78110  0.30652  1.0000
  H   H4611     1.0  0.62882  0.86166  0.25457  1.0000
  H   H4612     1.0  0.70149  0.50242  0.30833  1.0000
  H   H4613     1.0  0.63832  0.61773  0.29134  1.0000
  C   C3835     1.0  0.63553  0.76132  0.21545  1.0000
  C   C3836     1.0  0.65313  0.62215  0.23126  1.0000
  C   C3837     1.0  0.57849  0.63894  0.22753  1.0000
  H   H4614     1.0  0.55810  0.78825  0.32102  1.0000
  Fe  Fe523     1.0  0.54177  0.71890  0.32693  1.0000
  H   H4615     1.0  0.66986  0.59544  0.25455  1.0000
  C   C3838     1.0  0.63770  0.86489  0.24625  1.0000
  C   C3839     1.0  0.57722  0.71897  0.37022  1.0000
  H   H4616     1.0  0.72158  0.72394  0.32076  1.0000
  H   H4617     1.0  0.67907  0.49705  0.24341  1.0000
  H   H4618     1.0  0.70279  0.69303  0.26223  1.0000
  C   C3840     1.0  0.71603  0.62559  0.26323  1.0000
  H   H4619     1.0  0.69009  0.71398  0.20084  1.0000
  S   S1040     1.0  0.73618  0.64489  0.35569  1.0000
  Fe  Fe524     1.0  0.69816  0.58287  0.27370  1.0000
  C   C3841     1.0  0.66825  0.60500  0.24617  1.0000
  H   H4620     1.0  0.66479  0.52558  0.19812  1.0000
  C   C3842     1.0  0.67907  0.61261  0.23984  1.0000
  S   S1041     1.0  0.69813  0.87259  0.19989  1.0000
  H   H4621     1.0  0.60696  0.65423  0.21955  1.0000
  H   H4622     1.0  0.52657  0.74567  0.28802  1.0000
  H   H4623     1.0  0.57228  0.76910  0.24064  1.0000
  C   C3843     1.0  0.69209  0.52119  0.29416  1.0000
  H   H4624     1.0  0.62401  0.76545  0.30090  1.0000
  Fe  Fe525     1.0  0.71797  0.63697  0.35352  1.0000
  C   C3844     1.0  0.63881  0.78211  0.31718  1.0000
  C   C3845     1.0  0.68093  0.51894  0.21050  1.0000
  H   H4625     1.0  0.55207  0.69555  0.24300  1.0000
  S   S1042     1.0  0.60914  0.72051  0.19861  1.0000
  C   C3846     1.0  0.64323  0.61283  0.30084  1.0000
  H   H4626     1.0  0.67045  0.86237  0.26539  1.0000
  C   C3847     1.0  0.63460  0.77868  0.30623  1.0000
  S   S1043     1.0  0.52117  0.73260  0.32069  1.0000
  H   H4627     1.0  0.71180  0.77347  0.30483  1.0000
  S   S1044     1.0  0.64043  0.71942  0.21668  1.0000
  H   H4628     1.0  0.61909  0.65679  0.32036  1.0000
  C   C3848     1.0  0.66776  0.51933  0.20811  1.0000
  H   H4629     1.0  0.48664  0.70253  0.27761  1.0000
  C   C3849     1.0  0.68516  0.64627  0.21132  1.0000
  C   C3850     1.0  0.55505  0.69075  0.23381  1.0000
  H   H4630     1.0  0.68887  0.60854  0.24364  1.0000
  H   H4631     1.0  0.71236  0.63042  0.27247  1.0000
  H   H4632     1.0  0.65640  0.79358  0.29196  1.0000
  C   C3851     1.0  0.60129  0.64888  0.32024  1.0000
  C   C3852     1.0  0.66072  0.78702  0.31842  1.0000
  H   H4633     1.0  0.60833  0.51854  0.18621  1.0000
  N   N257      1.0  0.64678  0.79345  0.31428  1.0000
  C   C3853     1.0  0.72575  0.61279  0.23960  1.0000
  H   H4634     1.0  0.56704  0.64217  0.23098  1.0000
  N   N258      1.0  0.58969  0.75101  0.23734  1.0000
  H   H4635     1.0  0.59518  0.74292  0.21806  1.0000
  S   S1045     1.0  0.71454  0.58913  0.25375  1.0000
  C   C3854     1.0  0.71037  0.61474  0.33491  1.0000
  H   H4636     1.0  0.51511  0.71658  0.24867  1.0000
  H   H4637     1.0  0.68817  0.85965  0.22820  1.0000
  H   H4638     1.0  0.65948  0.78266  0.33018  1.0000
  H   H4639     1.0  0.66744  0.79505  0.31555  1.0000
  H   H4640     1.0  0.71120  0.59558  0.36194  1.0000
  C   C3855     1.0  0.64972  0.80104  0.29897  1.0000
  H   H4641     1.0  0.57450  0.73464  0.23048  1.0000
  H   H4642     1.0  0.63698  0.78418  0.29507  1.0000
  H   H4643     1.0  0.49127  0.67240  0.31813  1.0000
  C   C3856     1.0  0.64952  0.48730  0.31296  1.0000
  C   C3857     1.0  0.64017  0.74635  0.21853  1.0000
  Fe  Fe526     1.0  0.72260  0.69563  0.21249  1.0000
  H   H4644     1.0  0.69684  0.76640  0.32597  1.0000
  C   C3858     1.0  0.60462  0.74604  0.23917  1.0000
  H   H4645     1.0  0.66279  0.88137  0.26143  1.0000
  H   H4646     1.0  0.63972  0.80651  0.29509  1.0000
  C   C3859     1.0  0.63854  0.80435  0.32281  1.0000
  C   C3860     1.0  0.71488  0.65254  0.18075  1.0000
  C   C3861     1.0  0.65668  0.48755  0.25592  1.0000
  H   H4647     1.0  0.71712  0.69673  0.24713  1.0000
  C   C3862     1.0  0.56683  0.69369  0.22280  1.0000
  C   C3863     1.0  0.57389  0.73336  0.24177  1.0000
  H   H4648     1.0  0.62134  0.60148  0.30344  1.0000
  H   H4649     1.0  0.53375  0.71954  0.29021  1.0000
  C   C3864     1.0  0.69666  0.50635  0.29910  1.0000
  H   H4650     1.0  0.69849  0.57760  0.24133  1.0000
  H   H4651     1.0  0.60965  0.73542  0.23634  1.0000
  S   S1046     1.0  0.63602  0.65667  0.20848  1.0000
  H   H4652     1.0  0.64226  0.72530  0.31899  1.0000
  S   S1047     1.0  0.57727  0.70430  0.22473  1.0000
  C   C3865     1.0  0.65040  0.63806  0.19095  1.0000
  C   C3866     1.0  0.58114  0.74064  0.24690  1.0000
  H   H4653     1.0  0.71345  0.84389  0.19733  1.0000
  H   H4654     1.0  0.68193  0.88625  0.22248  1.0000
  H   H4655     1.0  0.60624  0.69985  0.35364  1.0000
  N   N259      1.0  0.68876  0.63327  0.22256  1.0000
  H   H4656     1.0  0.69403  0.65207  0.20685  1.0000
  Fe  Fe527     1.0  0.59975  0.70165  0.21139  1.0000
  H   H4657     1.0  0.58136  0.78360  0.18363  1.0000
  H   H4658     1.0  0.57435  0.60165  0.21330  1.0000
  C   C3867     1.0  0.60895  0.86347  0.20639  1.0000
  H   H4659     1.0  0.71671  0.70875  0.30413  1.0000
  H   H4660     1.0  0.68348  0.79008  0.19943  1.0000
  N   N260      1.0  0.73267  0.53886  0.26513  1.0000
  H   H4661     1.0  0.63667  0.63469  0.31691  1.0000
  H   H4662     1.0  0.63216  0.50745  0.27990  1.0000
  H   H4663     1.0  0.72750  0.66849  0.28585  1.0000
  H   H4664     1.0  0.63869  0.60028  0.18551  1.0000
  C   C3868     1.0  0.65529  0.60978  0.24193  1.0000
  C   C3869     1.0  0.71984  0.62403  0.17871  1.0000
  C   C3870     1.0  0.61255  0.71169  0.33262  1.0000
  H   H4665     1.0  0.59354  0.65868  0.32194  1.0000
  C   C3871     1.0  0.60671  0.62456  0.31702  1.0000
  C   C3872     1.0  0.67477  0.78623  0.18372  1.0000
  H   H4666     1.0  0.56019  0.71852  0.24714  1.0000
  H   H4667     1.0  0.73512  0.73744  0.30115  1.0000
  C   C3873     1.0  0.57036  0.68773  0.21076  1.0000
  C   C3874     1.0  0.56237  0.67857  0.20991  1.0000
  H   H4668     1.0  0.64908  0.86467  0.26129  1.0000
  H   H4669     1.0  0.67649  0.75583  0.33972  1.0000
  H   H4670     1.0  0.64644  0.74115  0.22659  1.0000
  C   C3875     1.0  0.63812  0.85100  0.20188  1.0000
  C   C3876     1.0  0.62847  0.74490  0.20096  1.0000
  H   H4671     1.0  0.63963  0.51409  0.25034  1.0000
  H   H4672     1.0  0.65896  0.73775  0.18738  1.0000
  H   H4673     1.0  0.51373  0.62073  0.32359  1.0000
  C   C3877     1.0  0.65525  0.49813  0.30202  1.0000
  C   C3878     1.0  0.56565  0.72391  0.25128  1.0000
  C   C3879     1.0  0.56280  0.76297  0.34104  1.0000
  C   C3880     1.0  0.72308  0.72311  0.26830  1.0000
  H   H4674     1.0  0.58964  0.74978  0.32899  1.0000
  H   H4675     1.0  0.64418  0.81317  0.32069  1.0000
  N   N261      1.0  0.72359  0.68512  0.26715  1.0000
  C   C3881     1.0  0.50854  0.63198  0.32258  1.0000
  S   S1048     1.0  0.60867  0.68930  0.19408  1.0000
  S   S1049     1.0  0.61783  0.69137  0.22261  1.0000
  C   C3882     1.0  0.66392  0.62978  0.22477  1.0000
  H   H4676     1.0  0.64298  0.62602  0.22806  1.0000
  H   H4677     1.0  0.63471  0.58835  0.31133  1.0000
  H   H4678     1.0  0.55622  0.77146  0.34691  1.0000
  H   H4679     1.0  0.61435  0.87851  0.18650  1.0000
  H   H4680     1.0  0.61469  0.68450  0.37230  1.0000
  C   C3883     1.0  0.50786  0.65552  0.32508  1.0000
  C   C3884     1.0  0.51437  0.64104  0.32655  1.0000
  S   S1050     1.0  0.63826  0.75601  0.37104  1.0000
  H   H4681     1.0  0.63150  0.60206  0.33683  1.0000
  C   C3885     1.0  0.50673  0.72665  0.27254  1.0000
  H   H4682     1.0  0.51250  0.66262  0.32800  1.0000
  H   H4683     1.0  0.52404  0.63690  0.33062  1.0000
  H   H4684     1.0  0.59767  0.86833  0.20813  1.0000
  H   H4685     1.0  0.68312  0.64353  0.20207  1.0000
  C   C3886     1.0  0.71830  0.60570  0.25259  1.0000
  C   C3887     1.0  0.58179  0.77674  0.33123  1.0000
  H   H4686     1.0  0.51783  0.70316  0.33107  1.0000
  S   S1051     1.0  0.67767  0.84874  0.19269  1.0000
  C   C3888     1.0  0.69201  0.74127  0.18607  1.0000
  C   C3889     1.0  0.65418  0.79524  0.35623  1.0000
  H   H4687     1.0  0.66152  0.63924  0.21657  1.0000
  C   C3890     1.0  0.67205  0.87281  0.25813  1.0000
  C   C3891     1.0  0.58902  0.78644  0.32013  1.0000
  H   H4688     1.0  0.57809  0.61890  0.20377  1.0000
  H   H4689     1.0  0.64020  0.67915  0.35948  1.0000
  C   C3892     1.0  0.73573  0.74372  0.22616  1.0000
  C   C3893     1.0  0.60104  0.64612  0.22113  1.0000
  C   C3894     1.0  0.70178  0.62385  0.21587  1.0000
  H   H4690     1.0  0.70571  0.61416  0.22370  1.0000
  H   H4691     1.0  0.69188  0.62657  0.34721  1.0000
  C   C3895     1.0  0.62248  0.71898  0.32274  1.0000
  H   H4692     1.0  0.58923  0.50510  0.19704  1.0000
  H   H4693     1.0  0.68711  0.88821  0.23723  1.0000
  H   H4694     1.0  0.64344  0.68101  0.37563  1.0000
  H   H4695     1.0  0.55664  0.77275  0.31610  1.0000
  C   C3896     1.0  0.63445  0.71976  0.32675  1.0000
  C   C3897     1.0  0.69810  0.75501  0.32737  1.0000
  H   H4696     1.0  0.62090  0.72389  0.31193  1.0000
  C   C3898     1.0  0.62564  0.63507  0.31741  1.0000
  C   C3899     1.0  0.71349  0.61211  0.26442  1.0000
  H   H4697     1.0  0.68973  0.68650  0.36030  1.0000
  C   C3900     1.0  0.56459  0.72121  0.26601  1.0000
  H   H4698     1.0  0.57658  0.59266  0.23869  1.0000
  H   H4699     1.0  0.55747  0.62828  0.22290  1.0000
  H   H4700     1.0  0.65101  0.60287  0.29866  1.0000
  N   N262      1.0  0.49881  0.71893  0.26785  1.0000
  C   C3901     1.0  0.72412  0.71103  0.26327  1.0000
  C   C3902     1.0  0.63739  0.86699  0.23189  1.0000
  C   C3903     1.0  0.60818  0.63267  0.21844  1.0000
  H   H4701     1.0  0.71074  0.62948  0.21109  1.0000
  C   C3904     1.0  0.57171  0.72802  0.27132  1.0000
  C   C3905     1.0  0.58066  0.60954  0.21258  1.0000
  C   C3906     1.0  0.73433  0.72151  0.22164  1.0000
  C   C3907     1.0  0.72227  0.75011  0.22308  1.0000
  C   C3908     1.0  0.56431  0.77818  0.31753  1.0000
  H   H4702     1.0  0.57913  0.69026  0.20202  1.0000
  C   C3909     1.0  0.65032  0.82681  0.18128  1.0000
  C   C3910     1.0  0.59940  0.79148  0.33692  1.0000
  C   C3911     1.0  0.59058  0.48581  0.22589  1.0000
  H   H4703     1.0  0.60277  0.80131  0.31440  1.0000
  C   C3912     1.0  0.72740  0.75942  0.32414  1.0000
  H   H4704     1.0  0.67459  0.61828  0.33949  1.0000
  H   H4705     1.0  0.55839  0.71373  0.27333  1.0000
  C   C3913     1.0  0.68633  0.74910  0.33513  1.0000
  H   H4706     1.0  0.65567  0.80955  0.29715  1.0000
  C   C3914     1.0  0.56178  0.61881  0.23082  1.0000
  H   H4707     1.0  0.67823  0.72991  0.34365  1.0000
  N   N263      1.0  0.63227  0.60972  0.31416  1.0000
  C   C3915     1.0  0.52136  0.74051  0.28333  1.0000
  C   C3916     1.0  0.72657  0.50602  0.25737  1.0000
  N   N264      1.0  0.57295  0.76884  0.32804  1.0000
  C   C3917     1.0  0.58253  0.75678  0.32182  1.0000
  H   H4708     1.0  0.58556  0.63828  0.31987  1.0000
  H   H4709     1.0  0.57966  0.60407  0.24810  1.0000
  C   C3918     1.0  0.68590  0.61470  0.33546  1.0000
  S   S1052     1.0  0.71148  0.67030  0.18230  1.0000
  H   H4710     1.0  0.69979  0.62017  0.20716  1.0000
  N   N265      1.0  0.57752  0.61401  0.22638  1.0000
  C   C3919     1.0  0.69543  0.49656  0.29193  1.0000
  H   H4711     1.0  0.57108  0.72576  0.28276  1.0000
  H   H4712     1.0  0.55854  0.62150  0.24159  1.0000
  C   C3920     1.0  0.67878  0.78332  0.34818  1.0000
  S   S1053     1.0  0.70524  0.65905  0.34621  1.0000
  C   C3921     1.0  0.71511  0.60536  0.32545  1.0000
  H   H4713     1.0  0.64870  0.87225  0.20996  1.0000
  H   H4714     1.0  0.58947  0.76060  0.31130  1.0000
  C   C3922     1.0  0.58210  0.60132  0.23743  1.0000
  H   H4715     1.0  0.55535  0.75818  0.33836  1.0000
  C   C3923     1.0  0.60052  0.62228  0.22020  1.0000
  S   S1054     1.0  0.71226  0.66745  0.37299  1.0000
  H   H4716     1.0  0.70890  0.67506  0.28489  1.0000
  H   H4717     1.0  0.56832  0.75411  0.34858  1.0000
  C   C3924     1.0  0.58540  0.62513  0.22474  1.0000
  C   C3925     1.0  0.58627  0.64922  0.22571  1.0000
  H   H4718     1.0  0.49397  0.74848  0.26693  1.0000
  H   H4719     1.0  0.58075  0.65974  0.22769  1.0000
  C   C3926     1.0  0.66528  0.78307  0.35739  1.0000
  C   C3927     1.0  0.71827  0.54815  0.26503  1.0000
  C   C3928     1.0  0.64889  0.87079  0.22115  1.0000
  S   S1055     1.0  0.56598  0.70833  0.36944  1.0000
  H   H4720     1.0  0.73452  0.64590  0.18799  1.0000
  H   H4721     1.0  0.71186  0.70871  0.37382  1.0000
  H   H4722     1.0  0.60935  0.61948  0.18856  1.0000
  H   H4723     1.0  0.64933  0.84613  0.20028  1.0000
  H   H4724     1.0  0.65154  0.69058  0.35866  1.0000
  H   H4725     1.0  0.72644  0.60160  0.32162  1.0000
  C   C3929     1.0  0.66187  0.50328  0.23169  1.0000
  H   H4726     1.0  0.68823  0.52483  0.20234  1.0000
  H   H4727     1.0  0.59370  0.59655  0.23468  1.0000
  H   H4728     1.0  0.59904  0.74114  0.34898  1.0000
  S   S1056     1.0  0.63965  0.69707  0.19073  1.0000
  C   C3930     1.0  0.63649  0.71329  0.34067  1.0000
  C   C3931     1.0  0.63542  0.81324  0.17850  1.0000
  C   C3932     1.0  0.68167  0.70556  0.36869  1.0000
  H   H4729     1.0  0.66945  0.87524  0.21598  1.0000
  C   C3933     1.0  0.48753  0.72853  0.26036  1.0000
  H   H4730     1.0  0.71864  0.76826  0.32767  1.0000
  H   H4731     1.0  0.66018  0.81841  0.17939  1.0000
  H   H4732     1.0  0.62788  0.80925  0.32022  1.0000
  C   C3934     1.0  0.61839  0.86924  0.19419  1.0000
  C   C3935     1.0  0.66127  0.87092  0.23926  1.0000
  C   C3936     1.0  0.71853  0.70948  0.29270  1.0000
  C   C3937     1.0  0.73419  0.84213  0.20076  1.0000
  H   H4733     1.0  0.68162  0.87471  0.26032  1.0000
  H   H4734     1.0  0.64607  0.71393  0.34322  1.0000
  H   H4735     1.0  0.60651  0.61200  0.21793  1.0000
  H   H4736     1.0  0.72971  0.76891  0.29533  1.0000
  C   C3938     1.0  0.48949  0.65217  0.31508  1.0000
  H   H4737     1.0  0.49207  0.73601  0.25062  1.0000
  C   C3939     1.0  0.59682  0.63732  0.31905  1.0000
  H   H4738     1.0  0.64558  0.82460  0.19302  1.0000
  H   H4739     1.0  0.50680  0.75991  0.27621  1.0000
  H   H4740     1.0  0.70969  0.54242  0.27150  1.0000
  H   H4741     1.0  0.68362  0.85013  0.24637  1.0000
  H   H4742     1.0  0.58834  0.78833  0.30908  1.0000
  H   H4743     1.0  0.65370  0.51337  0.28197  1.0000
  N   N266      1.0  0.67406  0.87261  0.24279  1.0000
  C   C3940     1.0  0.72313  0.63287  0.25015  1.0000
  H   H4744     1.0  0.50005  0.69112  0.32933  1.0000
  H   H4745     1.0  0.51642  0.70116  0.26325  1.0000
  C   C3941     1.0  0.69569  0.61945  0.33985  1.0000
  S   S1057     1.0  0.72580  0.64991  0.24896  1.0000
  S   S1058     1.0  0.61854  0.78613  0.20347  1.0000
  C   C3942     1.0  0.59751  0.79383  0.32303  1.0000
  H   H4746     1.0  0.68734  0.77392  0.34928  1.0000
  C   C3943     1.0  0.71399  0.68869  0.25705  1.0000
  H   H4747     1.0  0.64836  0.51215  0.21608  1.0000
  C   C3944     1.0  0.50281  0.74171  0.27151  1.0000
  H   H4748     1.0  0.71163  0.58782  0.21728  1.0000
  H   H4749     1.0  0.61828  0.59486  0.32281  1.0000
  S   S1059     1.0  0.72314  0.61959  0.34091  1.0000
  C   C3945     1.0  0.61567  0.64777  0.31938  1.0000
  H   H4750     1.0  0.48725  0.63532  0.24171  1.0000
  H   H4751     1.0  0.66349  0.77348  0.36541  1.0000
  C   C3946     1.0  0.68733  0.73446  0.33741  1.0000
  C   C3947     1.0  0.64910  0.50517  0.29021  1.0000
  Fe  Fe528     1.0  0.62743  0.68036  0.20432  1.0000
  C   C3948     1.0  0.68603  0.86049  0.23953  1.0000
  H   H4752     1.0  0.66894  0.89551  0.23531  1.0000
  C   C3949     1.0  0.64944  0.86677  0.24996  1.0000
  H   H4753     1.0  0.69499  0.51050  0.22518  1.0000
  H   H4754     1.0  0.60722  0.64475  0.18911  1.0000
  C   C3950     1.0  0.59333  0.73519  0.35866  1.0000
  C   C3951     1.0  0.68911  0.80381  0.17870  1.0000
  S   S1060     1.0  0.73344  0.69176  0.19057  1.0000
  C   C3952     1.0  0.64894  0.48460  0.23639  1.0000
  H   H4755     1.0  0.64552  0.61141  0.32727  1.0000
  C   C3953     1.0  0.73166  0.87370  0.24981  1.0000
  S   S1061     1.0  0.71088  0.71784  0.21505  1.0000
  C   C3954     1.0  0.51842  0.71895  0.27900  1.0000
  N   N267      1.0  0.62895  0.69907  0.36571  1.0000
  C   C3955     1.0  0.61308  0.64074  0.17958  1.0000
  H   H4756     1.0  0.70792  0.60664  0.27455  1.0000
  H   H4757     1.0  0.57918  0.48736  0.23008  1.0000
  C   C3956     1.0  0.65639  0.49111  0.33289  1.0000
  C   C3957     1.0  0.72031  0.72232  0.28300  1.0000
  C   C3958     1.0  0.68173  0.69168  0.36821  1.0000
  H   H4758     1.0  0.68993  0.71080  0.36153  1.0000
  H   H4759     1.0  0.60327  0.71104  0.32945  1.0000
  C   C3959     1.0  0.61422  0.62659  0.17921  1.0000
  C   C3960     1.0  0.72541  0.51710  0.26395  1.0000
  C   C3961     1.0  0.61986  0.48222  0.21461  1.0000
  C   C3962     1.0  0.60901  0.50887  0.18285  1.0000
  C   C3963     1.0  0.72938  0.62836  0.18361  1.0000
  C   C3964     1.0  0.72238  0.59671  0.37706  1.0000
  C   C3965     1.0  0.49649  0.73185  0.31393  1.0000
  C   C3966     1.0  0.62646  0.70596  0.35109  1.0000
  C   C3967     1.0  0.58441  0.77421  0.34516  1.0000
  C   C3968     1.0  0.63794  0.50531  0.24663  1.0000
  H   H4760     1.0  0.58006  0.76648  0.35417  1.0000
  H   H4761     1.0  0.72471  0.73304  0.26070  1.0000
  H   H4762     1.0  0.59113  0.48252  0.19104  1.0000
  C   C3969     1.0  0.71471  0.74211  0.21964  1.0000
  H   H4763     1.0  0.70419  0.74704  0.21752  1.0000
  Fe  Fe529     1.0  0.61988  0.70721  0.18214  1.0000
  H   H4764     1.0  0.57684  0.75972  0.18612  1.0000
  H   H4765     1.0  0.68891  0.74631  0.19550  1.0000
  C   C3970     1.0  0.63298  0.86297  0.19187  1.0000
  S   S1062     1.0  0.60570  0.74733  0.37207  1.0000
  C   C3971     1.0  0.59303  0.78154  0.34790  1.0000
  H   H4766     1.0  0.64482  0.48953  0.22645  1.0000
  C   C3972     1.0  0.72224  0.69779  0.27283  1.0000
  C   C3973     1.0  0.72798  0.62645  0.23832  1.0000
  H   H4767     1.0  0.62204  0.83735  0.18682  1.0000
  S   S1063     1.0  0.69843  0.81259  0.18474  1.0000
  C   C3974     1.0  0.61446  0.70521  0.34657  1.0000
  C   C3975     1.0  0.72071  0.72777  0.21897  1.0000
  H   H4768     1.0  0.71974  0.73164  0.28685  1.0000
  H   H4769     1.0  0.59492  0.77933  0.35863  1.0000
  C   C3976     1.0  0.59506  0.73579  0.37198  1.0000
  N   N268      1.0  0.68155  0.73305  0.18649  1.0000
  C   C3977     1.0  0.72033  0.76428  0.30168  1.0000
  H   H4770     1.0  0.60679  0.70190  0.37661  1.0000
  C   C3978     1.0  0.63123  0.49103  0.29935  1.0000
  H   H4771     1.0  0.49931  0.70219  0.28724  1.0000
  C   C3979     1.0  0.73408  0.53304  0.28027  1.0000
  C   C3980     1.0  0.59825  0.50127  0.18896  1.0000
  C   C3981     1.0  0.73326  0.88735  0.24930  1.0000
  H   H4772     1.0  0.71828  0.68770  0.29588  1.0000
  C   C3982     1.0  0.61670  0.69333  0.37572  1.0000
  H   H4773     1.0  0.72878  0.60324  0.36860  1.0000
  H   H4774     1.0  0.72555  0.52729  0.28689  1.0000
  Fe  Fe530     1.0  0.69607  0.65775  0.36973  1.0000
  H   H4775     1.0  0.67816  0.72763  0.20967  1.0000
  Fe  Fe531     1.0  0.72940  0.66408  0.22685  1.0000
  H   H4776     1.0  0.71759  0.76119  0.22355  1.0000
  H   H4777     1.0  0.70277  0.73418  0.18639  1.0000
  H   H4778     1.0  0.61689  0.76485  0.19056  1.0000
  C   C3983     1.0  0.71999  0.67251  0.27847  1.0000
  C   C3984     1.0  0.58943  0.77579  0.17831  1.0000
  H   H4779     1.0  0.72073  0.66331  0.27380  1.0000
  H   H4780     1.0  0.72739  0.90440  0.26057  1.0000
  H   H4781     1.0  0.64868  0.48183  0.26389  1.0000
  C   C3985     1.0  0.48756  0.71030  0.31848  1.0000
  H   H4782     1.0  0.49239  0.62976  0.31404  1.0000
  H   H4783     1.0  0.71726  0.51792  0.27362  1.0000
  C   C3986     1.0  0.64348  0.66293  0.17921  1.0000
  C   C3987     1.0  0.65831  0.56194  0.18057  1.0000
  H   H4784     1.0  0.62313  0.71941  0.37169  1.0000
  H   H4785     1.0  0.72965  0.60782  0.23046  1.0000
  C   C3988     1.0  0.49621  0.63736  0.31704  1.0000
  H   H4786     1.0  0.64550  0.49776  0.33591  1.0000
  C   C3989     1.0  0.64155  0.68697  0.36481  1.0000
  H   H4787     1.0  0.71648  0.55230  0.25391  1.0000
  S   S1064     1.0  0.63693  0.79497  0.36699  1.0000
  H   H4788     1.0  0.63007  0.81193  0.19010  1.0000
  C   C3990     1.0  0.64404  0.58960  0.18397  1.0000
  C   C3991     1.0  0.63172  0.70952  0.37213  1.0000
  H   H4789     1.0  0.66381  0.55123  0.17922  1.0000
  S   S1065     1.0  0.70741  0.63504  0.37703  1.0000
  H   H4790     1.0  0.73317  0.54171  0.28573  1.0000
  H   H4791     1.0  0.63803  0.67383  0.17972  1.0000
  C   C3992     1.0  0.66765  0.74327  0.18590  1.0000
  H   H4792     1.0  0.72967  0.75133  0.33398  1.0000
  H   H4793     1.0  0.64452  0.80382  0.17777  1.0000
  C   C3993     1.0  0.65733  0.63473  0.17758  1.0000
  H   H4794     1.0  0.69548  0.58079  0.37992  1.0000
  H   H4795     1.0  0.69033  0.72243  0.40662  1.0000
  C   C3994     1.0  0.70857  0.70458  0.40992  1.0000
  H   H4796     1.0  0.67169  0.69241  0.49649  1.0000
  C   C3995     1.0  0.69967  0.73543  0.55031  1.0000
  H   H4797     1.0  0.49984  0.69835  0.55056  1.0000
  H   H4798     1.0  0.69706  0.67636  0.47713  1.0000
  H   H4799     1.0  0.56728  0.74293  0.56871  1.0000
  C   C3996     1.0  0.67419  0.73246  0.47479  1.0000
  H   H4800     1.0  0.71924  0.62719  0.55958  1.0000
  C   C3997     1.0  0.72393  0.59276  0.39152  1.0000
  H   H4801     1.0  0.66511  0.75145  0.46074  1.0000
  S   S1066     1.0  0.69447  0.67610  0.51366  1.0000
  C   C3998     1.0  0.72360  0.68926  0.39302  1.0000
  C   C3999     1.0  0.71575  0.65920  0.42942  1.0000
  S   S1067     1.0  0.72664  0.67917  0.48065  1.0000
  C   C4000     1.0  0.73331  0.62404  0.53935  1.0000
  H   H4802     1.0  0.72514  0.68739  0.41880  1.0000
  H   H4803     1.0  0.67833  0.76647  0.53681  1.0000
  S   S1068     1.0  0.67299  0.66651  0.37851  1.0000
  H   H4804     1.0  0.69773  0.57338  0.40527  1.0000
  S   S1069     1.0  0.70294  0.81107  0.54936  1.0000
  H   H4805     1.0  0.72667  0.63250  0.53302  1.0000
  C   C4001     1.0  0.57913  0.71934  0.38360  1.0000
  Fe  Fe532     1.0  0.63242  0.75769  0.52797  1.0000
  S   S1070     1.0  0.62778  0.78141  0.51939  1.0000
  S   S1071     1.0  0.61622  0.74502  0.54255  1.0000
  Fe  Fe533     1.0  0.66393  0.75468  0.51333  1.0000
  S   S1072     1.0  0.66138  0.77817  0.50373  1.0000
  S   S1073     1.0  0.68643  0.74219  0.50822  1.0000
  Fe  Fe534     1.0  0.64810  0.78092  0.52559  1.0000
  S   S1074     1.0  0.64926  0.79338  0.54135  1.0000
  Fe  Fe535     1.0  0.64168  0.77584  0.49849  1.0000
  S   S1075     1.0  0.63650  0.78467  0.47620  1.0000
  S   S1076     1.0  0.65176  0.75736  0.53534  1.0000
  S   S1077     1.0  0.64520  0.75214  0.50694  1.0000
  C   C4002     1.0  0.73178  0.64455  0.41293  1.0000
  N   N269      1.0  0.73196  0.56424  0.56985  1.0000
  H   H4806     1.0  0.60414  0.75974  0.51033  1.0000
  H   H4807     1.0  0.69265  0.77632  0.54610  1.0000
  H   H4808     1.0  0.55844  0.75804  0.53207  1.0000
  H   H4809     1.0  0.58582  0.76681  0.48068  1.0000
  H   H4810     1.0  0.73457  0.75689  0.56667  1.0000
  H   H4811     1.0  0.70567  0.66648  0.43229  1.0000
  C   C4003     1.0  0.70466  0.57988  0.39741  1.0000
  H   H4812     1.0  0.68224  0.71231  0.48735  1.0000
  H   H4813     1.0  0.70114  0.72396  0.55179  1.0000
  Fe  Fe536     1.0  0.61854  0.75016  0.38652  1.0000
  H   H4814     1.0  0.65822  0.69239  0.48785  1.0000
  C   C4004     1.0  0.59643  0.78826  0.48329  1.0000
  Fe  Fe537     1.0  0.62855  0.75443  0.41176  1.0000
  S   S1078     1.0  0.64858  0.76083  0.39749  1.0000
  S   S1079     1.0  0.62557  0.75012  0.43627  1.0000
  H   H4815     1.0  0.59311  0.73282  0.56085  1.0000
  H   H4816     1.0  0.73488  0.60892  0.41129  1.0000
  Fe  Fe538     1.0  0.65033  0.74267  0.38761  1.0000
  C   C4005     1.0  0.69517  0.76491  0.54707  1.0000
  S   S1080     1.0  0.61422  0.76892  0.39686  1.0000
  S   S1081     1.0  0.63119  0.73516  0.40251  1.0000
  C   C4006     1.0  0.70479  0.71367  0.43564  1.0000
  N   N270      1.0  0.73456  0.59713  0.39622  1.0000
  C   C4007     1.0  0.69799  0.69322  0.39851  1.0000
  C   C4008     1.0  0.55256  0.78062  0.52358  1.0000
  H   H4817     1.0  0.58921  0.72808  0.39485  1.0000
  H   H4818     1.0  0.66599  0.71215  0.45117  1.0000
  H   H4819     1.0  0.71922  0.57546  0.55421  1.0000
  C   C4009     1.0  0.58879  0.74403  0.55692  1.0000
  H   H4820     1.0  0.67214  0.67663  0.49128  1.0000
  S   S1082     1.0  0.54988  0.77121  0.56062  1.0000
  C   C4010     1.0  0.66977  0.68854  0.48789  1.0000
  C   C4011     1.0  0.68678  0.75932  0.54190  1.0000
  H   H4821     1.0  0.72240  0.71198  0.52256  1.0000
  C   C4012     1.0  0.66109  0.69139  0.38798  1.0000
  C   C4013     1.0  0.66076  0.70550  0.38815  1.0000
  C   C4014     1.0  0.56156  0.76711  0.52392  1.0000
  H   H4822     1.0  0.59506  0.75320  0.49321  1.0000
  S   S1083     1.0  0.73627  0.63779  0.39703  1.0000
  H   H4823     1.0  0.65342  0.68573  0.39576  1.0000
  H   H4824     1.0  0.65284  0.71068  0.39608  1.0000
  C   C4015     1.0  0.70647  0.76907  0.57066  1.0000
  H   H4825     1.0  0.59688  0.79667  0.48841  1.0000
  H   H4826     1.0  0.71091  0.65684  0.41038  1.0000
  H   H4827     1.0  0.71596  0.73327  0.56095  1.0000
  N   N271      1.0  0.59361  0.77506  0.49410  1.0000
  H   H4828     1.0  0.71290  0.78265  0.54315  1.0000
  H   H4829     1.0  0.68788  0.73046  0.42831  1.0000
  C   C4016     1.0  0.59370  0.77396  0.57594  1.0000
  H   H4830     1.0  0.68303  0.69003  0.45226  1.0000
  C   C4017     1.0  0.63503  0.77443  0.46473  1.0000
  C   C4018     1.0  0.63367  0.78124  0.45057  1.0000
  C   C4019     1.0  0.63132  0.77385  0.44151  1.0000
  C   C4020     1.0  0.62999  0.75959  0.44662  1.0000
  C   C4021     1.0  0.63147  0.75275  0.46074  1.0000
  C   C4022     1.0  0.63417  0.76003  0.46966  1.0000
  H   H4831     1.0  0.63428  0.79238  0.44660  1.0000
  H   H4832     1.0  0.63016  0.77931  0.43071  1.0000
  H   H4833     1.0  0.63049  0.74173  0.46483  1.0000
  H   H4834     1.0  0.63527  0.75453  0.48044  1.0000
  C   C4023     1.0  0.68775  0.80646  0.54734  1.0000
  C   C4024     1.0  0.68753  0.80468  0.53385  1.0000
  C   C4025     1.0  0.67604  0.80036  0.53189  1.0000
  C   C4026     1.0  0.66446  0.79800  0.54338  1.0000
  C   C4027     1.0  0.66465  0.79993  0.55682  1.0000
  C   C4028     1.0  0.67623  0.80400  0.55884  1.0000
  H   H4835     1.0  0.69633  0.80660  0.52484  1.0000
  H   H4836     1.0  0.67601  0.79913  0.52143  1.0000
  H   H4837     1.0  0.65580  0.79824  0.56577  1.0000
  H   H4838     1.0  0.72770  0.76896  0.53736  1.0000
  H   H4839     1.0  0.71297  0.77329  0.57524  1.0000
  H   H4840     1.0  0.72405  0.74375  0.57358  1.0000
  H   H4841     1.0  0.61860  0.68877  0.38678  1.0000
  C   C4029     1.0  0.60735  0.77460  0.56761  1.0000
  H   H4842     1.0  0.54981  0.80298  0.51362  1.0000
  H   H4843     1.0  0.72585  0.58693  0.56057  1.0000
  H   H4844     1.0  0.72819  0.77827  0.55031  1.0000
  H   H4845     1.0  0.61298  0.73374  0.57457  1.0000
  H   H4846     1.0  0.72399  0.67890  0.40096  1.0000
  Fe  Fe539     1.0  0.72438  0.64500  0.37870  1.0000
  C   C4030     1.0  0.69229  0.69427  0.51312  1.0000
  C   C4031     1.0  0.67888  0.70233  0.51847  1.0000
  C   C4032     1.0  0.67690  0.71713  0.51706  1.0000
  C   C4033     1.0  0.68836  0.72380  0.51028  1.0000
  C   C4034     1.0  0.70173  0.71572  0.50501  1.0000
  C   C4035     1.0  0.70375  0.70096  0.50658  1.0000
  H   H4847     1.0  0.66999  0.69716  0.52357  1.0000
  H   H4848     1.0  0.66654  0.72336  0.52117  1.0000
  H   H4849     1.0  0.71048  0.72092  0.49945  1.0000
  H   H4850     1.0  0.71415  0.69479  0.50262  1.0000
  C   C4036     1.0  0.56839  0.76411  0.55594  1.0000
  C   C4037     1.0  0.57742  0.77278  0.54625  1.0000
  C   C4038     1.0  0.59213  0.76713  0.54208  1.0000
  C   C4039     1.0  0.59785  0.75270  0.54737  1.0000
  H   H4851     1.0  0.69854  0.68949  0.38882  1.0000
  C   C4040     1.0  0.72722  0.60523  0.40767  1.0000
  H   H4852     1.0  0.57301  0.78390  0.54201  1.0000
  H   H4853     1.0  0.59902  0.77396  0.53485  1.0000
  C   C4041     1.0  0.66514  0.73226  0.45483  1.0000
  H   H4854     1.0  0.69794  0.77831  0.56722  1.0000
  H   H4855     1.0  0.69933  0.71983  0.38467  1.0000
  Fe  Fe540     1.0  0.63473  0.77368  0.38201  1.0000
  Fe  Fe541     1.0  0.70730  0.81467  0.56938  1.0000
  C   C4042     1.0  0.69772  0.71655  0.41346  1.0000
  S   S1084     1.0  0.72015  0.64688  0.49430  1.0000
  H   H4856     1.0  0.68754  0.70089  0.40052  1.0000
  S   S1085     1.0  0.72885  0.81877  0.56790  1.0000
  H   H4857     1.0  0.72139  0.59883  0.41741  1.0000
  H   H4858     1.0  0.58166  0.75478  0.51546  1.0000
  C   C4043     1.0  0.73421  0.70513  0.55295  1.0000
  C   C4044     1.0  0.49357  0.71929  0.57215  1.0000
  H   H4859     1.0  0.61110  0.77039  0.55793  1.0000
  H   H4860     1.0  0.72167  0.69534  0.54578  1.0000
  C   C4045     1.0  0.59484  0.76405  0.48614  1.0000
  C   C4046     1.0  0.69604  0.72110  0.42603  1.0000
  C   C4047     1.0  0.55677  0.79246  0.51363  1.0000
  C   C4048     1.0  0.69392  0.68830  0.47452  1.0000
  H   H4861     1.0  0.62661  0.78113  0.56463  1.0000
  C   C4049     1.0  0.67652  0.68667  0.46321  1.0000
  H   H4862     1.0  0.72492  0.68656  0.38251  1.0000
  C   C4050     1.0  0.61623  0.78064  0.57165  1.0000
  H   H4863     1.0  0.67615  0.73837  0.48145  1.0000
  C   C4051     1.0  0.71704  0.69699  0.42017  1.0000
  Fe  Fe542     1.0  0.73126  0.65872  0.47309  1.0000
  C   C4052     1.0  0.71870  0.65379  0.41695  1.0000
  C   C4053     1.0  0.72913  0.62103  0.55441  1.0000
  C   C4054     1.0  0.58804  0.72769  0.38450  1.0000
  C   C4055     1.0  0.66863  0.71727  0.45800  1.0000
  Fe  Fe543     1.0  0.71639  0.66704  0.50184  1.0000
  H   H4864     1.0  0.69632  0.69173  0.48310  1.0000
  H   H4865     1.0  0.49550  0.72740  0.56244  1.0000
  C   C4056     1.0  0.72129  0.77345  0.54683  1.0000
  C   C4057     1.0  0.57000  0.79086  0.50395  1.0000
  H   H4866     1.0  0.60697  0.78620  0.47574  1.0000
  C   C4058     1.0  0.57944  0.77720  0.50401  1.0000
  C   C4059     1.0  0.70820  0.74096  0.55543  1.0000
  C   C4060     1.0  0.57485  0.76539  0.51438  1.0000
  C   C4061     1.0  0.67514  0.70940  0.46972  1.0000
  H   H4867     1.0  0.57264  0.80051  0.49667  1.0000
  H   H4868     1.0  0.70112  0.69209  0.46420  1.0000
  H   H4869     1.0  0.70345  0.71725  0.44537  1.0000
  H   H4870     1.0  0.73362  0.69783  0.56338  1.0000
  H   H4871     1.0  0.58833  0.79261  0.47658  1.0000
  C   C4062     1.0  0.57416  0.74974  0.56136  1.0000
  H   H4872     1.0  0.60411  0.77809  0.50874  1.0000
  H   H4873     1.0  0.68255  0.74027  0.53941  1.0000
  S   S1086     1.0  0.67176  0.72960  0.37933  1.0000
  C   C4063     1.0  0.72850  0.57631  0.55773  1.0000
  C   C4064     1.0  0.72569  0.65527  0.43821  1.0000
  H   H4874     1.0  0.58685  0.76925  0.57278  1.0000
  S   S1087     1.0  0.72152  0.66306  0.45342  1.0000
  C   C4065     1.0  0.70983  0.71220  0.38406  1.0000
  H   H4875     1.0  0.73414  0.71932  0.50055  1.0000
  N   N272      1.0  0.71008  0.69985  0.39662  1.0000
  N   N273      1.0  0.67873  0.69353  0.47364  1.0000
  C   C4066     1.0  0.70642  0.75598  0.55360  1.0000
  C   C4067     1.0  0.60485  0.77012  0.50253  1.0000
  C   C4068     1.0  0.71479  0.58414  0.40156  1.0000
  C   C4069     1.0  0.66797  0.73983  0.46316  1.0000
  H   H4876     1.0  0.66509  0.68916  0.46273  1.0000
  C   C4070     1.0  0.68909  0.74460  0.54342  1.0000
  H   H4877     1.0  0.57360  0.71324  0.39333  1.0000
  H   H4878     1.0  0.61571  0.76863  0.49549  1.0000
  H   H4879     1.0  0.65994  0.73810  0.44599  1.0000
  C   C4071     1.0  0.70337  0.58402  0.38317  1.0000
  H   H4880     1.0  0.71719  0.74927  0.51997  1.0000
  C   C4072     1.0  0.67769  0.71749  0.47806  1.0000
  C   C4073     1.0  0.72127  0.74314  0.51132  1.0000
  H   H4881     1.0  0.71938  0.61498  0.40376  1.0000
  H   H4882     1.0  0.67986  0.67476  0.46622  1.0000
  H   H4883     1.0  0.54250  0.78194  0.53137  1.0000
  H   H4884     1.0  0.71366  0.73630  0.51303  1.0000
  H   H4885     1.0  0.69785  0.68381  0.40773  1.0000
  H   H4886     1.0  0.67621  0.80533  0.56927  1.0000
  H   H4887     1.0  0.60485  0.76307  0.47769  1.0000
  C   C4074     1.0  0.49139  0.70812  0.54824  1.0000
  S   S1088     1.0  0.73600  0.66051  0.51081  1.0000
  H   H4888     1.0  0.62949  0.80293  0.56625  1.0000
  H   H4889     1.0  0.72915  0.54859  0.56027  1.0000
  N   N274      1.0  0.71535  0.76232  0.55863  1.0000
  H   H4890     1.0  0.49649  0.71748  0.54432  1.0000
  H   H4891     1.0  0.71801  0.71823  0.38301  1.0000
  C   C4075     1.0  0.71515  0.70154  0.43279  1.0000
  H   H4892     1.0  0.72060  0.75089  0.50087  1.0000
  H   H4893     1.0  0.48750  0.76231  0.57539  1.0000
  C   C4076     1.0  0.72814  0.71327  0.52966  1.0000
  C   C4077     1.0  0.67115  0.71251  0.37858  1.0000
  H   H4894     1.0  0.61395  0.81349  0.57555  1.0000
  H   H4895     1.0  0.71540  0.58064  0.41273  1.0000
  H   H4896     1.0  0.73305  0.69340  0.39233  1.0000
  C   C4078     1.0  0.72761  0.75169  0.56373  1.0000
  H   H4897     1.0  0.48749  0.70741  0.53907  1.0000
  C   C4079     1.0  0.72752  0.70374  0.54305  1.0000
  H   H4898     1.0  0.72178  0.69552  0.44042  1.0000
  N   N275      1.0  0.73595  0.73455  0.51155  1.0000
  C   C4080     1.0  0.73587  0.72428  0.52560  1.0000
  H   H4899     1.0  0.73614  0.61646  0.37984  1.0000
  H   H4900     1.0  0.63226  0.70511  0.38361  1.0000
  H   H4901     1.0  0.73454  0.74589  0.55534  1.0000
  C   C4081     1.0  0.62408  0.80555  0.57690  1.0000
  C   C4082     1.0  0.67169  0.68444  0.37809  1.0000
  C   C4083     1.0  0.70080  0.57551  0.59969  1.0000
  S   S1089     1.0  0.69472  0.62572  0.75644  1.0000
  H   H4902     1.0  0.69283  0.83895  0.61345  1.0000
  H   H4903     1.0  0.57806  0.72940  0.61064  1.0000
  H   H4904     1.0  0.49607  0.70547  0.67540  1.0000
  H   H4905     1.0  0.73172  0.95265  0.73280  1.0000
  C   C4084     1.0  0.73000  0.69072  0.73652  1.0000
  Fe  Fe544     1.0  0.69042  0.61750  0.73943  1.0000
  S   S1090     1.0  0.69224  0.63792  0.72283  1.0000
  H   H4906     1.0  0.64236  0.68274  0.74306  1.0000
  S   S1091     1.0  0.72207  0.63640  0.73153  1.0000
  H   H4907     1.0  0.50875  0.65018  0.67965  1.0000
  C   C4085     1.0  0.49408  0.67756  0.65247  1.0000
  Fe  Fe545     1.0  0.71522  0.62708  0.71726  1.0000
  S   S1092     1.0  0.71334  0.60638  0.73308  1.0000
  Fe  Fe546     1.0  0.62744  0.56292  0.70147  1.0000
  S   S1093     1.0  0.63855  0.54357  0.71567  1.0000
  S   S1094     1.0  0.60585  0.57559  0.71059  1.0000
  Fe  Fe547     1.0  0.65223  0.56127  0.67613  1.0000
  S   S1095     1.0  0.66508  0.54204  0.68830  1.0000
  S   S1096     1.0  0.66194  0.57094  0.65344  1.0000
  Fe  Fe548     1.0  0.64498  0.53366  0.69627  1.0000
  S   S1097     1.0  0.64997  0.51012  0.69488  1.0000
  Fe  Fe549     1.0  0.65753  0.55381  0.70622  1.0000
  S   S1098     1.0  0.67391  0.55513  0.71744  1.0000
  S   S1099     1.0  0.63252  0.55237  0.68278  1.0000
  S   S1100     1.0  0.64599  0.57358  0.69342  1.0000
  S   S1101     1.0  0.72441  0.57474  0.65133  1.0000
  Fe  Fe550     1.0  0.63546  0.72233  0.73616  1.0000
  H   H4908     1.0  0.65601  0.48374  0.75308  1.0000
  Fe  Fe551     1.0  0.61082  0.74348  0.74876  1.0000
  H   H4909     1.0  0.65997  0.59790  0.68288  1.0000
  S   S1102     1.0  0.59607  0.76476  0.74356  1.0000
  H   H4910     1.0  0.55339  0.87591  0.63086  1.0000
  H   H4911     1.0  0.66331  0.66204  0.70875  1.0000
  S   S1103     1.0  0.63446  0.74137  0.74444  1.0000
  S   S1104     1.0  0.61201  0.72584  0.73824  1.0000
  Fe  Fe552     1.0  0.57476  0.65695  0.69395  1.0000
  S   S1105     1.0  0.55822  0.65103  0.71369  1.0000
  S   S1106     1.0  0.59395  0.64221  0.68344  1.0000
  Fe  Fe553     1.0  0.55962  0.68829  0.68904  1.0000
  S   S1107     1.0  0.54181  0.68492  0.70835  1.0000
  S   S1108     1.0  0.55960  0.71028  0.67517  1.0000
  Fe  Fe554     1.0  0.55989  0.67113  0.71890  1.0000
  S   S1109     1.0  0.56259  0.67081  0.74091  1.0000
  Fe  Fe555     1.0  0.54174  0.66532  0.70118  1.0000
  S   S1110     1.0  0.52531  0.65807  0.69420  1.0000
  S   S1111     1.0  0.57747  0.67593  0.69997  1.0000
  S   S1112     1.0  0.55856  0.66990  0.68113  1.0000
  H   H4912     1.0  0.64700  0.49352  0.72415  1.0000
  H   H4913     1.0  0.61853  0.83326  0.74555  1.0000
  S   S1113     1.0  0.72581  0.92066  0.75421  1.0000
  Fe  Fe556     1.0  0.67625  0.84104  0.72478  1.0000
  S   S1114     1.0  0.69499  0.82645  0.71375  1.0000
  S   S1115     1.0  0.67986  0.84896  0.74275  1.0000
  Fe  Fe557     1.0  0.65552  0.83454  0.71032  1.0000
  S   S1116     1.0  0.67277  0.81969  0.69835  1.0000
  S   S1117     1.0  0.63209  0.83718  0.71103  1.0000
  Fe  Fe558     1.0  0.68062  0.81127  0.71873  1.0000
  S   S1118     1.0  0.68599  0.78796  0.72911  1.0000
  Fe  Fe559     1.0  0.68545  0.83627  0.69438  1.0000
  S   S1119     1.0  0.69775  0.84374  0.67218  1.0000
  S   S1120     1.0  0.66251  0.82488  0.73115  1.0000
  S   S1121     1.0  0.66758  0.85210  0.70489  1.0000
  Fe  Fe560     1.0  0.58806  0.80090  0.63955  1.0000
  S   S1122     1.0  0.59822  0.77768  0.64465  1.0000
  S   S1123     1.0  0.57483  0.80831  0.62279  1.0000
  Fe  Fe561     1.0  0.60332  0.80836  0.65859  1.0000
  S   S1124     1.0  0.61472  0.78552  0.66520  1.0000
  S   S1125     1.0  0.60480  0.82811  0.66464  1.0000
  Fe  Fe562     1.0  0.61809  0.78499  0.64198  1.0000
  S   S1126     1.0  0.63773  0.77638  0.62685  1.0000
  Fe  Fe563     1.0  0.59366  0.78050  0.66710  1.0000
  S   S1127     1.0  0.58356  0.76490  0.68519  1.0000
  S   S1128     1.0  0.60839  0.80818  0.63514  1.0000
  S   S1129     1.0  0.58180  0.80332  0.66235  1.0000
  Fe  Fe564     1.0  0.52889  0.76225  0.61275  1.0000
  S   S1130     1.0  0.54943  0.75195  0.59992  1.0000
  S   S1131     1.0  0.52989  0.77103  0.63098  1.0000
  Fe  Fe565     1.0  0.53954  0.73308  0.60526  1.0000
  S   S1132     1.0  0.55142  0.71118  0.61441  1.0000
  S   S1133     1.0  0.51962  0.74277  0.61925  1.0000
  H   H4914     1.0  0.71493  0.88063  0.70901  1.0000
  C   C4086     1.0  0.65009  0.78647  0.62519  1.0000
  C   C4087     1.0  0.66217  0.78631  0.61393  1.0000
  C   C4088     1.0  0.67183  0.79470  0.61252  1.0000
  C   C4089     1.0  0.66954  0.80302  0.62253  1.0000
  C   C4090     1.0  0.65743  0.80318  0.63375  1.0000
  C   C4091     1.0  0.64766  0.79502  0.63499  1.0000
  H   H4915     1.0  0.66405  0.77976  0.60629  1.0000
  H   H4916     1.0  0.68104  0.79465  0.60376  1.0000
  H   H4917     1.0  0.63835  0.79526  0.64368  1.0000
  C   C4092     1.0  0.56278  0.79751  0.62494  1.0000
  C   C4093     1.0  0.55799  0.79723  0.61308  1.0000
  C   C4094     1.0  0.54818  0.78885  0.61470  1.0000
  C   C4095     1.0  0.54272  0.78113  0.62832  1.0000
  C   C4096     1.0  0.54750  0.78147  0.64017  1.0000
  C   C4097     1.0  0.55771  0.78938  0.63845  1.0000
  H   H4918     1.0  0.56183  0.80352  0.60260  1.0000
  H   H4919     1.0  0.54453  0.78868  0.60550  1.0000
  H   H4920     1.0  0.54333  0.77552  0.65073  1.0000
  H   H4921     1.0  0.56131  0.78954  0.64769  1.0000
  C   C4098     1.0  0.71628  0.83962  0.67011  1.0000
  C   C4099     1.0  0.72442  0.84760  0.65848  1.0000
  H   H4922     1.0  0.72527  0.74746  0.59824  1.0000
  H   H4923     1.0  0.62244  0.74681  0.58619  1.0000
  C   C4100     1.0  0.73150  0.91971  0.71487  1.0000
  H   H4924     1.0  0.71992  0.81842  0.74081  1.0000
  H   H4925     1.0  0.71932  0.85573  0.65056  1.0000
  H   H4926     1.0  0.68921  0.72074  0.74570  1.0000
  C   C4101     1.0  0.73061  0.86502  0.68999  1.0000
  H   H4927     1.0  0.71682  0.82239  0.68887  1.0000
  C   C4102     1.0  0.62532  0.83318  0.69826  1.0000
  C   C4103     1.0  0.61049  0.83557  0.70029  1.0000
  C   C4104     1.0  0.60440  0.83307  0.69039  1.0000
  C   C4105     1.0  0.61301  0.82788  0.67837  1.0000
  C   C4106     1.0  0.62792  0.82514  0.67640  1.0000
  C   C4107     1.0  0.63408  0.82781  0.68633  1.0000
  H   H4928     1.0  0.60362  0.83976  0.70941  1.0000
  H   H4929     1.0  0.59291  0.83558  0.69184  1.0000
  H   H4930     1.0  0.63469  0.82157  0.66691  1.0000
  H   H4931     1.0  0.64554  0.82603  0.68455  1.0000
  H   H4932     1.0  0.67304  0.48859  0.74675  1.0000
  C   C4108     1.0  0.59492  0.73089  0.59213  1.0000
  C   C4109     1.0  0.72058  0.83770  0.72434  1.0000
  C   C4110     1.0  0.68565  0.86437  0.74251  1.0000
  C   C4111     1.0  0.68406  0.87689  0.73177  1.0000
  C   C4112     1.0  0.68865  0.88888  0.73226  1.0000
  C   C4113     1.0  0.64257  0.51090  0.75769  1.0000
  H   H4933     1.0  0.73626  0.95147  0.74923  1.0000
  H   H4934     1.0  0.67907  0.87744  0.72324  1.0000
  H   H4935     1.0  0.68721  0.89856  0.72401  1.0000
  C   C4114     1.0  0.55853  0.71075  0.65779  1.0000
  C   C4115     1.0  0.56487  0.69883  0.65161  1.0000
  C   C4116     1.0  0.56311  0.69911  0.63802  1.0000
  C   C4117     1.0  0.55502  0.71131  0.63062  1.0000
  C   C4118     1.0  0.54930  0.72341  0.63655  1.0000
  C   C4119     1.0  0.55101  0.72314  0.65011  1.0000
  H   H4936     1.0  0.57122  0.68944  0.65725  1.0000
  H   H4937     1.0  0.56785  0.68984  0.63333  1.0000
  H   H4938     1.0  0.54340  0.73303  0.63080  1.0000
  H   H4939     1.0  0.54627  0.73248  0.65472  1.0000
  C   C4120     1.0  0.59324  0.76641  0.72658  1.0000
  C   C4121     1.0  0.58024  0.77420  0.72307  1.0000
  C   C4122     1.0  0.57736  0.77406  0.71012  1.0000
  C   C4123     1.0  0.58757  0.76627  0.70066  1.0000
  C   C4124     1.0  0.60078  0.75899  0.70390  1.0000
  C   C4125     1.0  0.60361  0.75907  0.71687  1.0000
  H   H4940     1.0  0.57221  0.77989  0.73059  1.0000
  H   H4941     1.0  0.56716  0.77977  0.70755  1.0000
  H   H4942     1.0  0.60870  0.75301  0.69656  1.0000
  H   H4943     1.0  0.61381  0.75335  0.71939  1.0000
  C   C4126     1.0  0.59042  0.68788  0.75931  1.0000
  C   C4127     1.0  0.71039  0.74282  0.73973  1.0000
  C   C4128     1.0  0.57331  0.67365  0.76190  1.0000
  C   C4129     1.0  0.57388  0.67754  0.74714  1.0000
  C   C4130     1.0  0.58310  0.68648  0.73828  1.0000
  C   C4131     1.0  0.59132  0.69172  0.74439  1.0000
  H   H4944     1.0  0.58159  0.72801  0.69437  1.0000
  C   C4132     1.0  0.53061  0.69104  0.66229  1.0000
  H   H4945     1.0  0.58371  0.68952  0.72685  1.0000
  H   H4946     1.0  0.59820  0.69880  0.73763  1.0000
  C   C4133     1.0  0.71569  0.78906  0.74895  1.0000
  C   C4134     1.0  0.70858  0.79000  0.73829  1.0000
  C   C4135     1.0  0.69522  0.78648  0.74218  1.0000
  H   H4947     1.0  0.53510  0.69600  0.66827  1.0000
  H   H4948     1.0  0.71348  0.79330  0.72706  1.0000
  S   S1134     1.0  0.63563  0.70705  0.75747  1.0000
  C   C4136     1.0  0.67923  0.57230  0.65271  1.0000
  C   C4137     1.0  0.68802  0.57719  0.63957  1.0000
  C   C4138     1.0  0.70198  0.57792  0.63900  1.0000
  C   C4139     1.0  0.70714  0.57370  0.65160  1.0000
  C   C4140     1.0  0.69825  0.56898  0.66473  1.0000
  C   C4141     1.0  0.68430  0.56846  0.66529  1.0000
  H   H4949     1.0  0.68395  0.58055  0.62991  1.0000
  H   H4950     1.0  0.70862  0.58201  0.62889  1.0000
  H   H4951     1.0  0.70209  0.56569  0.67452  1.0000
  H   H4952     1.0  0.67744  0.56531  0.67555  1.0000
  C   C4142     1.0  0.60304  0.59416  0.70333  1.0000
  C   C4143     1.0  0.61140  0.59971  0.69018  1.0000
  C   C4144     1.0  0.60870  0.61451  0.68433  1.0000
  C   C4145     1.0  0.59765  0.62385  0.69160  1.0000
  C   C4146     1.0  0.58949  0.61835  0.70491  1.0000
  C   C4147     1.0  0.59208  0.60352  0.71068  1.0000
  H   H4953     1.0  0.61975  0.59256  0.68433  1.0000
  H   H4954     1.0  0.61506  0.61868  0.67402  1.0000
  H   H4955     1.0  0.58107  0.62545  0.71070  1.0000
  H   H4956     1.0  0.58561  0.59927  0.72088  1.0000
  C   C4148     1.0  0.68327  0.68006  0.73659  1.0000
  C   C4149     1.0  0.67992  0.67902  0.72424  1.0000
  C   C4150     1.0  0.67046  0.69038  0.71744  1.0000
  H   H4957     1.0  0.52019  0.71969  0.65824  1.0000
  H   H4958     1.0  0.68432  0.66938  0.72014  1.0000
  H   H4959     1.0  0.66744  0.68947  0.70817  1.0000
  C   C4151     1.0  0.67197  0.59485  0.73351  1.0000
  C   C4152     1.0  0.66007  0.59353  0.72952  1.0000
  C   C4153     1.0  0.66062  0.58161  0.72425  1.0000
  C   C4154     1.0  0.67298  0.57071  0.72323  1.0000
  C   C4155     1.0  0.68485  0.57203  0.72726  1.0000
  C   C4156     1.0  0.68442  0.58411  0.73221  1.0000
  H   H4960     1.0  0.65035  0.60169  0.73058  1.0000
  H   H4961     1.0  0.65137  0.58068  0.72127  1.0000
  H   H4962     1.0  0.69441  0.56361  0.72663  1.0000
  H   H4963     1.0  0.69709  0.61784  0.69260  1.0000
  C   C4157     1.0  0.70177  0.55107  0.59979  1.0000
  H   H4964     1.0  0.57825  0.74399  0.72598  1.0000
  H   H4965     1.0  0.66938  0.82792  0.77246  1.0000
  C   C4158     1.0  0.50650  0.66042  0.69683  1.0000
  C   C4159     1.0  0.49669  0.66714  0.70737  1.0000
  C   C4160     1.0  0.51722  0.69046  0.63886  1.0000
  Fe  Fe566     1.0  0.51059  0.75099  0.59948  1.0000
  H   H4966     1.0  0.50048  0.67105  0.71439  1.0000
  C   C4161     1.0  0.60741  0.73570  0.58514  1.0000
  H   H4967     1.0  0.63296  0.75561  0.77638  1.0000
  C   C4162     1.0  0.61603  0.49345  0.69746  1.0000
  C   C4163     1.0  0.62415  0.50296  0.69751  1.0000
  C   C4164     1.0  0.63906  0.49917  0.69400  1.0000
  C   C4165     1.0  0.72296  0.82896  0.68017  1.0000
  C   C4166     1.0  0.58762  0.73354  0.60564  1.0000
  H   H4968     1.0  0.60452  0.49641  0.70036  1.0000
  H   H4969     1.0  0.61886  0.51312  0.70045  1.0000
  C   C4167     1.0  0.69000  0.88571  0.64456  1.0000
  C   C4168     1.0  0.51636  0.71375  0.65264  1.0000
  H   H4970     1.0  0.58335  0.83123  0.62878  1.0000
  C   C4169     1.0  0.56955  0.75115  0.62654  1.0000
  C   C4170     1.0  0.71816  0.72247  0.75803  1.0000
  H   H4971     1.0  0.62231  0.85786  0.73891  1.0000
  C   C4171     1.0  0.50131  0.65535  0.68787  1.0000
  N   N276      1.0  0.61421  0.64394  0.72122  1.0000
  C   C4172     1.0  0.61523  0.62856  0.72841  1.0000
  C   C4173     1.0  0.60283  0.65249  0.73063  1.0000
  C   C4174     1.0  0.60976  0.64611  0.70762  1.0000
  C   C4175     1.0  0.62772  0.64870  0.71813  1.0000
  C   C4176     1.0  0.62836  0.66318  0.71145  1.0000
  C   C4177     1.0  0.64055  0.63930  0.72145  1.0000
  C   C4178     1.0  0.64106  0.66790  0.70813  1.0000
  C   C4179     1.0  0.65317  0.64414  0.71808  1.0000
  C   C4180     1.0  0.65345  0.65838  0.71141  1.0000
  H   H4972     1.0  0.61817  0.62614  0.73894  1.0000
  H   H4973     1.0  0.60489  0.62536  0.73053  1.0000
  H   H4974     1.0  0.62316  0.62147  0.72158  1.0000
  H   H4975     1.0  0.60612  0.65210  0.74053  1.0000
  H   H4976     1.0  0.59269  0.64864  0.73397  1.0000
  H   H4977     1.0  0.59998  0.66392  0.72518  1.0000
  H   H4978     1.0  0.61787  0.63974  0.70021  1.0000
  H   H4979     1.0  0.59951  0.64280  0.70962  1.0000
  H   H4980     1.0  0.60801  0.65747  0.70169  1.0000
  H   H4981     1.0  0.61905  0.67096  0.70862  1.0000
  H   H4982     1.0  0.64121  0.62812  0.72656  1.0000
  H   H4983     1.0  0.64131  0.67900  0.70295  1.0000
  H   H4984     1.0  0.66284  0.63670  0.72054  1.0000
  H   H4985     1.0  0.57888  0.73141  0.64843  1.0000
  C   C4181     1.0  0.69661  0.87593  0.75407  1.0000
  H   H4986     1.0  0.65559  0.80963  0.64148  1.0000
  H   H4987     1.0  0.68072  0.49561  0.62159  1.0000
  H   H4988     1.0  0.71828  0.67100  0.72133  1.0000
  H   H4989     1.0  0.66395  0.84992  0.64230  1.0000
  H   H4990     1.0  0.63754  0.50187  0.76117  1.0000
  H   H4991     1.0  0.59083  0.72507  0.58704  1.0000
  H   H4992     1.0  0.70355  0.86946  0.61665  1.0000
  C   C4182     1.0  0.69013  0.49929  0.64262  1.0000
  H   H4993     1.0  0.57933  0.74074  0.75084  1.0000
  H   H4994     1.0  0.55827  0.74574  0.69776  1.0000
  C   C4183     1.0  0.70767  0.86006  0.70206  1.0000
  H   H4995     1.0  0.54727  0.74572  0.71560  1.0000
  H   H4996     1.0  0.62480  0.67942  0.74955  1.0000
  S   S1135     1.0  0.68165  0.81324  0.62134  1.0000
  H   H4997     1.0  0.65724  0.48277  0.68765  1.0000
  H   H4998     1.0  0.72936  0.92821  0.72092  1.0000
  H   H4999     1.0  0.56337  0.75218  0.71007  1.0000
  C   C4184     1.0  0.67772  0.69260  0.74179  1.0000
  H   H5000     1.0  0.68437  0.83624  0.65251  1.0000
  C   C4185     1.0  0.72018  0.86949  0.71359  1.0000
  C   C4186     1.0  0.55765  0.88437  0.64608  1.0000
  C   C4187     1.0  0.57081  0.86796  0.66323  1.0000
  C   C4188     1.0  0.56388  0.88180  0.65770  1.0000
  H   H5001     1.0  0.55226  0.89518  0.64182  1.0000
  H   H5002     1.0  0.57577  0.86592  0.67222  1.0000
  C   C4189     1.0  0.61863  0.65310  0.76578  1.0000
  C   C4190     1.0  0.67831  0.50392  0.65345  1.0000
  H   H5003     1.0  0.69979  0.85769  0.71229  1.0000
  H   H5004     1.0  0.59038  0.76376  0.62477  1.0000
  C   C4191     1.0  0.63774  0.85301  0.75188  1.0000
  C   C4192     1.0  0.64564  0.84234  0.76091  1.0000
  C   C4193     1.0  0.64069  0.63667  0.75815  1.0000
  H   H5005     1.0  0.53083  0.67971  0.66816  1.0000
  H   H5006     1.0  0.67002  0.49822  0.71485  1.0000
  S   S1136     1.0  0.71960  0.81705  0.60272  1.0000
  H   H5007     1.0  0.56381  0.74459  0.62390  1.0000
  C   C4194     1.0  0.71926  0.56372  0.58188  1.0000
  C   C4195     1.0  0.65295  0.51272  0.74461  1.0000
  H   H5008     1.0  0.50563  0.71989  0.65085  1.0000
  H   H5009     1.0  0.71787  0.54151  0.58424  1.0000
  H   H5010     1.0  0.70920  0.69019  0.73484  1.0000
  H   H5011     1.0  0.72437  0.59640  0.66773  1.0000
  H   H5012     1.0  0.72337  0.81976  0.76486  1.0000
  N   N277      1.0  0.63255  0.78752  0.71726  1.0000
  C   C4196     1.0  0.64351  0.79613  0.71349  1.0000
  C   C4197     1.0  0.61933  0.79719  0.71322  1.0000
  C   C4198     1.0  0.62914  0.78215  0.73307  1.0000
  C   C4199     1.0  0.63814  0.77532  0.71002  1.0000
  C   C4200     1.0  0.65012  0.76453  0.71353  1.0000
  C   C4201     1.0  0.63214  0.77382  0.69928  1.0000
  C   C4202     1.0  0.65534  0.75269  0.70717  1.0000
  C   C4203     1.0  0.63759  0.76203  0.69285  1.0000
  C   C4204     1.0  0.64905  0.75142  0.69690  1.0000
  H   H5013     1.0  0.65339  0.78995  0.71728  1.0000
  H   H5014     1.0  0.64665  0.80000  0.70165  1.0000
  H   H5015     1.0  0.63956  0.80573  0.71831  1.0000
  H   H5016     1.0  0.62120  0.80228  0.70156  1.0000
  H   H5017     1.0  0.61528  0.80618  0.71891  1.0000
  H   H5018     1.0  0.61058  0.79135  0.71598  1.0000
  H   H5019     1.0  0.62164  0.77484  0.73619  1.0000
  H   H5020     1.0  0.63873  0.77619  0.73741  1.0000
  H   H5021     1.0  0.62399  0.79104  0.73881  1.0000
  H   H5022     1.0  0.65544  0.76511  0.72134  1.0000
  H   H5023     1.0  0.62308  0.78148  0.69577  1.0000
  H   H5024     1.0  0.66420  0.74431  0.71031  1.0000
  H   H5025     1.0  0.69437  0.71033  0.77048  1.0000
  H   H5026     1.0  0.63733  0.67035  0.73642  1.0000
  N   N278      1.0  0.70583  0.59818  0.68523  1.0000
  C   C4205     1.0  0.70046  0.60614  0.69695  1.0000
  C   C4206     1.0  0.70972  0.58266  0.69160  1.0000
  C   C4207     1.0  0.71911  0.60267  0.67622  1.0000
  C   C4208     1.0  0.69462  0.60082  0.67716  1.0000
  C   C4209     1.0  0.69699  0.60562  0.66197  1.0000
  C   C4210     1.0  0.68625  0.60762  0.65469  1.0000
  H   H5027     1.0  0.66639  0.86067  0.62429  1.0000
  H   H5028     1.0  0.52637  0.69512  0.63316  1.0000
  C   C4211     1.0  0.66434  0.70262  0.72312  1.0000
  H   H5029     1.0  0.70032  0.57833  0.69841  1.0000
  C   C4212     1.0  0.72055  0.68568  0.73228  1.0000
  H   H5030     1.0  0.71463  0.57644  0.68304  1.0000
  H   H5031     1.0  0.71696  0.61429  0.67109  1.0000
  H   H5032     1.0  0.50516  0.72722  0.58242  1.0000
  H   H5033     1.0  0.65205  0.63374  0.75395  1.0000
  H   H5034     1.0  0.70719  0.60740  0.65538  1.0000
  C   C4213     1.0  0.64422  0.50096  0.73154  1.0000
  C   C4214     1.0  0.63387  0.82500  0.75904  1.0000
  H   H5035     1.0  0.55984  0.72050  0.70044  1.0000
  C   C4215     1.0  0.56802  0.64393  0.66004  1.0000
  H   H5036     1.0  0.63343  0.77225  0.59728  1.0000
  H   H5037     1.0  0.64126  0.54029  0.76942  1.0000
  H   H5038     1.0  0.72520  0.89654  0.59551  1.0000
  H   H5039     1.0  0.63875  0.51153  0.72592  1.0000
  H   H5040     1.0  0.57816  0.77902  0.59463  1.0000
  C   C4216     1.0  0.60544  0.74592  0.60522  1.0000
  H   H5041     1.0  0.71755  0.58029  0.69842  1.0000
  C   C4217     1.0  0.59044  0.75307  0.63222  1.0000
  Fe  Fe567     1.0  0.71794  0.61689  0.74816  1.0000
  H   H5042     1.0  0.70848  0.85218  0.69569  1.0000
  Fe  Fe568     1.0  0.71015  0.90636  0.76086  1.0000
  C   C4218     1.0  0.70669  0.73254  0.75252  1.0000
  C   C4219     1.0  0.67087  0.85054  0.63134  1.0000
  C   C4220     1.0  0.69445  0.84820  0.61650  1.0000
  Fe  Fe569     1.0  0.69884  0.81374  0.60133  1.0000
  H   H5043     1.0  0.67291  0.82006  0.75728  1.0000
  N   N279      1.0  0.51596  0.69888  0.66089  1.0000
  H   H5044     1.0  0.51163  0.70555  0.68086  1.0000
  C   C4221     1.0  0.58153  0.67867  0.76788  1.0000
  H   H5045     1.0  0.69316  0.85439  0.76199  1.0000
  N   N280      1.0  0.55931  0.62351  0.67898  1.0000
  C   C4222     1.0  0.54813  0.61508  0.68297  1.0000
  C   C4223     1.0  0.57329  0.61372  0.67483  1.0000
  C   C4224     1.0  0.55927  0.62811  0.69188  1.0000
  H   H5046     1.0  0.53759  0.62101  0.68814  1.0000
  H   H5047     1.0  0.54698  0.61214  0.67343  1.0000
  H   H5048     1.0  0.57437  0.61104  0.66439  1.0000
  H   H5049     1.0  0.57480  0.60350  0.68304  1.0000
  H   H5050     1.0  0.58251  0.61829  0.67392  1.0000
  H   H5051     1.0  0.56159  0.61881  0.70084  1.0000
  H   H5052     1.0  0.56735  0.63458  0.68957  1.0000
  H   H5053     1.0  0.57825  0.64067  0.66297  1.0000
  C   C4225     1.0  0.55963  0.71887  0.71206  1.0000
  H   H5054     1.0  0.54821  0.72016  0.71774  1.0000
  C   C4226     1.0  0.58493  0.73000  0.63746  1.0000
  H   H5055     1.0  0.56524  0.70758  0.71555  1.0000
  S   S1137     1.0  0.51790  0.77173  0.59425  1.0000
  N   N281      1.0  0.68597  0.84970  0.63110  1.0000
  C   C4227     1.0  0.55838  0.87314  0.63986  1.0000
  S   S1138     1.0  0.65045  0.71551  0.71668  1.0000
  Fe  Fe570     1.0  0.61191  0.71182  0.76005  1.0000
  H   H5056     1.0  0.72713  0.92466  0.70506  1.0000
  H   H5057     1.0  0.54877  0.63491  0.69582  1.0000
  C   C4228     1.0  0.69134  0.48878  0.62305  1.0000
  C   C4229     1.0  0.55699  0.63639  0.66729  1.0000
  H   H5058     1.0  0.55066  0.60496  0.69103  1.0000
  H   H5059     1.0  0.56887  0.76143  0.61839  1.0000
  H   H5060     1.0  0.51790  0.68253  0.62058  1.0000
  H   H5061     1.0  0.69128  0.60254  0.70506  1.0000
  N   N282      1.0  0.56644  0.72913  0.71459  1.0000
  H   H5062     1.0  0.69137  0.85785  0.60814  1.0000
  H   H5063     1.0  0.72025  0.97656  0.74804  1.0000
  C   C4230     1.0  0.68092  0.59812  0.68448  1.0000
  C   C4231     1.0  0.67293  0.60492  0.66222  1.0000
  N   N283      1.0  0.65365  0.81642  0.77289  1.0000
  C   C4232     1.0  0.72508  0.97909  0.73636  1.0000
  N   N284      1.0  0.58460  0.74390  0.62692  1.0000
  H   H5064     1.0  0.50740  0.68889  0.68271  1.0000
  H   H5065     1.0  0.67043  0.49765  0.65933  1.0000
  C   C4233     1.0  0.66823  0.70387  0.73507  1.0000
  C   C4234     1.0  0.54357  0.64235  0.66338  1.0000
  H   H5066     1.0  0.53433  0.63787  0.66882  1.0000
  H   H5067     1.0  0.73236  0.85791  0.68252  1.0000
  C   C4235     1.0  0.69189  0.86401  0.75366  1.0000
  H   H5068     1.0  0.58785  0.71662  0.71001  1.0000
  H   H5069     1.0  0.72615  0.79144  0.74597  1.0000
  C   C4236     1.0  0.58126  0.72721  0.70585  1.0000
  Fe  Fe571     1.0  0.71619  0.92792  0.77499  1.0000
  H   H5070     1.0  0.68652  0.56287  0.61480  1.0000
  C   C4237     1.0  0.57332  0.73586  0.73387  1.0000
  H   H5071     1.0  0.70878  0.60468  0.70297  1.0000
  C   C4238     1.0  0.68718  0.86238  0.63529  1.0000
  H   H5072     1.0  0.68845  0.61076  0.64307  1.0000
  C   C4239     1.0  0.56661  0.72724  0.72986  1.0000
  C   C4240     1.0  0.63320  0.62585  0.76139  1.0000
  H   H5073     1.0  0.66482  0.60597  0.65649  1.0000
  C   C4241     1.0  0.67899  0.86581  0.64854  1.0000
  H   H5074     1.0  0.66974  0.84147  0.62756  1.0000
  C   C4242     1.0  0.55847  0.74379  0.70930  1.0000
  C   C4243     1.0  0.72570  0.67485  0.72464  1.0000
  C   C4244     1.0  0.67025  0.60027  0.67709  1.0000
  H   H5075     1.0  0.67846  0.59393  0.69594  1.0000
  C   C4245     1.0  0.57153  0.85666  0.65717  1.0000
  C   C4246     1.0  0.64572  0.48588  0.69028  1.0000
  H   H5076     1.0  0.71434  0.68120  0.77342  1.0000
  C   C4247     1.0  0.55284  0.66146  0.64523  1.0000
  H   H5077     1.0  0.72165  0.52196  0.60750  1.0000
  C   C4248     1.0  0.61852  0.62857  0.76694  1.0000
  C   C4249     1.0  0.68947  0.72118  0.77273  1.0000
  C   C4250     1.0  0.71346  0.55129  0.58809  1.0000
  H   H5078     1.0  0.69360  0.58488  0.73540  1.0000
  C   C4251     1.0  0.54162  0.65464  0.65245  1.0000
  C   C4252     1.0  0.57398  0.73409  0.74812  1.0000
  N   N285      1.0  0.65705  0.50220  0.73539  1.0000
  C   C4253     1.0  0.56546  0.85890  0.64521  1.0000
  H   H5079     1.0  0.55499  0.70983  0.73920  1.0000
  H   H5080     1.0  0.69599  0.58490  0.60426  1.0000
  C   C4254     1.0  0.69493  0.88849  0.74342  1.0000
  C   C4255     1.0  0.64447  0.82785  0.76420  1.0000
  H   H5081     1.0  0.70881  0.50588  0.62733  1.0000
  C   C4256     1.0  0.73236  0.72256  0.75096  1.0000
  H   H5082     1.0  0.58667  0.73557  0.70577  1.0000
  H   H5083     1.0  0.66715  0.52040  0.66533  1.0000
  H   H5084     1.0  0.70153  0.87542  0.76263  1.0000
  H   H5085     1.0  0.53127  0.65898  0.64973  1.0000
  C   C4257     1.0  0.56028  0.71696  0.74111  1.0000
  Fe  Fe572     1.0  0.69878  0.64495  0.73910  1.0000
  H   H5086     1.0  0.53808  0.69086  0.65171  1.0000
  H   H5087     1.0  0.60542  0.80568  0.60190  1.0000
  H   H5088     1.0  0.66012  0.65437  0.74258  1.0000
  C   C4258     1.0  0.56597  0.65618  0.64910  1.0000
  H   H5089     1.0  0.72714  0.60093  0.68269  1.0000
  C   C4259     1.0  0.71246  0.57585  0.58800  1.0000
  C   C4260     1.0  0.49652  0.70958  0.59659  1.0000
  C   C4261     1.0  0.56803  0.72367  0.75882  1.0000
  H   H5090     1.0  0.70285  0.87080  0.69616  1.0000
  C   C4262     1.0  0.72355  0.87810  0.58947  1.0000
  H   H5091     1.0  0.56329  0.75351  0.63711  1.0000
  H   H5092     1.0  0.64113  0.77949  0.57884  1.0000
  H   H5093     1.0  0.62695  0.67313  0.77414  1.0000
  C   C4263     1.0  0.71628  0.82631  0.77217  1.0000
  C   C4264     1.0  0.63621  0.67417  0.74621  1.0000
  C   C4265     1.0  0.72625  0.82377  0.73109  1.0000
  H   H5094     1.0  0.73046  0.84036  0.76811  1.0000
  H   H5095     1.0  0.55996  0.82664  0.64532  1.0000
  Fe  Fe573     1.0  0.63263  0.72652  0.76619  1.0000
  C   C4266     1.0  0.48846  0.69966  0.59824  1.0000
  C   C4267     1.0  0.56108  0.71522  0.75534  1.0000
  H   H5096     1.0  0.58395  0.75508  0.64288  1.0000
  H   H5097     1.0  0.67587  0.80924  0.77429  1.0000
  S   S1139     1.0  0.53017  0.73977  0.58574  1.0000
  C   C4268     1.0  0.69963  0.50865  0.63571  1.0000
  C   C4269     1.0  0.68890  0.78227  0.75665  1.0000
  H   H5098     1.0  0.65302  0.74212  0.69214  1.0000
  H   H5099     1.0  0.54883  0.85550  0.62850  1.0000
  H   H5100     1.0  0.56175  0.84136  0.62145  1.0000
  H   H5101     1.0  0.57704  0.84613  0.66189  1.0000
  H   H5102     1.0  0.67432  0.87939  0.66344  1.0000
  C   C4270     1.0  0.69549  0.56313  0.60562  1.0000
  H   H5103     1.0  0.55132  0.67099  0.63675  1.0000
  S   S1140     1.0  0.70075  0.90382  0.74343  1.0000
  H   H5104     1.0  0.55664  0.70698  0.76368  1.0000
  H   H5105     1.0  0.67856  0.77960  0.75966  1.0000
  C   C4271     1.0  0.49867  0.68484  0.65986  1.0000
  H   H5106     1.0  0.69959  0.49448  0.61558  1.0000
  C   C4272     1.0  0.51045  0.69151  0.65326  1.0000
  C   C4273     1.0  0.63363  0.65062  0.76049  1.0000
  C   C4274     1.0  0.61272  0.74309  0.59172  1.0000
  H   H5107     1.0  0.63277  0.76100  0.68481  1.0000
  C   C4275     1.0  0.50730  0.69973  0.67557  1.0000
  H   H5108     1.0  0.56360  0.83189  0.65946  1.0000
  C   C4276     1.0  0.65490  0.53460  0.75001  1.0000
  H   H5109     1.0  0.49737  0.67096  0.63278  1.0000
  H   H5110     1.0  0.66317  0.51663  0.71521  1.0000
  C   C4277     1.0  0.59255  0.74129  0.61256  1.0000
  S   S1141     1.0  0.71139  0.95230  0.77315  1.0000
  N   N286      1.0  0.64124  0.66222  0.75769  1.0000
  H   H5111     1.0  0.59317  0.78956  0.60216  1.0000
  S   S1142     1.0  0.60035  0.69351  0.76816  1.0000
  H   H5112     1.0  0.67778  0.50641  0.72373  1.0000
  C   C4278     1.0  0.66359  0.48799  0.74330  1.0000
  H   H5113     1.0  0.65293  0.84557  0.76492  1.0000
  N   N287      1.0  0.56666  0.84673  0.63886  1.0000
  C   C4279     1.0  0.56049  0.85085  0.62594  1.0000
  H   H5114     1.0  0.54762  0.84087  0.65316  1.0000
  C   C4280     1.0  0.63843  0.52074  0.76652  1.0000
  S   S1143     1.0  0.69307  0.66537  0.74667  1.0000
  N   N288      1.0  0.72188  0.85960  0.70426  1.0000
  C   C4281     1.0  0.69680  0.87125  0.62682  1.0000
  H   H5115     1.0  0.68032  0.69345  0.75131  1.0000
  H   H5116     1.0  0.64230  0.78668  0.59285  1.0000
  H   H5117     1.0  0.66358  0.71340  0.73937  1.0000
  S   S1144     1.0  0.60869  0.72980  0.77111  1.0000
  H   H5118     1.0  0.70216  0.83592  0.64216  1.0000
  H   H5119     1.0  0.62304  0.80162  0.60491  1.0000
  H   H5120     1.0  0.58820  0.84770  0.62731  1.0000
  H   H5121     1.0  0.71649  0.71447  0.76786  1.0000
  H   H5122     1.0  0.68405  0.53621  0.65285  1.0000
  H   H5123     1.0  0.71774  0.97688  0.73113  1.0000
  C   C4282     1.0  0.73262  0.85506  0.60372  1.0000
  C   C4283     1.0  0.62602  0.83577  0.75002  1.0000
  H   H5124     1.0  0.58013  0.72274  0.63453  1.0000
  S   S1145     1.0  0.72695  0.62554  0.69491  1.0000
  H   H5125     1.0  0.69761  0.54145  0.60446  1.0000
  N   N289      1.0  0.69151  0.73268  0.75957  1.0000
  C   C4284     1.0  0.51250  0.68321  0.63155  1.0000
  C   C4285     1.0  0.58888  0.77939  0.58833  1.0000
  C   C4286     1.0  0.70920  0.78515  0.76346  1.0000
  C   C4287     1.0  0.71208  0.67125  0.77241  1.0000
  C   C4288     1.0  0.63510  0.78231  0.58927  1.0000
  H   H5126     1.0  0.52377  0.71412  0.64194  1.0000
  H   H5127     1.0  0.63893  0.61523  0.75972  1.0000
  C   C4289     1.0  0.55915  0.83609  0.64966  1.0000
  H   H5128     1.0  0.68460  0.75578  0.75426  1.0000
  C   C4290     1.0  0.69108  0.83657  0.64146  1.0000
  S   S1146     1.0  0.48856  0.74588  0.60489  1.0000
  H   H5129     1.0  0.57460  0.66172  0.64377  1.0000
  C   C4291     1.0  0.62812  0.84968  0.74626  1.0000
  C   C4292     1.0  0.66851  0.81856  0.76907  1.0000
  H   H5130     1.0  0.59977  0.64439  0.77327  1.0000
  H   H5131     1.0  0.56338  0.89053  0.66243  1.0000
  H   H5132     1.0  0.73068  0.86969  0.71518  1.0000
  C   C4293     1.0  0.69747  0.52177  0.63941  1.0000
  H   H5133     1.0  0.70577  0.88916  0.62496  1.0000
  H   H5134     1.0  0.71629  0.58565  0.58399  1.0000
  H   H5135     1.0  0.68379  0.73983  0.73989  1.0000
  C   C4294     1.0  0.58192  0.83980  0.63453  1.0000
  H   H5136     1.0  0.58697  0.83461  0.64387  1.0000
  H   H5137     1.0  0.56590  0.85860  0.61720  1.0000
  H   H5138     1.0  0.59607  0.72428  0.63816  1.0000
  H   H5139     1.0  0.71353  0.86624  0.72444  1.0000
  S   S1147     1.0  0.72946  0.49422  0.60090  1.0000
  H   H5140     1.0  0.65781  0.80155  0.75933  1.0000
  C   C4295     1.0  0.68040  0.87730  0.65307  1.0000
  H   H5141     1.0  0.71003  0.84273  0.72940  1.0000
  H   H5142     1.0  0.70608  0.84623  0.61583  1.0000
  H   H5143     1.0  0.72069  0.65422  0.69967  1.0000
  C   C4296     1.0  0.68457  0.74661  0.76370  1.0000
  C   C4297     1.0  0.68577  0.52599  0.65003  1.0000
  C   C4298     1.0  0.59769  0.78540  0.59253  1.0000
  C   C4299     1.0  0.65914  0.52482  0.74111  1.0000
  C   C4300     1.0  0.61122  0.64221  0.76902  1.0000
  C   C4301     1.0  0.64455  0.53260  0.76265  1.0000
  H   H5144     1.0  0.66714  0.52717  0.73144  1.0000
  S   S1148     1.0  0.72455  0.88792  0.77210  1.0000
  S   S1149     1.0  0.70877  0.79661  0.58872  1.0000
  H   H5145     1.0  0.70229  0.75104  0.73505  1.0000
  H   H5146     1.0  0.61314  0.78794  0.61111  1.0000
  H   H5147     1.0  0.69094  0.82668  0.63842  1.0000
  S   S1150     1.0  0.73162  0.60672  0.58165  1.0000
  H   H5148     1.0  0.72233  0.66441  0.76799  1.0000
  C   C4302     1.0  0.69575  0.78186  0.76727  1.0000
  H   H5149     1.0  0.60148  0.74797  0.63375  1.0000
  C   C4303     1.0  0.69816  0.88270  0.63146  1.0000
  C   C4304     1.0  0.49914  0.71930  0.58354  1.0000
  H   H5150     1.0  0.61009  0.75181  0.60960  1.0000
  H   H5151     1.0  0.65962  0.54388  0.74696  1.0000
  C   C4305     1.0  0.61538  0.79717  0.60211  1.0000
  H   H5152     1.0  0.67264  0.73044  0.75469  1.0000
  H   H5153     1.0  0.70492  0.52870  0.63403  1.0000
  H   H5154     1.0  0.67189  0.85921  0.65583  1.0000
  C   C4306     1.0  0.67625  0.51707  0.65704  1.0000
  C   C4307     1.0  0.72615  0.86316  0.59223  1.0000
  S   S1151     1.0  0.67069  0.60978  0.74056  1.0000
  C   C4308     1.0  0.73316  0.51907  0.60490  1.0000
  H   H5155     1.0  0.63934  0.86387  0.74898  1.0000
  H   H5156     1.0  0.69128  0.89445  0.64819  1.0000
  H   H5157     1.0  0.66232  0.66645  0.75157  1.0000
  C   C4309     1.0  0.66749  0.50606  0.72177  1.0000
  Fe  Fe574     1.0  0.53818  0.75987  0.58176  1.0000
  C   C4310     1.0  0.73422  0.87706  0.60901  1.0000
  C   C4311     1.0  0.72463  0.74285  0.73281  1.0000
  H   H5158     1.0  0.49292  0.68490  0.67082  1.0000
  C   C4312     1.0  0.72739  0.88496  0.59785  1.0000
  H   H5159     1.0  0.56630  0.66677  0.76885  1.0000
  H   H5160     1.0  0.64464  0.67569  0.76952  1.0000
  H   H5161     1.0  0.70562  0.67436  0.76416  1.0000
  C   C4313     1.0  0.72027  0.83784  0.77408  1.0000
  H   H5162     1.0  0.72638  0.77158  0.59948  1.0000
  H   H5163     1.0  0.67319  0.74709  0.76923  1.0000
  Fe  Fe575     1.0  0.72939  0.80172  0.58811  1.0000
  H   H5164     1.0  0.61254  0.66348  0.76765  1.0000
  H   H5165     1.0  0.63175  0.81446  0.76148  1.0000
  C   C4314     1.0  0.68401  0.73085  0.74950  1.0000
  H   H5166     1.0  0.72518  0.91165  0.72168  1.0000
  C   C4315     1.0  0.61173  0.78615  0.58430  1.0000
  H   H5167     1.0  0.72716  0.75088  0.72312  1.0000
  H   H5168     1.0  0.61279  0.62008  0.76966  1.0000
  N   N290      1.0  0.62131  0.79268  0.58819  1.0000
  C   C4316     1.0  0.65696  0.65761  0.75306  1.0000
  C   C4317     1.0  0.65460  0.80192  0.77090  1.0000
  H   H5169     1.0  0.56896  0.72201  0.76979  1.0000
  H   H5170     1.0  0.63630  0.49680  0.74098  1.0000
  H   H5171     1.0  0.50057  0.70997  0.60547  1.0000
  H   H5172     1.0  0.72532  0.87588  0.68475  1.0000
  H   H5173     1.0  0.72600  0.69923  0.74235  1.0000
  C   C4318     1.0  0.73054  0.65262  0.69171  1.0000
  H   H5174     1.0  0.64445  0.79825  0.77585  1.0000
  H   H5175     1.0  0.66151  0.64863  0.76123  1.0000
  C   C4319     1.0  0.72827  0.84490  0.71129  1.0000
  H   H5176     1.0  0.66260  0.79364  0.77633  1.0000
  C   C4320     1.0  0.63830  0.66764  0.77093  1.0000
  H   H5177     1.0  0.73468  0.84349  0.60602  1.0000
  H   H5178     1.0  0.73353  0.63785  0.75674  1.0000
  H   H5179     1.0  0.69001  0.74859  0.77109  1.0000
  S   S1152     1.0  0.71775  0.78461  0.77683  1.0000
  N   N291      1.0  0.69250  0.48563  0.63821  1.0000
  H   H5180     1.0  0.67099  0.48219  0.64589  1.0000
  S   S1153     1.0  0.73489  0.57067  0.61058  1.0000
  H   H5181     1.0  0.73548  0.53892  0.60792  1.0000
  C   C4321     1.0  0.73606  0.76417  0.59600  1.0000
  C   C4322     1.0  0.71367  0.97836  0.77584  1.0000
  H   H5182     1.0  0.73424  0.67358  0.68938  1.0000
  C   C4323     1.0  0.50099  0.67670  0.63838  1.0000
  H   H5183     1.0  0.68163  0.67542  0.77402  1.0000
  C   C4324     1.0  0.73564  0.63971  0.68708  1.0000
  H   H5184     1.0  0.70122  0.76128  0.57951  1.0000
  H   H5185     1.0  0.73070  0.81036  0.63387  1.0000
  S   S1154     1.0  0.73384  0.60687  0.76229  1.0000
  C   C4325     1.0  0.73546  0.75042  0.59550  1.0000
  S   S1155     1.0  0.72195  0.85564  0.58013  1.0000
  H   H5186     1.0  0.63037  0.51922  0.77638  1.0000
  C   C4326     1.0  0.73559  0.73268  0.73837  1.0000
  Fe  Fe576     1.0  0.71748  0.83384  0.58275  1.0000
  H   H5187     1.0  0.71856  0.88448  0.58069  1.0000
  H   H5188     1.0  0.72912  0.96953  0.71087  1.0000
  H   H5189     1.0  0.69556  0.65314  0.77615  1.0000
  S   S1156     1.0  0.69586  0.83164  0.58216  1.0000
  H   H5190     1.0  0.63112  0.81092  0.57948  1.0000
  C   C4327     1.0  0.48653  0.65686  0.68945  1.0000
  H   H5191     1.0  0.71560  0.48191  0.63165  1.0000
  H   H5192     1.0  0.69401  0.85883  0.95159  1.0000
  H   H5193     1.0  0.72186  0.85818  0.91888  1.0000
  H   H5194     1.0  0.69288  0.88751  0.90560  1.0000
  H   H5195     1.0  0.72975  0.72943  0.85122  1.0000
  C   C4328     1.0  0.71614  0.86866  0.91341  1.0000
  C   C4329     1.0  0.71401  0.88425  0.93598  1.0000
  H   H5196     1.0  0.72088  0.76945  0.85026  1.0000
  S   S1157     1.0  0.71050  0.83741  0.90139  1.0000
  H   H5197     1.0  0.63653  0.81481  0.79161  1.0000
  H   H5198     1.0  0.69400  0.72244  0.78121  1.0000
  S   S1158     1.0  0.72186  0.82980  0.93850  1.0000
  Fe  Fe577     1.0  0.72203  0.81844  0.89131  1.0000
  S   S1159     1.0  0.71395  0.80143  0.88659  1.0000
  H   H5199     1.0  0.71860  0.89066  0.92593  1.0000
  H   H5200     1.0  0.72483  0.65142  0.79199  1.0000
  Fe  Fe578     1.0  0.67243  0.77601  0.81132  1.0000
  S   S1160     1.0  0.69289  0.76074  0.80473  1.0000
  S   S1161     1.0  0.65297  0.77697  0.80321  1.0000
  Fe  Fe579     1.0  0.68702  0.79097  0.82504  1.0000
  S   S1162     1.0  0.70834  0.77650  0.81926  1.0000
  S   S1163     1.0  0.68648  0.81027  0.83329  1.0000
  Fe  Fe580     1.0  0.70282  0.77968  0.79815  1.0000
  H   H5201     1.0  0.69965  0.86106  0.97285  1.0000
  Fe  Fe581     1.0  0.69601  0.75915  0.82659  1.0000
  S   S1164     1.0  0.70543  0.73774  0.83899  1.0000
  S   S1165     1.0  0.68229  0.79530  0.80321  1.0000
  S   S1166     1.0  0.67481  0.77328  0.83395  1.0000
  S   S1167     1.0  0.70809  0.87998  0.81097  1.0000
  C   C4330     1.0  0.71724  0.88518  0.94844  1.0000
  H   H5202     1.0  0.70248  0.89594  0.91207  1.0000
  H   H5203     1.0  0.71836  0.66800  0.79752  1.0000
  C   C4331     1.0  0.69129  0.67346  0.79180  1.0000
  H   H5204     1.0  0.71010  0.65301  0.80700  1.0000
  C   C4332     1.0  0.73459  0.81634  0.83725  1.0000
  H   H5205     1.0  0.72418  0.89205  0.94781  1.0000
  Fe  Fe582     1.0  0.71458  0.89726  0.79166  1.0000
  H   H5206     1.0  0.64715  0.82707  0.79051  1.0000
  H   H5207     1.0  0.72128  0.75336  0.84574  1.0000
  S   S1168     1.0  0.69901  0.91514  0.78070  1.0000
  H   H5208     1.0  0.72652  0.71246  0.83366  1.0000
  H   H5209     1.0  0.68255  0.86710  0.93242  1.0000
  C   C4333     1.0  0.64184  0.76487  0.78823  1.0000
  C   C4334     1.0  0.65144  0.76246  0.79707  1.0000
  C   C4335     1.0  0.70170  0.65071  0.78458  1.0000
  C   C4336     1.0  0.70986  0.86561  0.83842  1.0000
  H   H5210     1.0  0.69812  0.85264  0.93015  1.0000
  C   C4337     1.0  0.65749  0.73719  0.79644  1.0000
  C   C4338     1.0  0.65934  0.74855  0.80105  1.0000
  C   C4339     1.0  0.70539  0.87492  0.93644  1.0000
  C   C4340     1.0  0.67627  0.68840  0.80873  1.0000
  H   H5211     1.0  0.66340  0.72645  0.79994  1.0000
  H   H5212     1.0  0.66660  0.74647  0.80802  1.0000
  H   H5213     1.0  0.68546  0.89263  0.92264  1.0000
  H   H5214     1.0  0.71716  0.82704  0.96887  1.0000
  H   H5215     1.0  0.72344  0.87616  0.91000  1.0000
  C   C4341     1.0  0.72971  0.83976  0.97222  1.0000
  Fe  Fe583     1.0  0.72615  0.84891  0.88434  1.0000
  C   C4342     1.0  0.71720  0.87420  0.85515  1.0000
  H   H5216     1.0  0.72226  0.89505  0.84710  1.0000
  S   S1169     1.0  0.64704  0.72512  0.78093  1.0000
  C   C4343     1.0  0.71167  0.87810  0.82787  1.0000
  C   C4344     1.0  0.71626  0.88866  0.83099  1.0000
  C   C4345     1.0  0.71885  0.88678  0.84467  1.0000
  H   H5217     1.0  0.71443  0.86723  0.90335  1.0000
  H   H5218     1.0  0.71684  0.74022  0.87035  1.0000
  C   C4346     1.0  0.71488  0.65886  0.79621  1.0000
  H   H5219     1.0  0.69106  0.86335  0.91506  1.0000
  C   C4347     1.0  0.70665  0.80422  0.87148  1.0000
  C   C4348     1.0  0.70419  0.79240  0.86824  1.0000
  C   C4349     1.0  0.69823  0.79411  0.85645  1.0000
  C   C4350     1.0  0.69438  0.80774  0.84795  1.0000
  C   C4351     1.0  0.69670  0.81961  0.85127  1.0000
  C   C4352     1.0  0.70298  0.81784  0.86286  1.0000
  H   H5220     1.0  0.70666  0.78192  0.87507  1.0000
  H   H5221     1.0  0.69618  0.78496  0.85422  1.0000
  H   H5222     1.0  0.69351  0.83024  0.84500  1.0000
  H   H5223     1.0  0.70469  0.82705  0.86533  1.0000
  C   C4353     1.0  0.68045  0.67874  0.78380  1.0000
  H   H5224     1.0  0.69770  0.83755  0.81952  1.0000
  N   N292      1.0  0.70250  0.87384  0.92302  1.0000
  H   H5225     1.0  0.58079  0.67555  0.77937  1.0000
  H   H5226     1.0  0.63549  0.77551  0.78527  1.0000
  C   C4354     1.0  0.69715  0.71783  0.81305  1.0000
  C   C4355     1.0  0.69536  0.72659  0.82254  1.0000
  C   C4356     1.0  0.70615  0.72496  0.82964  1.0000
  C   C4357     1.0  0.71830  0.71396  0.82796  1.0000
  C   C4358     1.0  0.72030  0.70551  0.81815  1.0000
  C   C4359     1.0  0.64810  0.73964  0.78737  1.0000
  H   H5227     1.0  0.68570  0.73475  0.82423  1.0000
  H   H5228     1.0  0.65395  0.80803  0.79529  1.0000
  N   N293      1.0  0.70477  0.66371  0.78647  1.0000
  H   H5229     1.0  0.71148  0.85383  0.85993  1.0000
  C   C4360     1.0  0.69311  0.86382  0.92534  1.0000
  C   C4361     1.0  0.71965  0.96353  0.77792  1.0000
  C   C4362     1.0  0.71282  0.86356  0.85193  1.0000
  C   C4363     1.0  0.70986  0.70762  0.81047  1.0000
  C   C4364     1.0  0.73226  0.95832  0.78298  1.0000
  C   C4365     1.0  0.70338  0.86776  0.96255  1.0000
  H   H5230     1.0  0.69640  0.67530  0.81123  1.0000
  H   H5231     1.0  0.67475  0.69239  0.81826  1.0000
  N   N294      1.0  0.68860  0.85174  0.80218  1.0000
  C   C4366     1.0  0.69575  0.84911  0.81411  1.0000
  C   C4367     1.0  0.68627  0.86724  0.79524  1.0000
  C   C4368     1.0  0.67432  0.84827  0.80849  1.0000
  C   C4369     1.0  0.69779  0.84308  0.79172  1.0000
  C   C4370     1.0  0.73120  0.83058  0.83011  1.0000
  H   H5232     1.0  0.71520  0.75596  0.87638  1.0000
  H   H5233     1.0  0.73005  0.69754  0.81638  1.0000
  Fe  Fe584     1.0  0.72756  0.83064  0.91433  1.0000
  C   C4371     1.0  0.68875  0.67849  0.80453  1.0000
  H   H5234     1.0  0.70620  0.85228  0.81033  1.0000
  H   H5235     1.0  0.68925  0.85537  0.82234  1.0000
  H   H5236     1.0  0.67511  0.83711  0.81508  1.0000
  H   H5237     1.0  0.69625  0.87129  0.79166  1.0000
  H   H5238     1.0  0.67904  0.87397  0.80278  1.0000
  H   H5239     1.0  0.71760  0.89837  0.82296  1.0000
  S   S1170     1.0  0.73627  0.83061  0.87342  1.0000
  H   H5240     1.0  0.66754  0.85528  0.81594  1.0000
  C   C4372     1.0  0.71192  0.87696  0.96169  1.0000
  H   H5241     1.0  0.68440  0.82771  0.79553  1.0000
  H   H5242     1.0  0.73466  0.74414  0.78774  1.0000
  C   C4373     1.0  0.72473  0.83384  0.96373  1.0000
  C   C4374     1.0  0.69552  0.88810  0.91556  1.0000
  H   H5243     1.0  0.69550  0.64520  0.79476  1.0000
  H   H5244     1.0  0.65633  0.70123  0.80380  1.0000
  S   S1171     1.0  0.71310  0.69819  0.79703  1.0000
  H   H5245     1.0  0.70624  0.85741  0.83616  1.0000
  H   H5246     1.0  0.68889  0.71933  0.80739  1.0000
  S   S1172     1.0  0.72111  0.87178  0.87200  1.0000
  H   H5247     1.0  0.73292  0.77031  0.86701  1.0000
  H   H5248     1.0  0.72179  0.83439  0.82565  1.0000
  C   C4375     1.0  0.72920  0.83688  0.94866  1.0000
  C   C4376     1.0  0.66593  0.69345  0.80056  1.0000
  H   H5249     1.0  0.71167  0.64286  0.78120  1.0000
  H   H5250     1.0  0.66848  0.84969  0.80001  1.0000
  H   H5251     1.0  0.68156  0.86957  0.78572  1.0000
  C   C4377     1.0  0.70019  0.86662  0.95016  1.0000
  C   C4378     1.0  0.66800  0.68863  0.78812  1.0000
  C   C4379     1.0  0.64759  0.81664  0.78824  1.0000
  H   H5252     1.0  0.71482  0.87737  0.97127  1.0000
  H   H5253     1.0  0.71495  0.85470  0.78510  1.0000
  C   C4380     1.0  0.71124  0.84606  0.78376  1.0000
  H   H5254     1.0  0.72777  0.80915  0.83841  1.0000
  C   C4381     1.0  0.72305  0.74648  0.87294  1.0000
  N   N295      1.0  0.73452  0.75077  0.86058  1.0000
  C   C4382     1.0  0.64030  0.75357  0.78325  1.0000
  C   C4383     1.0  0.69413  0.83114  0.78962  1.0000
  H   H5255     1.0  0.73493  0.73585  0.81983  1.0000
  S   S1173     1.0  0.73092  0.91046  0.78741  1.0000
  H   H5256     1.0  0.72752  0.73975  0.88234  1.0000
  C   C4384     1.0  0.72801  0.75911  0.84821  1.0000
  H   H5257     1.0  0.65996  0.69279  0.78172  1.0000
  H   H5258     1.0  0.72762  0.75639  0.79939  1.0000
  C   C4385     1.0  0.70326  0.82299  0.77990  1.0000
  H   H5259     1.0  0.64092  0.65876  0.78013  1.0000
  H   H5260     1.0  0.73630  0.76155  0.83836  1.0000
  H   H5261     1.0  0.69051  0.77907  0.77839  1.0000
  H   H5262     1.0  0.70036  0.81386  0.77848  1.0000
  H   H5263     1.0  0.67799  0.72128  0.77751  1.0000
  H   H5264     1.0  0.77133  0.35729  0.15963  1.0000
  H   H5265     1.0  0.90931  0.13668  0.10186  1.0000
  C   C4386     1.0  0.82491  0.16724  0.99529  1.0000
  S   S1174     1.0  0.81118  0.18217  0.01651  1.0000
  S   S1175     1.0  0.85415  0.22105  0.99542  1.0000
  S   S1176     1.0  0.86487  0.08524  0.13453  1.0000
  C   C4387     1.0  0.77827  0.98634  0.09982  1.0000
  C   C4388     1.0  0.86876  0.03131  0.14313  1.0000
  Fe  Fe585     1.0  0.84124  0.08973  0.14395  1.0000
  S   S1177     1.0  0.82259  0.09886  0.13309  1.0000
  Fe  Fe586     1.0  0.86677  0.09409  0.15240  1.0000
  S   S1178     1.0  0.87948  0.11129  0.14812  1.0000
  H   H5266     1.0  0.86587  0.23064  0.05991  1.0000
  Fe  Fe587     1.0  0.77274  0.03674  0.09980  1.0000
  S   S1179     1.0  0.78714  0.04953  0.08244  1.0000
  S   S1180     1.0  0.77667  0.01238  0.10508  1.0000
  H   H5267     1.0  0.79023  0.09500  0.17046  1.0000
  S   S1181     1.0  0.77185  0.07666  0.09846  1.0000
  H   H5268     1.0  0.81326  0.17378  0.16078  1.0000
  Fe  Fe588     1.0  0.76762  0.06755  0.08224  1.0000
  S   S1182     1.0  0.75908  0.08490  0.06471  1.0000
  Fe  Fe589     1.0  0.78985  0.05745  0.10032  1.0000
  S   S1183     1.0  0.81199  0.05610  0.10245  1.0000
  S   S1184     1.0  0.84164  0.06825  0.15876  1.0000
  S   S1185     1.0  0.77660  0.04382  0.11766  1.0000
  C   C4389     1.0  0.74576  0.14778  0.05386  1.0000
  H   H5269     1.0  0.75775  0.20495  0.15634  1.0000
  Fe  Fe590     1.0  0.94335  0.15778  0.15743  1.0000
  S   S1186     1.0  0.95103  0.16504  0.13366  1.0000
  H   H5270     1.0  0.77033  0.14257  0.12357  1.0000
  H   H5271     1.0  0.77590  0.20151  0.02895  1.0000
  S   S1187     1.0  0.79073  0.29329  0.17311  1.0000
  H   H5272     1.0  0.91334  0.14672  0.13366  1.0000
  C   C4390     1.0  0.74024  0.22564  0.10065  1.0000
  Fe  Fe591     1.0  0.90771  0.23470  0.05692  1.0000
  S   S1188     1.0  0.89091  0.23685  0.07696  1.0000
  S   S1189     1.0  0.90057  0.23674  0.03656  1.0000
  Fe  Fe592     1.0  0.93180  0.23416  0.07089  1.0000
  S   S1190     1.0  0.91684  0.23617  0.09208  1.0000
  Fe  Fe593     1.0  0.90690  0.22050  0.08820  1.0000
  S   S1191     1.0  0.89936  0.20425  0.10745  1.0000
  Fe  Fe594     1.0  0.90198  0.25241  0.07927  1.0000
  S   S1192     1.0  0.88903  0.27228  0.08710  1.0000
  S   S1193     1.0  0.92306  0.21680  0.06801  1.0000
  S   S1194     1.0  0.91767  0.25191  0.05815  1.0000
  H   H5273     1.0  0.79272  0.09899  0.03684  1.0000
  C   C4391     1.0  0.80372  0.11557  0.16553  1.0000
  C   C4392     1.0  0.81850  0.01691  0.09221  1.0000
  Fe  Fe595     1.0  0.79137  0.28707  0.15302  1.0000
  S   S1195     1.0  0.81203  0.29355  0.14100  1.0000
  S   S1196     1.0  0.77051  0.29289  0.14628  1.0000
  Fe  Fe596     1.0  0.82221  0.27084  0.15016  1.0000
  S   S1197     1.0  0.83930  0.25466  0.13934  1.0000
  Fe  Fe597     1.0  0.81228  0.29773  0.16202  1.0000
  S   S1198     1.0  0.92042  0.15773  0.16825  1.0000
  S   S1199     1.0  0.80141  0.26411  0.16057  1.0000
  C   C4393     1.0  0.88743  0.21592  0.16164  1.0000
  C   C4394     1.0  0.91531  0.15450  0.12323  1.0000
  H   H5274     1.0  0.94754  0.17483  0.10456  1.0000
  C   C4395     1.0  0.96452  0.25495  0.08985  1.0000
  C   C4396     1.0  0.79630  0.24487  0.01747  1.0000
  H   H5275     1.0  0.73966  0.33146  0.13165  1.0000
  S   S1200     1.0  0.82380  0.24516  0.01659  1.0000
  H   H5276     1.0  0.81545  0.10768  0.99922  1.0000
  Fe  Fe598     1.0  0.78386  0.10908  0.98575  1.0000
  C   C4397     1.0  0.83702  0.99645  0.08741  1.0000
  S   S1201     1.0  0.78971  0.08708  0.99943  1.0000
  S   S1202     1.0  0.83408  0.20453  0.02429  1.0000
  S   S1203     1.0  0.84405  0.00349  0.13415  1.0000
  H   H5277     1.0  0.89739  0.20768  0.05219  1.0000
  H   H5278     1.0  0.82185  0.26995  0.09534  1.0000
  S   S1204     1.0  0.78152  0.12727  0.99580  1.0000
  Fe  Fe599     1.0  0.75932  0.28706  0.07611  1.0000
  S   S1205     1.0  0.75770  0.29435  0.05303  1.0000
  S   S1206     1.0  0.77834  0.28980  0.08193  1.0000
  H   H5279     1.0  0.80075  0.23854  0.00939  1.0000
  C   C4398     1.0  0.74582  0.36344  0.13092  1.0000
  H   H5280     1.0  0.88686  0.19032  0.04698  1.0000
  Fe  Fe600     1.0  0.75131  0.27364  0.05654  1.0000
  S   S1207     1.0  0.75729  0.26009  0.04023  1.0000
  C   C4399     1.0  0.96096  0.20653  0.10433  1.0000
  H   H5281     1.0  0.77944  0.11809  0.06269  1.0000
  S   S1208     1.0  0.75506  0.26541  0.07885  1.0000
  H   H5282     1.0  0.81597  0.01307  0.12879  1.0000
  C   C4400     1.0  0.88122  0.21780  0.01850  1.0000
  H   H5283     1.0  0.77456  0.24501  0.01830  1.0000
  Fe  Fe601     1.0  0.83160  0.22514  0.00795  1.0000
  C   C4401     1.0  0.88693  0.20073  0.03984  1.0000
  C   C4402     1.0  0.97931  0.25394  0.08483  1.0000
  C   C4403     1.0  0.84174  0.13857  0.15793  1.0000
  C   C4404     1.0  0.77573  0.25649  0.03321  1.0000
  C   C4405     1.0  0.79950  0.25823  0.03281  1.0000
  C   C4406     1.0  0.78473  0.26143  0.03828  1.0000
  H   H5284     1.0  0.80644  0.26209  0.03672  1.0000
  H   H5285     1.0  0.78034  0.26766  0.04644  1.0000
  S   S1209     1.0  0.84297  0.10024  0.16042  1.0000
  C   C4407     1.0  0.80086  0.99351  0.06272  1.0000
  C   C4408     1.0  0.79983  0.16740  0.00466  1.0000
  C   C4409     1.0  0.80042  0.15892  0.99527  1.0000
  H   H5286     1.0  0.78983  0.17091  0.01175  1.0000
  H   H5287     1.0  0.79089  0.15593  0.99513  1.0000
  C   C4410     1.0  0.89292  0.21054  0.04279  1.0000
  C   C4411     1.0  0.78410  0.15635  0.14279  1.0000
  C   C4412     1.0  0.73877  0.32691  0.09777  1.0000
  C   C4413     1.0  0.96859  0.27646  0.05336  1.0000
  H   H5288     1.0  0.80368  0.02942  0.12319  1.0000
  H   H5289     1.0  0.73859  0.10046  0.08572  1.0000
  H   H5290     1.0  0.87689  0.22066  0.00902  1.0000
  H   H5291     1.0  0.78418  0.35545  0.14285  1.0000
  C   C4414     1.0  0.77281  0.29142  0.12857  1.0000
  C   C4415     1.0  0.76120  0.29064  0.12382  1.0000
  C   C4416     1.0  0.76296  0.28950  0.10965  1.0000
  C   C4417     1.0  0.77621  0.28962  0.10009  1.0000
  C   C4418     1.0  0.78777  0.29049  0.10482  1.0000
  C   C4419     1.0  0.78612  0.29121  0.11909  1.0000
  H   H5292     1.0  0.75090  0.29070  0.13115  1.0000
  H   H5293     1.0  0.75405  0.28860  0.10613  1.0000
  H   H5294     1.0  0.79801  0.29066  0.09744  1.0000
  H   H5295     1.0  0.79513  0.29179  0.12265  1.0000
  H   H5296     1.0  0.88474  0.01188  0.14715  1.0000
  H   H5297     1.0  0.82105  0.02043  0.15373  1.0000
  S   S1210     1.0  0.86924  0.07264  0.16779  1.0000
  C   C4420     1.0  0.75492  0.12248  0.05758  1.0000
  H   H5298     1.0  0.91188  0.13377  0.15895  1.0000
  C   C4421     1.0  0.73926  0.19569  0.16239  1.0000
  H   H5299     1.0  0.76449  0.08243  0.12963  1.0000
  C   C4422     1.0  0.86304  0.22440  0.17550  1.0000
  C   C4423     1.0  0.77793  0.15580  0.13211  1.0000
  H   H5300     1.0  0.91188  0.27706  0.09604  1.0000
  H   H5301     1.0  0.76642  0.12805  0.02955  1.0000
  H   H5302     1.0  0.94594  0.24872  0.08859  1.0000
  C   C4424     1.0  0.89331  0.22391  0.03342  1.0000
  C   C4425     1.0  0.88753  0.22742  0.02122  1.0000
  C   C4426     1.0  0.75728  0.17656  0.00874  1.0000
  H   H5303     1.0  0.88793  0.23766  0.01382  1.0000
  N   N296      1.0  0.78865  0.11790  0.16460  1.0000
  C   C4427     1.0  0.87521  0.26773  0.10183  1.0000
  C   C4428     1.0  0.87476  0.25334  0.10768  1.0000
  C   C4429     1.0  0.86354  0.24959  0.11899  1.0000
  C   C4430     1.0  0.85286  0.26015  0.12488  1.0000
  C   C4431     1.0  0.85340  0.27459  0.11930  1.0000
  C   C4432     1.0  0.86455  0.27837  0.10771  1.0000
  H   H5304     1.0  0.88306  0.24502  0.10351  1.0000
  H   H5305     1.0  0.86312  0.23844  0.12312  1.0000
  H   H5306     1.0  0.84520  0.28280  0.12383  1.0000
  H   H5307     1.0  0.86486  0.28953  0.10327  1.0000
  S   S1211     1.0  0.75291  0.05417  0.09817  1.0000
  H   H5308     1.0  0.81896  0.02988  0.12855  1.0000
  H   H5309     1.0  0.75396  0.29861  0.17321  1.0000
  H   H5310     1.0  0.92645  0.30933  0.07864  1.0000
  H   H5311     1.0  0.84769  0.25924  0.09240  1.0000
  C   C4433     1.0  0.91410  0.13845  0.10988  1.0000
  N   N297      1.0  0.80212  0.02280  0.14603  1.0000
  C   C4434     1.0  0.93715  0.17699  0.12624  1.0000
  C   C4435     1.0  0.93812  0.17981  0.11144  1.0000
  C   C4436     1.0  0.92673  0.18883  0.10554  1.0000
  C   C4437     1.0  0.91415  0.19450  0.11453  1.0000
  C   C4438     1.0  0.91321  0.19181  0.12928  1.0000
  C   C4439     1.0  0.92485  0.18332  0.13508  1.0000
  C   C4440     1.0  0.81360  0.10235  0.01085  1.0000
  H   H5312     1.0  0.92743  0.19093  0.09411  1.0000
  H   H5313     1.0  0.90354  0.19634  0.13619  1.0000
  H   H5314     1.0  0.92429  0.18168  0.14640  1.0000
  C   C4441     1.0  0.81206  0.17163  0.00464  1.0000
  C   C4442     1.0  0.76731  0.08468  0.04663  1.0000
  C   C4443     1.0  0.76210  0.09583  0.03593  1.0000
  C   C4444     1.0  0.76887  0.09652  0.02143  1.0000
  C   C4445     1.0  0.78077  0.08592  0.01753  1.0000
  C   C4446     1.0  0.78589  0.07462  0.02820  1.0000
  C   C4447     1.0  0.77920  0.07403  0.04276  1.0000
  N   N298      1.0  0.90786  0.15294  0.11299  1.0000
  H   H5315     1.0  0.76468  0.10510  0.01324  1.0000
  H   H5316     1.0  0.79510  0.06640  0.02519  1.0000
  H   H5317     1.0  0.78327  0.06536  0.05094  1.0000
  C   C4448     1.0  0.89788  0.12342  0.15429  1.0000
  C   C4449     1.0  0.89016  0.11253  0.15913  1.0000
  Fe  Fe602     1.0  0.84620  0.21039  0.98295  1.0000
  H   H5318     1.0  0.88879  0.13454  0.11959  1.0000
  S   S1212     1.0  0.87740  0.04186  0.14800  1.0000
  C   C4450     1.0  0.90596  0.12539  0.16283  1.0000
  C   C4451     1.0  0.95727  0.24794  0.08463  1.0000
  C   C4452     1.0  0.82128  0.16392  0.15999  1.0000
  H   H5319     1.0  0.76612  0.10121  0.14070  1.0000
  H   H5320     1.0  0.95816  0.20718  0.11580  1.0000
  C   C4453     1.0  0.80367  0.04710  0.14743  1.0000
  C   C4454     1.0  0.81952  0.08690  0.12476  1.0000
  C   C4455     1.0  0.80641  0.08948  0.12092  1.0000
  C   C4456     1.0  0.80384  0.07994  0.11434  1.0000
  C   C4457     1.0  0.81448  0.06796  0.11131  1.0000
  C   C4458     1.0  0.82756  0.06543  0.11514  1.0000
  C   C4459     1.0  0.83002  0.07478  0.12198  1.0000
  H   H5321     1.0  0.79823  0.09881  0.12309  1.0000
  H   H5322     1.0  0.79371  0.08195  0.11148  1.0000
  H   H5323     1.0  0.83588  0.05626  0.11273  1.0000
  H   H5324     1.0  0.84019  0.07279  0.12478  1.0000
  H   H5325     1.0  0.95865  0.26131  0.09770  1.0000
  C   C4460     1.0  0.74389  0.10512  0.15144  1.0000
  H   H5326     1.0  0.74463  0.12084  0.05678  1.0000
  C   C4461     1.0  0.77370  0.00126  0.09554  1.0000
  C   C4462     1.0  0.76665  0.00683  0.08421  1.0000
  C   C4463     1.0  0.76421  0.99752  0.07723  1.0000
  H   H5327     1.0  0.79273  0.19037  0.97931  1.0000
  H   H5328     1.0  0.81911  0.98180  0.10723  1.0000
  H   H5329     1.0  0.76311  0.01830  0.08079  1.0000
  H   H5330     1.0  0.75887  0.00192  0.06838  1.0000
  H   H5331     1.0  0.80919  0.27073  0.07697  1.0000
  H   H5332     1.0  0.86093  0.24911  0.07153  1.0000
  C   C4464     1.0  0.80529  0.24977  0.02258  1.0000
  H   H5333     1.0  0.83022  0.09160  0.06340  1.0000
  H   H5334     1.0  0.82086  0.99556  0.11428  1.0000
  C   C4465     1.0  0.75604  0.09824  0.14272  1.0000
  S   S1213     1.0  0.94696  0.16887  0.17234  1.0000
  N   N299      1.0  0.77218  0.21052  0.04746  1.0000
  C   C4466     1.0  0.75895  0.22050  0.04387  1.0000
  C   C4467     1.0  0.78137  0.20649  0.03397  1.0000
  C   C4468     1.0  0.76842  0.19732  0.05747  1.0000
  C   C4469     1.0  0.77904  0.21732  0.05438  1.0000
  C   C4470     1.0  0.77140  0.22229  0.06706  1.0000
  C   C4471     1.0  0.79329  0.21922  0.04889  1.0000
  C   C4472     1.0  0.77746  0.22914  0.07355  1.0000
  C   C4473     1.0  0.79927  0.22601  0.05552  1.0000
  C   C4474     1.0  0.79133  0.23110  0.06773  1.0000
  H   H5335     1.0  0.76122  0.23082  0.03690  1.0000
  H   H5336     1.0  0.77805  0.18971  0.06075  1.0000
  H   H5337     1.0  0.75089  0.22312  0.05354  1.0000
  H   H5338     1.0  0.78440  0.21600  0.02580  1.0000
  C   C4475     1.0  0.80907  0.98226  0.07087  1.0000
  H   H5339     1.0  0.79128  0.19850  0.03596  1.0000
  H   H5340     1.0  0.76354  0.19173  0.05248  1.0000
  H   H5341     1.0  0.80434  0.99665  0.10968  1.0000
  H   H5342     1.0  0.76057  0.19958  0.06741  1.0000
  H   H5343     1.0  0.76058  0.22110  0.07197  1.0000
  H   H5344     1.0  0.79998  0.21589  0.03928  1.0000
  H   H5345     1.0  0.77126  0.23315  0.08302  1.0000
  H   H5346     1.0  0.81000  0.22773  0.05085  1.0000
  H   H5347     1.0  0.79588  0.23671  0.07260  1.0000
  H   H5348     1.0  0.74547  0.14810  0.06503  1.0000
  H   H5349     1.0  0.82132  0.09182  0.01206  1.0000
  H   H5350     1.0  0.74160  0.37482  0.12746  1.0000
  H   H5351     1.0  0.83213  0.13746  0.14151  1.0000
  H   H5352     1.0  0.75271  0.10392  0.03880  1.0000
  C   C4476     1.0  0.81617  0.99357  0.10634  1.0000
  C   C4477     1.0  0.88097  0.20435  0.02772  1.0000
  H   H5353     1.0  0.79085  0.16530  0.03724  1.0000
  N   N300      1.0  0.97587  0.19851  0.10011  1.0000
  H   H5354     1.0  0.89021  0.17746  0.12076  1.0000
  H   H5355     1.0  0.87424  0.21930  0.14125  1.0000
  H   H5356     1.0  0.76860  0.16075  0.03600  1.0000
  C   C4478     1.0  0.91516  0.29306  0.06903  1.0000
  H   H5357     1.0  0.74160  0.33182  0.06972  1.0000
  H   H5358     1.0  0.86452  0.18236  0.12999  1.0000
  C   C4479     1.0  0.86695  0.21959  0.15200  1.0000
  H   H5359     1.0  0.80616  0.01519  0.16734  1.0000
  H   H5360     1.0  0.85085  0.16386  0.13410  1.0000
  H   H5361     1.0  0.98539  0.23264  0.06134  1.0000
  H   H5362     1.0  0.83561  0.15513  0.97897  1.0000
  S   S1214     1.0  0.74805  0.19128  0.03035  1.0000
  C   C4480     1.0  0.92369  0.29937  0.08612  1.0000
  H   H5363     1.0  0.78921  0.33252  0.13422  1.0000
  C   C4481     1.0  0.81581  0.98500  0.08004  1.0000
  C   C4482     1.0  0.79754  0.14456  0.05026  1.0000
  H   H5364     1.0  0.90416  0.29670  0.07522  1.0000
  H   H5365     1.0  0.91786  0.30208  0.05997  1.0000
  H   H5366     1.0  0.91427  0.28444  0.06448  1.0000
  S   S1215     1.0  0.95180  0.13555  0.16909  1.0000
  H   H5367     1.0  0.77510  0.16541  0.12413  1.0000
  C   C4483     1.0  0.94043  0.28460  0.06944  1.0000
  C   C4484     1.0  0.75512  0.08766  0.13638  1.0000
  H   H5368     1.0  0.96887  0.17858  0.10796  1.0000
  N   N301      1.0  0.77298  0.33827  0.15237  1.0000
  H   H5369     1.0  0.79369  0.32387  0.15127  1.0000
  H   H5370     1.0  0.79537  0.99131  0.05588  1.0000
  C   C4485     1.0  0.78476  0.32774  0.14559  1.0000
  C   C4486     1.0  0.76175  0.34380  0.14394  1.0000
  C   C4487     1.0  0.75536  0.33417  0.14106  1.0000
  C   C4488     1.0  0.75657  0.35866  0.13870  1.0000
  H   H5371     1.0  0.86945  0.13871  0.15894  1.0000
  H   H5372     1.0  0.81384  0.15993  0.14353  1.0000
  H   H5373     1.0  0.79361  0.10241  0.15156  1.0000
  C   C4489     1.0  0.97847  0.19794  0.08483  1.0000
  H   H5374     1.0  0.97508  0.18363  0.12062  1.0000
  H   H5375     1.0  0.96614  0.18776  0.14899  1.0000
  C   C4490     1.0  0.74778  0.35909  0.09175  1.0000
  H   H5376     1.0  0.74761  0.13384  0.12485  1.0000
  H   H5377     1.0  0.85907  0.11860  0.17480  1.0000
  H   H5378     1.0  0.78138  0.31800  0.14573  1.0000
  C   C4491     1.0  0.79949  0.08998  0.05653  1.0000
  H   H5379     1.0  0.76004  0.14706  0.02630  1.0000
  H   H5380     1.0  0.75837  0.32276  0.14512  1.0000
  C   C4492     1.0  0.74402  0.11211  0.10572  1.0000
  C   C4493     1.0  0.75626  0.16698  0.00125  1.0000
  C   C4494     1.0  0.87000  0.17190  0.12780  1.0000
  H   H5381     1.0  0.91263  0.12986  0.11979  1.0000
  H   H5382     1.0  0.82175  0.26085  0.05601  1.0000
  C   C4495     1.0  0.78150  0.24844  0.02261  1.0000
  H   H5383     1.0  0.90749  0.17477  0.10082  1.0000
  C   C4496     1.0  0.84864  0.02864  0.13589  1.0000
  C   C4497     1.0  0.79522  0.03739  0.14851  1.0000
  H   H5384     1.0  0.77614  0.12104  0.14143  1.0000
  H   H5385     1.0  0.85129  0.04862  0.13798  1.0000
  H   H5386     1.0  0.77791  0.07614  0.15506  1.0000
  H   H5387     1.0  0.80877  0.08164  0.07511  1.0000
  H   H5388     1.0  0.75381  0.21598  0.03810  1.0000
  C   C4498     1.0  0.97692  0.18372  0.10903  1.0000
  H   H5389     1.0  0.83795  0.10626  0.01373  1.0000
  C   C4499     1.0  0.77150  0.13902  0.04938  1.0000
  S   S1216     1.0  0.78055  0.18181  0.16483  1.0000
  C   C4500     1.0  0.77406  0.05625  0.15428  1.0000
  H   H5390     1.0  0.82249  0.02361  0.08157  1.0000
  H   H5391     1.0  0.77282  0.03598  0.15272  1.0000
  H   H5392     1.0  0.93017  0.29576  0.09444  1.0000
  H   H5393     1.0  0.95911  0.21752  0.09750  1.0000
  H   H5394     1.0  0.80745  0.14676  0.05058  1.0000
  H   H5395     1.0  0.84499  0.23967  0.16759  1.0000
  H   H5396     1.0  0.75046  0.21946  0.10283  1.0000
  S   S1217     1.0  0.81757  0.31783  0.16311  1.0000
  C   C4501     1.0  0.86934  0.14815  0.12704  1.0000
  C   C4502     1.0  0.97952  0.23878  0.06939  1.0000
  H   H5397     1.0  0.82957  0.12151  0.00205  1.0000
  C   C4503     1.0  0.80600  0.01038  0.07294  1.0000
  H   H5398     1.0  0.87814  0.24435  0.16106  1.0000
  C   C4504     1.0  0.76305  0.18218  0.16470  1.0000
  H   H5399     1.0  0.80419  0.13052  0.00753  1.0000
  N   N302      1.0  0.82135  0.00161  0.09162  1.0000
  C   C4505     1.0  0.81344  0.10333  0.03504  1.0000
  C   C4506     1.0  0.80113  0.09766  0.04225  1.0000
  N   N303      1.0  0.87284  0.22483  0.16117  1.0000
  H   H5400     1.0  0.81104  0.11525  0.15482  1.0000
  C   C4507     1.0  0.75380  0.19519  0.16047  1.0000
  H   H5401     1.0  0.80689  0.02129  0.09589  1.0000
  C   C4508     1.0  0.74092  0.37345  0.09151  1.0000
  C   C4509     1.0  0.82385  0.10109  0.04314  1.0000
  S   S1218     1.0  0.74510  0.11849  0.15922  1.0000
  Fe  Fe603     1.0  0.76355  0.13784  0.98461  1.0000
  Fe  Fe604     1.0  0.86532  0.06421  0.15078  1.0000
  H   H5402     1.0  0.83011  0.16557  0.17627  1.0000
  C   C4510     1.0  0.78509  0.13072  0.15325  1.0000
  C   C4511     1.0  0.91091  0.16358  0.09932  1.0000
  H   H5403     1.0  0.80152  0.12321  0.06315  1.0000
  C   C4512     1.0  0.87462  0.01658  0.14404  1.0000
  C   C4513     1.0  0.96586  0.28526  0.06292  1.0000
  H   H5404     1.0  0.97000  0.19405  0.08275  1.0000
  H   H5405     1.0  0.88181  0.24049  0.14354  1.0000
  N   N304      1.0  0.85103  0.24761  0.04904  1.0000
  C   C4514     1.0  0.84232  0.24852  0.03880  1.0000
  C   C4515     1.0  0.86264  0.25525  0.04102  1.0000
  C   C4516     1.0  0.85743  0.23224  0.05400  1.0000
  C   C4517     1.0  0.84278  0.25383  0.06161  1.0000
  C   C4518     1.0  0.82792  0.26014  0.06361  1.0000
  C   C4519     1.0  0.84966  0.25367  0.07236  1.0000
  C   C4520     1.0  0.82052  0.26588  0.07566  1.0000
  C   C4521     1.0  0.84217  0.25943  0.08435  1.0000
  C   C4522     1.0  0.82762  0.26550  0.08601  1.0000
  H   H5406     1.0  0.83755  0.25980  0.03414  1.0000
  H   H5407     1.0  0.84883  0.24372  0.02949  1.0000
  H   H5408     1.0  0.83364  0.24256  0.04392  1.0000
  H   H5409     1.0  0.85834  0.26696  0.03778  1.0000
  H   H5410     1.0  0.86866  0.25134  0.03109  1.0000
  H   H5411     1.0  0.87072  0.25368  0.04735  1.0000
  H   H5412     1.0  0.84918  0.22636  0.06114  1.0000
  H   H5413     1.0  0.86262  0.22687  0.04484  1.0000
  H   H5414     1.0  0.92708  0.15272  0.11902  1.0000
  C   C4523     1.0  0.75792  0.16961  0.17017  1.0000
  H   H5415     1.0  0.83880  0.03352  0.13238  1.0000
  Fe  Fe605     1.0  0.82808  0.19534  0.00921  1.0000
  H   H5416     1.0  0.74637  0.15863  0.04707  1.0000
  H   H5417     1.0  0.91240  0.30226  0.09200  1.0000
  Fe  Fe606     1.0  0.85643  0.19999  0.01123  1.0000
  S   S1219     1.0  0.87370  0.19176  0.02412  1.0000
  H   H5418     1.0  0.80279  0.10012  0.01356  1.0000
  C   C4524     1.0  0.82881  0.11570  0.01352  1.0000
  S   S1220     1.0  0.95592  0.23140  0.06700  1.0000
  C   C4525     1.0  0.81051  0.02382  0.13104  1.0000
  H   H5419     1.0  0.89750  0.13045  0.14393  1.0000
  H   H5420     1.0  0.76254  0.05996  0.15665  1.0000
  H   H5421     1.0  0.92252  0.16192  0.09431  1.0000
  S   S1221     1.0  0.82328  0.21660  0.99406  1.0000
  H   H5422     1.0  0.84267  0.99841  0.09463  1.0000
  H   H5423     1.0  0.97234  0.22440  0.10845  1.0000
  C   C4526     1.0  0.77872  0.13056  0.14220  1.0000
  Fe  Fe607     1.0  0.75832  0.06234  0.11437  1.0000
  H   H5424     1.0  0.75432  0.12154  0.06913  1.0000
  H   H5425     1.0  0.74765  0.13570  0.03248  1.0000
  H   H5426     1.0  0.92581  0.13687  0.10535  1.0000
  H   H5427     1.0  0.97465  0.28847  0.06462  1.0000
  H   H5428     1.0  0.76671  0.18091  0.00579  1.0000
  H   H5429     1.0  0.85657  0.22659  0.14997  1.0000
  N   N305      1.0  0.81496  0.11130  0.01987  1.0000
  C   C4527     1.0  0.78135  0.12854  0.05694  1.0000
  C   C4528     1.0  0.87428  0.23978  0.15424  1.0000
  N   N306      1.0  0.75783  0.13648  0.04871  1.0000
  C   C4529     1.0  0.80353  0.12448  0.01885  1.0000
  C   C4530     1.0  0.76683  0.33108  0.16713  1.0000
  H   H5430     1.0  0.91183  0.16532  0.12559  1.0000
  S   S1222     1.0  0.74052  0.07006  0.13191  1.0000
  C   C4531     1.0  0.78016  0.04241  0.15196  1.0000
  H   H5431     1.0  0.76491  0.16388  0.99257  1.0000
  H   H5432     1.0  0.79273  0.12212  0.02281  1.0000
  C   C4532     1.0  0.82559  0.15852  0.98615  1.0000
  H   H5433     1.0  0.90524  0.16298  0.09142  1.0000
  H   H5434     1.0  0.82397  0.01845  0.09982  1.0000
  C   C4533     1.0  0.79746  0.06085  0.14992  1.0000
  C   C4534     1.0  0.75161  0.33092  0.07300  1.0000
  C   C4535     1.0  0.78816  0.15502  0.04273  1.0000
  C   C4536     1.0  0.78269  0.06541  0.15333  1.0000
  N   N307      1.0  0.74902  0.33489  0.08701  1.0000
  H   H5435     1.0  0.80420  0.06807  0.14892  1.0000
  H   H5436     1.0  0.95975  0.26426  0.04475  1.0000
  S   S1223     1.0  0.82438  0.27558  0.17009  1.0000
  C   C4537     1.0  0.82153  0.15609  0.15031  1.0000
  C   C4538     1.0  0.98314  0.21821  0.10631  1.0000
  H   H5437     1.0  0.79012  0.08551  0.06170  1.0000
  H   H5438     1.0  0.79189  0.14519  0.16161  1.0000
  C   C4539     1.0  0.81438  0.99912  0.08150  1.0000
  H   H5439     1.0  0.92298  0.26634  0.08373  1.0000
  C   C4540     1.0  0.94366  0.27551  0.05971  1.0000
  H   H5440     1.0  0.84131  0.00186  0.07622  1.0000
  C   C4541     1.0  0.74212  0.08367  0.13905  1.0000
  S   S1224     1.0  0.85078  0.18864  0.99750  1.0000
  C   C4542     1.0  0.74617  0.18036  0.02017  1.0000
  H   H5441     1.0  0.74192  0.24445  0.10611  1.0000
  H   H5442     1.0  0.76265  0.32187  0.16722  1.0000
  C   C4543     1.0  0.76281  0.33011  0.09164  1.0000
  H   H5443     1.0  0.76150  0.33090  0.10289  1.0000
  H   H5444     1.0  0.74348  0.00874  0.11854  1.0000
  H   H5445     1.0  0.84984  0.12906  0.15621  1.0000
  C   C4544     1.0  0.79941  0.00754  0.06368  1.0000
  C   C4545     1.0  0.88475  0.16899  0.12244  1.0000
  H   H5446     1.0  0.93060  0.27065  0.09589  1.0000
  H   H5447     1.0  0.76043  0.36683  0.14071  1.0000
  C   C4546     1.0  0.85577  0.03728  0.13898  1.0000
  H   H5448     1.0  0.75676  0.35498  0.09682  1.0000
  H   H5449     1.0  0.83441  0.17036  0.99524  1.0000
  H   H5450     1.0  0.77556  0.10500  0.16247  1.0000
  H   H5451     1.0  0.87174  0.99647  0.14221  1.0000
  C   C4547     1.0  0.85418  0.01385  0.13722  1.0000
  H   H5452     1.0  0.79279  0.01623  0.05751  1.0000
  H   H5453     1.0  0.89460  0.21673  0.15074  1.0000
  H   H5454     1.0  0.88735  0.20436  0.16599  1.0000
  H   H5455     1.0  0.80410  0.02144  0.07341  1.0000
  C   C4548     1.0  0.79417  0.13134  0.05731  1.0000
  H   H5456     1.0  0.77075  0.33630  0.08435  1.0000
  H   H5457     1.0  0.83023  0.12325  0.01914  1.0000
  C   C4549     1.0  0.80996  0.08780  0.06409  1.0000
  C   C4550     1.0  0.75143  0.98664  0.12751  1.0000
  C   C4551     1.0  0.74467  0.33905  0.13325  1.0000
  C   C4552     1.0  0.83177  0.14345  0.14924  1.0000
  C   C4553     1.0  0.75064  0.11929  0.11129  1.0000
  C   C4554     1.0  0.77540  0.15230  0.04216  1.0000
  H   H5458     1.0  0.75807  0.98903  0.13307  1.0000
  C   C4555     1.0  0.89227  0.15556  0.11904  1.0000
  C   C4556     1.0  0.86230  0.16151  0.13007  1.0000
  C   C4557     1.0  0.92270  0.27496  0.08894  1.0000
  C   C4558     1.0  0.82207  0.09340  0.05744  1.0000
  C   C4559     1.0  0.74320  0.99775  0.11927  1.0000
  H   H5459     1.0  0.95083  0.29578  0.07838  1.0000
  H   H5460     1.0  0.86512  0.20862  0.15710  1.0000
  S   S1225     1.0  0.74274  0.14863  0.99675  1.0000
  H   H5461     1.0  0.95310  0.20135  0.10291  1.0000
  C   C4560     1.0  0.86727  0.00782  0.14126  1.0000
  C   C4561     1.0  0.96469  0.24007  0.07416  1.0000
  C   C4562     1.0  0.84144  0.14597  0.16835  1.0000
  C   C4563     1.0  0.88409  0.14516  0.12157  1.0000
  H   H5462     1.0  0.97807  0.20819  0.13819  1.0000
  C   C4564     1.0  0.74248  0.12872  0.12005  1.0000
  C   C4565     1.0  0.97732  0.18635  0.14880  1.0000
  H   H5463     1.0  0.97859  0.20877  0.07772  1.0000
  H   H5464     1.0  0.80717  0.10526  0.17297  1.0000
  C   C4566     1.0  0.95750  0.27162  0.05174  1.0000
  C   C4567     1.0  0.77524  0.14294  0.13183  1.0000
  H   H5465     1.0  0.75807  0.33777  0.06426  1.0000
  H   H5466     1.0  0.81518  0.04423  0.14446  1.0000
  C   C4568     1.0  0.78691  0.10454  0.16210  1.0000
  N   N308      1.0  0.92579  0.28804  0.07822  1.0000
  C   C4569     1.0  0.74402  0.16139  0.00508  1.0000
  H   H5467     1.0  0.97969  0.16416  0.15968  1.0000
  H   H5468     1.0  0.83353  0.10503  0.03865  1.0000
  H   H5469     1.0  0.76769  0.31865  0.09145  1.0000
  H   H5470     1.0  0.80435  0.13176  0.02511  1.0000
  C   C4570     1.0  0.78754  0.14406  0.15330  1.0000
  C   C4571     1.0  0.95202  0.28931  0.07089  1.0000
  H   H5471     1.0  0.74537  0.27854  0.17388  1.0000
  H   H5472     1.0  0.86403  0.24703  0.15219  1.0000
  H   H5473     1.0  0.93563  0.27088  0.05854  1.0000
  H   H5474     1.0  0.86340  0.13998  0.12889  1.0000
  H   H5475     1.0  0.84016  0.98471  0.08797  1.0000
  H   H5476     1.0  0.78598  0.16644  0.14307  1.0000
  H   H5477     1.0  0.76218  0.11715  0.10923  1.0000
  C   C4572     1.0  0.81338  0.15435  0.98610  1.0000
  H   H5478     1.0  0.78804  0.34492  0.15961  1.0000
  C   C4573     1.0  0.77933  0.34956  0.15359  1.0000
  C   C4574     1.0  0.89056  0.10361  0.17273  1.0000
  H   H5479     1.0  0.75098  0.10470  0.09933  1.0000
  C   C4575     1.0  0.75801  0.13684  0.03365  1.0000
  H   H5480     1.0  0.73970  0.16031  0.17584  1.0000
  H   H5481     1.0  0.74472  0.37985  0.09620  1.0000
  C   C4576     1.0  0.81186  0.01534  0.15597  1.0000
  H   H5482     1.0  0.78529  0.01231  0.15945  1.0000
  H   H5483     1.0  0.76326  0.11341  0.05392  1.0000
  C   C4577     1.0  0.74286  0.35042  0.08582  1.0000
  H   H5484     1.0  0.75744  0.31956  0.07332  1.0000
  H   H5485     1.0  0.79750  0.00272  0.14658  1.0000
  H   H5486     1.0  0.78472  0.01815  0.14059  1.0000
  C   C4578     1.0  0.79189  0.01366  0.14830  1.0000
  H   H5487     1.0  0.73767  0.98798  0.08343  1.0000
  H   H5488     1.0  0.81669  0.00405  0.15496  1.0000
  H   H5489     1.0  0.80558  0.12402  0.16962  1.0000
  H   H5490     1.0  0.97941  0.27296  0.04760  1.0000
  C   C4579     1.0  0.98497  0.17305  0.15476  1.0000
  Fe  Fe608     1.0  0.84543  0.07822  0.17444  1.0000
  H   H5491     1.0  0.74320  0.31516  0.09975  1.0000
  C   C4580     1.0  0.74352  0.17005  0.17159  1.0000
  H   H5492     1.0  0.89256  0.21936  0.16833  1.0000
  H   H5493     1.0  0.84291  0.99586  0.16685  1.0000
  H   H5494     1.0  0.81617  0.34464  0.16909  1.0000
  C   C4581     1.0  0.98406  0.19780  0.14269  1.0000
  H   H5495     1.0  0.85212  0.01566  0.16773  1.0000
  H   H5496     1.0  0.75780  0.33862  0.17253  1.0000
  S   S1226     1.0  0.73814  0.20203  0.09341  1.0000
  C   C4582     1.0  0.73994  0.35366  0.12814  1.0000
  C   C4583     1.0  0.76860  0.98257  0.08164  1.0000
  H   H5497     1.0  0.76505  0.15954  0.17341  1.0000
  H   H5498     1.0  0.87210  0.01893  0.17341  1.0000
  H   H5499     1.0  0.85016  0.03718  0.17116  1.0000
  H   H5500     1.0  0.78376  0.98193  0.10854  1.0000
  H   H5501     1.0  0.86530  0.15535  0.16429  1.0000
  C   C4584     1.0  0.86599  0.14364  0.16845  1.0000
  C   C4585     1.0  0.83107  0.15902  0.16890  1.0000
  H   H5502     1.0  0.73777  0.08739  0.10263  1.0000
  C   C4586     1.0  0.90647  0.11642  0.17637  1.0000
  C   C4587     1.0  0.84256  0.99776  0.17718  1.0000
  H   H5503     1.0  0.87461  0.13932  0.17457  1.0000
  H   H5504     1.0  0.88467  0.09518  0.17664  1.0000
  H   H5505     1.0  0.77489  0.32691  0.17392  1.0000
  C   C4588     1.0  0.84891  0.23288  0.17688  1.0000
  S   S1227     1.0  0.73666  0.29747  0.08485  1.0000
  N   N309      1.0  0.85216  0.14063  0.17740  1.0000
  Fe  Fe609     1.0  0.78394  0.14384  0.21020  1.0000
  S   S1228     1.0  0.80089  0.15280  0.19280  1.0000
  S   S1229     1.0  0.78137  0.12121  0.21509  1.0000
  H   H5506     1.0  0.73781  0.14392  0.20634  1.0000
  S   S1230     1.0  0.78451  0.18392  0.20142  1.0000
  C   C4589     1.0  0.80924  0.24456  0.22394  1.0000
  H   H5507     1.0  0.77550  0.36108  0.25336  1.0000
  C   C4590     1.0  0.81957  0.24266  0.23170  1.0000
  Fe  Fe610     1.0  0.80095  0.16486  0.20869  1.0000
  S   S1231     1.0  0.82068  0.17006  0.21024  1.0000
  H   H5508     1.0  0.74510  0.37217  0.26754  1.0000
  S   S1232     1.0  0.78545  0.15428  0.22685  1.0000
  C   C4591     1.0  0.74925  0.37485  0.29913  1.0000
  S   S1233     1.0  0.83362  0.07205  0.19714  1.0000
  C   C4592     1.0  0.77751  0.33521  0.27250  1.0000
  C   C4593     1.0  0.82040  0.28980  0.23879  1.0000
  Fe  Fe611     1.0  0.82484  0.20607  0.26341  1.0000
  S   S1234     1.0  0.83852  0.19241  0.27865  1.0000
  S   S1235     1.0  0.80530  0.20001  0.26221  1.0000
  Fe  Fe612     1.0  0.84233  0.22829  0.25265  1.0000
  S   S1236     1.0  0.85783  0.21699  0.26690  1.0000
  S   S1237     1.0  0.84237  0.24908  0.23664  1.0000
  Fe  Fe613     1.0  0.85709  0.19726  0.26072  1.0000
  S   S1238     1.0  0.87591  0.17915  0.25618  1.0000
  Fe  Fe614     1.0  0.83814  0.21304  0.28378  1.0000
  S   S1239     1.0  0.83537  0.21230  0.30712  1.0000
  S   S1240     1.0  0.84341  0.20893  0.24487  1.0000
  S   S1241     1.0  0.82277  0.22628  0.27015  1.0000
  Fe  Fe615     1.0  0.78226  0.27809  0.33127  1.0000
  S   S1242     1.0  0.77163  0.27681  0.31498  1.0000
  S   S1243     1.0  0.79487  0.25792  0.34245  1.0000
  Fe  Fe616     1.0  0.77107  0.31000  0.32816  1.0000
  C   C4594     1.0  0.78415  0.23367  0.29288  1.0000
  C   C4595     1.0  0.76365  0.27469  0.19084  1.0000
  H   H5509     1.0  0.75535  0.21122  0.26628  1.0000
  H   H5510     1.0  0.85188  0.04615  0.18341  1.0000
  Fe  Fe617     1.0  0.77944  0.29650  0.30237  1.0000
  S   S1244     1.0  0.78747  0.29851  0.27874  1.0000
  S   S1245     1.0  0.76256  0.29118  0.34294  1.0000
  S   S1246     1.0  0.79168  0.29685  0.31789  1.0000
  H   H5511     1.0  0.78828  0.22222  0.27592  1.0000
  H   H5512     1.0  0.75430  0.22772  0.19183  1.0000
  N   N310      1.0  0.78344  0.22084  0.30476  1.0000
  H   H5513     1.0  0.82418  0.26004  0.27541  1.0000
  H   H5514     1.0  0.81639  0.30998  0.26293  1.0000
  Fe  Fe618     1.0  0.78298  0.17098  0.18717  1.0000
  C   C4596     1.0  0.74439  0.11274  0.23091  1.0000
  H   H5515     1.0  0.76977  0.27851  0.19625  1.0000
  S   S1247     1.0  0.91648  0.11862  0.18747  1.0000
  H   H5516     1.0  0.80028  0.20658  0.29301  1.0000
  C   C4597     1.0  0.88315  0.13678  0.21106  1.0000
  C   C4598     1.0  0.81673  0.26580  0.20834  1.0000
  C   C4599     1.0  0.74044  0.34327  0.36922  1.0000
  N   N311      1.0  0.85450  0.02327  0.19124  1.0000
  C   C4600     1.0  0.85396  0.12491  0.18323  1.0000
  H   H5517     1.0  0.83757  0.14623  0.19655  1.0000
  C   C4601     1.0  0.77271  0.30005  0.27189  1.0000
  C   C4602     1.0  0.75990  0.29748  0.28127  1.0000
  H   H5518     1.0  0.78067  0.12939  0.18175  1.0000
  C   C4603     1.0  0.74970  0.34354  0.35565  1.0000
  C   C4604     1.0  0.76095  0.30787  0.25198  1.0000
  C   C4605     1.0  0.77335  0.30481  0.25717  1.0000
  H   H5519     1.0  0.75924  0.29368  0.29262  1.0000
  N   N312      1.0  0.76445  0.34620  0.26987  1.0000
  H   H5520     1.0  0.76141  0.31207  0.24068  1.0000
  H   H5521     1.0  0.78325  0.30671  0.24986  1.0000
  C   C4606     1.0  0.84808  0.01164  0.19104  1.0000
  H   H5522     1.0  0.80263  0.23686  0.22685  1.0000
  H   H5523     1.0  0.78041  0.24957  0.30571  1.0000
  C   C4607     1.0  0.81461  0.30070  0.22829  1.0000
  Fe  Fe619     1.0  0.75300  0.29205  0.32492  1.0000
  H   H5524     1.0  0.78825  0.21836  0.23759  1.0000
  C   C4608     1.0  0.80795  0.25602  0.21212  1.0000
  H   H5525     1.0  0.78572  0.09089  0.22268  1.0000
  H   H5526     1.0  0.86085  0.20916  0.21145  1.0000
  H   H5527     1.0  0.74742  0.23376  0.26731  1.0000
  C   C4609     1.0  0.82882  0.25204  0.22751  1.0000
  C   C4610     1.0  0.82729  0.26371  0.21591  1.0000
  H   H5528     1.0  0.83435  0.27106  0.21266  1.0000
  C   C4611     1.0  0.82381  0.22551  0.31610  1.0000
  C   C4612     1.0  0.82237  0.22285  0.33094  1.0000
  C   C4613     1.0  0.81343  0.23288  0.33878  1.0000
  C   C4614     1.0  0.80583  0.24576  0.33188  1.0000
  C   C4615     1.0  0.80715  0.24854  0.31696  1.0000
  C   C4616     1.0  0.81611  0.23835  0.30905  1.0000
  H   H5529     1.0  0.82828  0.21296  0.33644  1.0000
  H   H5530     1.0  0.81248  0.23067  0.35026  1.0000
  H   H5531     1.0  0.80139  0.25853  0.31154  1.0000
  H   H5532     1.0  0.81715  0.24043  0.29758  1.0000
  C   C4617     1.0  0.90050  0.18424  0.20949  1.0000
  C   C4618     1.0  0.90245  0.17095  0.21907  1.0000
  C   C4619     1.0  0.89520  0.16957  0.23350  1.0000
  C   C4620     1.0  0.88574  0.18142  0.23836  1.0000
  C   C4621     1.0  0.88379  0.19474  0.22881  1.0000
  C   C4622     1.0  0.89128  0.19616  0.21443  1.0000
  H   H5533     1.0  0.90930  0.16165  0.21534  1.0000
  H   H5534     1.0  0.89671  0.15924  0.24085  1.0000
  H   H5535     1.0  0.87661  0.20397  0.23254  1.0000
  C   C4623     1.0  0.84295  0.27529  0.25624  1.0000
  C   C4624     1.0  0.75304  0.33874  0.27147  1.0000
  H   H5536     1.0  0.77034  0.20512  0.31388  1.0000
  H   H5537     1.0  0.89903  0.09852  0.19174  1.0000
  H   H5538     1.0  0.75975  0.16458  0.27744  1.0000
  C   C4625     1.0  0.74070  0.26132  0.33702  1.0000
  H   H5539     1.0  0.84437  0.27155  0.24632  1.0000
  S   S1248     1.0  0.76799  0.33093  0.33423  1.0000
  C   C4626     1.0  0.74194  0.28145  0.20815  1.0000
  C   C4627     1.0  0.74106  0.26773  0.21717  1.0000
  Fe  Fe620     1.0  0.75607  0.34724  0.21713  1.0000
  H   H5540     1.0  0.82054  0.23370  0.24069  1.0000
  C   C4628     1.0  0.81552  0.17921  0.22419  1.0000
  C   C4629     1.0  0.80633  0.17427  0.23700  1.0000
  C   C4630     1.0  0.80287  0.18098  0.24853  1.0000
  C   C4631     1.0  0.80874  0.19254  0.24731  1.0000
  C   C4632     1.0  0.81745  0.19788  0.23430  1.0000
  C   C4633     1.0  0.82084  0.19122  0.22272  1.0000
  H   H5541     1.0  0.80230  0.16493  0.23827  1.0000
  H   H5542     1.0  0.79602  0.17691  0.25854  1.0000
  H   H5543     1.0  0.82145  0.20724  0.23310  1.0000
  H   H5544     1.0  0.82766  0.19530  0.21270  1.0000
  H   H5545     1.0  0.77930  0.21423  0.32795  1.0000
  H   H5546     1.0  0.78066  0.20598  0.23375  1.0000
  S   S1249     1.0  0.76582  0.16112  0.20324  1.0000
  H   H5547     1.0  0.84911  0.28379  0.25325  1.0000
  C   C4634     1.0  0.75806  0.31786  0.36211  1.0000
  H   H5548     1.0  0.94465  0.14495  0.23873  1.0000
  C   C4635     1.0  0.79636  0.10791  0.21027  1.0000
  C   C4636     1.0  0.79540  0.09357  0.21550  1.0000
  C   C4637     1.0  0.80699  0.08263  0.21163  1.0000
  C   C4638     1.0  0.81948  0.08597  0.20222  1.0000
  C   C4639     1.0  0.82047  0.10033  0.19690  1.0000
  C   C4640     1.0  0.80894  0.11131  0.20101  1.0000
  H   H5549     1.0  0.75474  0.30290  0.18920  1.0000
  C   C4641     1.0  0.83952  0.23286  0.19028  1.0000
  C   C4642     1.0  0.84833  0.14745  0.18988  1.0000
  H   H5550     1.0  0.80978  0.12233  0.19696  1.0000
  S   S1250     1.0  0.75067  0.32717  0.21662  1.0000
  H   H5551     1.0  0.73773  0.30454  0.18514  1.0000
  C   C4643     1.0  0.74357  0.13293  0.21066  1.0000
  C   C4644     1.0  0.77879  0.21735  0.23445  1.0000
  C   C4645     1.0  0.83715  0.98871  0.18978  1.0000
  C   C4646     1.0  0.76366  0.23618  0.24736  1.0000
  H   H5552     1.0  0.74491  0.12611  0.20302  1.0000
  C   C4647     1.0  0.77059  0.24665  0.23709  1.0000
  H   H5553     1.0  0.94433  0.18381  0.20640  1.0000
  C   C4648     1.0  0.76851  0.26039  0.23935  1.0000
  C   C4649     1.0  0.75924  0.26425  0.25170  1.0000
  H   H5554     1.0  0.87747  0.20867  0.18844  1.0000
  H   H5555     1.0  0.80673  0.32866  0.24428  1.0000
  H   H5556     1.0  0.78175  0.32868  0.26416  1.0000
  H   H5557     1.0  0.77860  0.22370  0.22334  1.0000
  C   C4650     1.0  0.73792  0.24241  0.32787  1.0000
  C   C4651     1.0  0.75845  0.36170  0.30274  1.0000
  C   C4652     1.0  0.76344  0.35230  0.29340  1.0000
  H   H5558     1.0  0.86113  0.12087  0.19095  1.0000
  H   H5559     1.0  0.78842  0.22853  0.32066  1.0000
  C   C4653     1.0  0.78980  0.34005  0.19920  1.0000
  H   H5560     1.0  0.77763  0.24452  0.22716  1.0000
  H   H5561     1.0  0.83602  0.03963  0.18674  1.0000
  H   H5562     1.0  0.75951  0.20500  0.18405  1.0000
  N   N313      1.0  0.94529  0.16562  0.22442  1.0000
  H   H5563     1.0  0.75836  0.36122  0.25084  1.0000
  H   H5564     1.0  0.75528  0.11319  0.23119  1.0000
  C   C4654     1.0  0.88807  0.14768  0.20015  1.0000
  H   H5565     1.0  0.74588  0.10500  0.22416  1.0000
  H   H5566     1.0  0.75662  0.13535  0.23211  1.0000
  S   S1251     1.0  0.74029  0.36189  0.20428  1.0000
  H   H5567     1.0  0.75444  0.13370  0.21045  1.0000
  C   C4655     1.0  0.74035  0.18090  0.27794  1.0000
  C   C4656     1.0  0.84240  0.00225  0.20373  1.0000
  H   H5568     1.0  0.75428  0.21113  0.23694  1.0000
  C   C4657     1.0  0.96305  0.17946  0.22380  1.0000
  C   C4658     1.0  0.78004  0.22403  0.31924  1.0000
  H   H5569     1.0  0.74434  0.25756  0.27114  1.0000
  C   C4659     1.0  0.94298  0.15083  0.22782  1.0000
  H   H5570     1.0  0.77389  0.21132  0.26391  1.0000
  C   C4660     1.0  0.73992  0.19912  0.19691  1.0000
  S   S1252     1.0  0.74968  0.18633  0.22948  1.0000
  C   C4661     1.0  0.94336  0.17246  0.20961  1.0000
  H   H5571     1.0  0.95024  0.14460  0.21984  1.0000
  H   H5572     1.0  0.78143  0.32097  0.20803  1.0000
  C   C4662     1.0  0.84788  0.00907  0.17778  1.0000
  H   H5573     1.0  0.82885  0.23961  0.19106  1.0000
  C   C4663     1.0  0.75610  0.17445  0.25609  1.0000
  H   H5574     1.0  0.84612  0.13990  0.24140  1.0000
  H   H5575     1.0  0.76868  0.19951  0.25667  1.0000
  H   H5576     1.0  0.80851  0.27274  0.27085  1.0000
  C   C4664     1.0  0.74761  0.30020  0.27605  1.0000
  C   C4665     1.0  0.85285  0.02537  0.20588  1.0000
  H   H5577     1.0  0.83473  0.15498  0.24810  1.0000
  H   H5578     1.0  0.83328  0.29339  0.27369  1.0000
  H   H5579     1.0  0.95153  0.16669  0.20176  1.0000
  H   H5580     1.0  0.74145  0.26543  0.18996  1.0000
  H   H5581     1.0  0.75616  0.33161  0.26378  1.0000
  H   H5582     1.0  0.83022  0.10292  0.18987  1.0000
  C   C4666     1.0  0.78794  0.24430  0.26698  1.0000
  H   H5583     1.0  0.74295  0.34641  0.26949  1.0000
  H   H5584     1.0  0.80523  0.32312  0.22214  1.0000
  H   H5585     1.0  0.92318  0.17250  0.23475  1.0000
  C   C4667     1.0  0.75816  0.33076  0.35191  1.0000
  H   H5586     1.0  0.81544  0.27498  0.19956  1.0000
  C   C4668     1.0  0.81058  0.31776  0.24280  1.0000
  H   H5587     1.0  0.86916  0.17650  0.21371  1.0000
  H   H5588     1.0  0.93577  0.16936  0.24570  1.0000
  N   N314      1.0  0.82772  0.28071  0.26253  1.0000
  H   H5589     1.0  0.83661  0.22449  0.21305  1.0000
  C   C4669     1.0  0.75390  0.24067  0.25953  1.0000
  H   H5590     1.0  0.85741  0.03450  0.20553  1.0000
  H   H5591     1.0  0.75229  0.22996  0.22945  1.0000
  H   H5592     1.0  0.83177  0.27580  0.28383  1.0000
  H   H5593     1.0  0.84351  0.12203  0.18887  1.0000
  C   C4670     1.0  0.84385  0.22433  0.20267  1.0000
  H   H5594     1.0  0.85854  0.01579  0.21263  1.0000
  H   H5595     1.0  0.81595  0.28902  0.28133  1.0000
  C   C4671     1.0  0.82013  0.26882  0.26679  1.0000
  H   H5596     1.0  0.84802  0.26599  0.26379  1.0000
  H   H5597     1.0  0.85473  0.15383  0.26048  1.0000
  C   C4672     1.0  0.75938  0.35592  0.27999  1.0000
  C   C4673     1.0  0.75188  0.25442  0.26173  1.0000
  Fe  Fe621     1.0  0.92476  0.16678  0.18442  1.0000
  H   H5598     1.0  0.85605  0.14265  0.19702  1.0000
  C   C4674     1.0  0.74876  0.29789  0.18478  1.0000
  C   C4675     1.0  0.81630  0.30690  0.25340  1.0000
  H   H5599     1.0  0.77408  0.26810  0.23140  1.0000
  C   C4676     1.0  0.76583  0.21058  0.25855  1.0000
  H   H5600     1.0  0.73746  0.38872  0.28350  1.0000
  N   N315      1.0  0.76542  0.22169  0.24498  1.0000
  C   C4677     1.0  0.74249  0.24673  0.33771  1.0000
  H   H5601     1.0  0.76572  0.16806  0.25084  1.0000
  C   C4678     1.0  0.82714  0.28501  0.27587  1.0000
  S   S1253     1.0  0.74154  0.34927  0.23855  1.0000
  H   H5602     1.0  0.74289  0.22372  0.24743  1.0000
  H   H5603     1.0  0.75373  0.15116  0.24780  1.0000
  Fe  Fe622     1.0  0.92895  0.13629  0.18118  1.0000
  C   C4679     1.0  0.85754  0.21569  0.20172  1.0000
  C   C4680     1.0  0.74959  0.20811  0.19155  1.0000
  H   H5604     1.0  0.75002  0.35359  0.34790  1.0000
  N   N316      1.0  0.74864  0.28286  0.19265  1.0000
  C   C4681     1.0  0.84781  0.03707  0.18279  1.0000
  C   C4682     1.0  0.74680  0.18445  0.24802  1.0000
  C   C4683     1.0  0.77919  0.12014  0.17859  1.0000
  C   C4684     1.0  0.82136  0.29251  0.25172  1.0000
  H   H5605     1.0  0.97456  0.17029  0.18778  1.0000
  H   H5606     1.0  0.76953  0.23163  0.32127  1.0000
  H   H5607     1.0  0.77283  0.34699  0.24708  1.0000
  C   C4685     1.0  0.74940  0.36906  0.27703  1.0000
  Fe  Fe623     1.0  0.95403  0.14673  0.18492  1.0000
  H   H5608     1.0  0.73767  0.29854  0.28345  1.0000
  C   C4686     1.0  0.74801  0.30585  0.26147  1.0000
  H   H5609     1.0  0.86499  0.13898  0.25262  1.0000
  H   H5610     1.0  0.78615  0.34018  0.27253  1.0000
  H   H5611     1.0  0.82424  0.27918  0.23666  1.0000
  H   H5612     1.0  0.82141  0.26372  0.25779  1.0000
  H   H5613     1.0  0.83950  0.15578  0.22916  1.0000
  S   S1254     1.0  0.75988  0.31175  0.31098  1.0000
  H   H5614     1.0  0.76777  0.12221  0.17817  1.0000
  C   C4687     1.0  0.75317  0.22163  0.23947  1.0000
  H   H5615     1.0  0.78134  0.11063  0.18742  1.0000
  C   C4688     1.0  0.79739  0.21048  0.30312  1.0000
  C   C4689     1.0  0.78619  0.25777  0.26956  1.0000
  H   H5616     1.0  0.86948  0.13124  0.23145  1.0000
  H   H5617     1.0  0.76515  0.30810  0.35959  1.0000
  N   N317      1.0  0.85622  0.15761  0.23768  1.0000
  C   C4690     1.0  0.85103  0.17316  0.23735  1.0000
  C   C4691     1.0  0.84365  0.15177  0.23915  1.0000
  C   C4692     1.0  0.86227  0.15085  0.25061  1.0000
  C   C4693     1.0  0.86711  0.15444  0.22470  1.0000
  C   C4694     1.0  0.87246  0.16530  0.21338  1.0000
  C   C4695     1.0  0.87282  0.14007  0.22317  1.0000
  C   C4696     1.0  0.88274  0.16188  0.20130  1.0000
  C   C4697     1.0  0.78676  0.23246  0.27844  1.0000
  H   H5618     1.0  0.88694  0.17029  0.19297  1.0000
  H   H5619     1.0  0.84645  0.17890  0.22782  1.0000
  H   H5620     1.0  0.84255  0.17531  0.24701  1.0000
  H   H5621     1.0  0.85971  0.17814  0.23718  1.0000
  H   H5622     1.0  0.87220  0.15437  0.24953  1.0000
  H   H5623     1.0  0.77044  0.34226  0.29699  1.0000
  C   C4698     1.0  0.77225  0.21397  0.30431  1.0000
  H   H5624     1.0  0.88766  0.12572  0.21019  1.0000
  C   C4699     1.0  0.83700  0.99099  0.20303  1.0000
  C   C4700     1.0  0.89868  0.10556  0.18129  1.0000
  H   H5625     1.0  0.96944  0.14309  0.22796  1.0000
  H   H5626     1.0  0.74553  0.38211  0.30638  1.0000
  H   H5627     1.0  0.75755  0.27495  0.25339  1.0000
  H   H5628     1.0  0.76916  0.27575  0.17929  1.0000
  C   C4701     1.0  0.75273  0.17251  0.27111  1.0000
  C   C4702     1.0  0.74589  0.13995  0.23715  1.0000
  H   H5629     1.0  0.77505  0.20920  0.29477  1.0000
  S   S1255     1.0  0.73939  0.22419  0.32944  1.0000
  H   H5630     1.0  0.87553  0.00972  0.19073  1.0000
  Fe  Fe624     1.0  0.76891  0.17252  0.21818  1.0000
  C   C4703     1.0  0.74666  0.22091  0.19594  1.0000
  C   C4704     1.0  0.74435  0.14904  0.24615  1.0000
  C   C4705     1.0  0.78876  0.32628  0.19939  1.0000
  H   H5631     1.0  0.80621  0.07155  0.21580  1.0000
  H   H5632     1.0  0.76175  0.35870  0.31289  1.0000
  C   C4706     1.0  0.74086  0.27708  0.18569  1.0000
  H   H5633     1.0  0.88994  0.20655  0.20716  1.0000
  H   H5634     1.0  0.79748  0.20084  0.31210  1.0000
  S   S1256     1.0  0.93191  0.14531  0.19832  1.0000
  H   H5635     1.0  0.74292  0.18937  0.19306  1.0000
  C   C4707     1.0  0.98466  0.16398  0.19013  1.0000
  H   H5636     1.0  0.79039  0.24296  0.25604  1.0000
  C   C4708     1.0  0.78338  0.25939  0.28360  1.0000
  H   H5637     1.0  0.93267  0.17243  0.20835  1.0000
  H   H5638     1.0  0.80614  0.21541  0.30297  1.0000
  H   H5639     1.0  0.73913  0.10815  0.24207  1.0000
  S   S1257     1.0  0.97408  0.13966  0.19414  1.0000
  C   C4709     1.0  0.80972  0.31467  0.23030  1.0000
  H   H5640     1.0  0.84841  0.15906  0.18657  1.0000
  H   H5641     1.0  0.75061  0.33193  0.28246  1.0000
  C   C4710     1.0  0.86704  0.21561  0.18837  1.0000
  H   H5642     1.0  0.87522  0.02863  0.18429  1.0000
  C   C4711     1.0  0.78244  0.24756  0.29513  1.0000
  H   H5643     1.0  0.77543  0.32730  0.28281  1.0000
  C   C4712     1.0  0.98420  0.15458  0.22799  1.0000
  Fe  Fe625     1.0  0.80264  0.27082  0.17970  1.0000
  H   H5644     1.0  0.97909  0.19054  0.22288  1.0000
  C   C4713     1.0  0.74468  0.37850  0.28631  1.0000
  C   C4714     1.0  0.97072  0.15366  0.22736  1.0000
  H   H5645     1.0  0.74426  0.26463  0.34465  1.0000
  H   H5646     1.0  0.78199  0.26987  0.28560  1.0000
  H   H5647     1.0  0.89625  0.14507  0.19092  1.0000
  C   C4715     1.0  0.76791  0.35426  0.25473  1.0000
  C   C4716     1.0  0.95963  0.16612  0.22541  1.0000
  C   C4717     1.0  0.93405  0.17350  0.23455  1.0000
  H   H5648     1.0  0.76466  0.26304  0.19544  1.0000
  H   H5649     1.0  0.93362  0.18518  0.23162  1.0000
  H   H5650     1.0  0.81399  0.29832  0.21852  1.0000
  S   S1258     1.0  0.79588  0.25758  0.20171  1.0000
  H   H5651     1.0  0.93195  0.15080  0.22755  1.0000
  H   H5652     1.0  0.84139  0.02798  0.21135  1.0000
  C   C4718     1.0  0.79764  0.31911  0.18867  1.0000
  S   S1259     1.0  0.77877  0.34925  0.21246  1.0000
  H   H5653     1.0  0.76190  0.22187  0.30413  1.0000
  C   C4719     1.0  0.97659  0.18024  0.22441  1.0000
  C   C4720     1.0  0.86998  0.01997  0.18470  1.0000
  H   H5654     1.0  0.95537  0.18943  0.22176  1.0000
  H   H5655     1.0  0.78704  0.26698  0.26068  1.0000
  H   H5656     1.0  0.74519  0.25817  0.21293  1.0000
  H   H5657     1.0  0.73737  0.39667  0.25514  1.0000
  S   S1260     1.0  0.90915  0.18620  0.19126  1.0000
  C   C4721     1.0  0.74900  0.31759  0.37574  1.0000
  H   H5658     1.0  0.80092  0.35704  0.18833  1.0000
  H   H5659     1.0  0.84210  0.00328  0.21433  1.0000
  C   C4722     1.0  0.79993  0.34649  0.18842  1.0000
  H   H5660     1.0  0.79709  0.30835  0.18918  1.0000
  H   H5661     1.0  0.83284  0.98385  0.21281  1.0000
  H   H5662     1.0  0.74728  0.23881  0.34595  1.0000
  C   C4723     1.0  0.80857  0.33946  0.17756  1.0000
  C   C4724     1.0  0.80733  0.32583  0.17753  1.0000
  C   C4725     1.0  0.75048  0.33247  0.45213  1.0000
  H   H5663     1.0  0.74888  0.30754  0.38354  1.0000
  C   C4726     1.0  0.75162  0.31802  0.56774  1.0000
  C   C4727     1.0  0.74567  0.34617  0.41646  1.0000
  H   H5664     1.0  0.76570  0.36594  0.55507  1.0000
  H   H5665     1.0  0.74379  0.31920  0.42091  1.0000
  C   C4728     1.0  0.74606  0.32211  0.42998  1.0000
  C   C4729     1.0  0.75415  0.32855  0.55513  1.0000
  H   H5666     1.0  0.76439  0.33153  0.55140  1.0000
  H   H5667     1.0  0.74391  0.34311  0.40723  1.0000
  H   H5668     1.0  0.75877  0.32976  0.47078  1.0000
  H   H5669     1.0  0.75548  0.32152  0.45143  1.0000
  H   H5670     1.0  0.74076  0.35777  0.41546  1.0000
  C   C4730     1.0  0.74343  0.33530  0.54743  1.0000
  H   H5671     1.0  0.75043  0.41424  0.57166  1.0000
  H   H5672     1.0  0.75097  0.37968  0.54979  1.0000
  C   C4731     1.0  0.75248  0.33707  0.46335  1.0000
  H   H5673     1.0  0.75736  0.34489  0.41499  1.0000
  H   H5674     1.0  0.75789  0.31976  0.42826  1.0000
  S   S1261     1.0  0.74648  0.34882  0.53199  1.0000
  C   C4732     1.0  0.74641  0.35104  0.46508  1.0000
  C   C4733     1.0  0.74838  0.39326  0.57166  1.0000
  N   N318      1.0  0.74689  0.36834  0.57204  1.0000
  C   C4734     1.0  0.73996  0.33024  0.37918  1.0000
  H   H5675     1.0  0.75995  0.31278  0.57361  1.0000
  H   H5676     1.0  0.74201  0.39778  0.56364  1.0000
  C   C4735     1.0  0.75387  0.36887  0.55669  1.0000
  H   H5677     1.0  0.75070  0.36132  0.55240  1.0000
  H   H5678     1.0  0.74578  0.34611  0.57627  1.0000
  C   C4736     1.0  0.74222  0.34186  0.44229  1.0000
  N   N319      1.0  0.73963  0.33739  0.43041  1.0000
  H   H5679     1.0  0.74790  0.35457  0.47382  1.0000
  H   H5680     1.0  0.74166  0.31483  0.43999  1.0000
  C   C4737     1.0  0.73850  0.31395  0.57240  1.0000
  C   C4738     1.0  0.73838  0.36052  0.45555  1.0000
  C   C4739     1.0  0.75187  0.37824  0.57723  1.0000
  C   C4740     1.0  0.75326  0.40280  0.57610  1.0000
  Fe  Fe626     1.0  0.75827  0.15117  0.68133  1.0000
  S   S1262     1.0  0.76900  0.16302  0.66025  1.0000
  H   H5681     1.0  0.83325  0.30012  0.67774  1.0000
  Fe  Fe627     1.0  0.77049  0.16269  0.69891  1.0000
  S   S1263     1.0  0.78235  0.17598  0.67950  1.0000
  S   S1264     1.0  0.76918  0.15980  0.72239  1.0000
  Fe  Fe628     1.0  0.76247  0.18153  0.67100  1.0000
  S   S1265     1.0  0.75336  0.20440  0.66095  1.0000
  Fe  Fe629     1.0  0.78799  0.15654  0.67025  1.0000
  S   S1266     1.0  0.80977  0.15066  0.65654  1.0000
  S   S1267     1.0  0.75011  0.17025  0.69143  1.0000
  S   S1268     1.0  0.77784  0.14276  0.69031  1.0000
  Fe  Fe630     1.0  0.82952  0.07348  0.72180  1.0000
  S   S1269     1.0  0.84727  0.05629  0.72979  1.0000
  S   S1270     1.0  0.80980  0.08162  0.73747  1.0000
  Fe  Fe631     1.0  0.84456  0.07532  0.69095  1.0000
  S   S1271     1.0  0.86346  0.05806  0.69622  1.0000
  S   S1272     1.0  0.84410  0.08645  0.66806  1.0000
  Fe  Fe632     1.0  0.84730  0.04627  0.71203  1.0000
  Fe  Fe633     1.0  0.86177  0.06959  0.71339  1.0000
  S   S1273     1.0  0.88224  0.07417  0.71492  1.0000
  S   S1274     1.0  0.82858  0.06265  0.70524  1.0000
  S   S1275     1.0  0.84393  0.08760  0.70688  1.0000
  C   C4741     1.0  0.77966  0.02047  0.71196  1.0000
  Fe  Fe634     1.0  0.93698  0.13072  0.74098  1.0000
  S   S1276     1.0  0.91688  0.13250  0.75837  1.0000
  Fe  Fe635     1.0  0.92064  0.14774  0.71764  1.0000
  S   S1277     1.0  0.89975  0.15160  0.73329  1.0000
  S   S1278     1.0  0.92275  0.15579  0.69376  1.0000
  Fe  Fe636     1.0  0.91230  0.15550  0.74677  1.0000
  S   S1279     1.0  0.90621  0.17429  0.75740  1.0000
  Fe  Fe637     1.0  0.90629  0.12820  0.74318  1.0000
  S   S1280     1.0  0.88845  0.11599  0.74993  1.0000
  S   S1281     1.0  0.93267  0.15392  0.73007  1.0000
  S   S1282     1.0  0.92684  0.12415  0.72687  1.0000
  Fe  Fe638     1.0  0.82652  0.19567  0.70641  1.0000
  S   S1283     1.0  0.82750  0.18783  0.68705  1.0000
  S   S1284     1.0  0.81896  0.18300  0.72839  1.0000
  Fe  Fe639     1.0  0.83715  0.22200  0.68872  1.0000
  S   S1285     1.0  0.83921  0.21653  0.66779  1.0000
  S   S1286     1.0  0.84213  0.24238  0.68892  1.0000
  Fe  Fe640     1.0  0.81796  0.21081  0.67817  1.0000
  Fe  Fe641     1.0  0.84859  0.19420  0.67876  1.0000
  S   S1287     1.0  0.86759  0.17986  0.66760  1.0000
  S   S1288     1.0  0.81524  0.21806  0.69832  1.0000
  S   S1289     1.0  0.84836  0.20023  0.69884  1.0000
  Fe  Fe642     1.0  0.87488  0.27416  0.74727  1.0000
  S   S1290     1.0  0.88959  0.28762  0.73141  1.0000
  H   H5682     1.0  0.87522  0.01355  0.69250  1.0000
  Fe  Fe643     1.0  0.88546  0.24978  0.73202  1.0000
  S   S1291     1.0  0.90129  0.26046  0.71471  1.0000
  S   S1292     1.0  0.88014  0.22893  0.73390  1.0000
  Fe  Fe644     1.0  0.90590  0.26673  0.73263  1.0000
  S   S1293     1.0  0.92843  0.26274  0.73486  1.0000
  Fe  Fe645     1.0  0.88385  0.28041  0.71465  1.0000
  S   S1294     1.0  0.87858  0.29275  0.69337  1.0000
  S   S1295     1.0  0.89168  0.25403  0.74998  1.0000
  S   S1296     1.0  0.86764  0.26907  0.73040  1.0000
  H   H5683     1.0  0.81944  0.30004  0.64315  1.0000
  H   H5684     1.0  0.73732  0.16361  0.72708  1.0000
  H   H5685     1.0  0.76848  0.31007  0.74951  1.0000
  C   C4742     1.0  0.73713  0.12406  0.75327  1.0000
  H   H5686     1.0  0.77175  0.29255  0.69628  1.0000
  Fe  Fe646     1.0  0.79001  0.33343  0.68728  1.0000
  S   S1297     1.0  0.79074  0.35324  0.69308  1.0000
  S   S1298     1.0  0.78048  0.31644  0.70395  1.0000
  Fe  Fe647     1.0  0.80593  0.34196  0.65677  1.0000
  S   S1299     1.0  0.80864  0.36242  0.65979  1.0000
  S   S1300     1.0  0.81390  0.33359  0.63669  1.0000
  Fe  Fe648     1.0  0.81347  0.34910  0.68091  1.0000
  S   S1301     1.0  0.83051  0.34964  0.69121  1.0000
  Fe  Fe649     1.0  0.78572  0.36462  0.67157  1.0000
  S   S1302     1.0  0.76884  0.38492  0.66899  1.0000
  S   S1303     1.0  0.81297  0.32843  0.67667  1.0000
  S   S1304     1.0  0.78263  0.34508  0.66703  1.0000
  C   C4743     1.0  0.87079  0.00453  0.67738  1.0000
  H   H5687     1.0  0.77544  0.20482  0.68934  1.0000
  H   H5688     1.0  0.81821  0.25302  0.62900  1.0000
  C   C4744     1.0  0.74668  0.19605  0.63988  1.0000
  H   H5689     1.0  0.74768  0.12610  0.75104  1.0000
  H   H5690     1.0  0.79631  0.02260  0.72770  1.0000
  C   C4745     1.0  0.81279  0.30620  0.75062  1.0000
  C   C4746     1.0  0.84321  0.24450  0.76680  1.0000
  C   C4747     1.0  0.85203  0.25374  0.76521  1.0000
  H   H5691     1.0  0.79370  0.17748  0.63909  1.0000
  C   C4748     1.0  0.80140  0.01520  0.72023  1.0000
  H   H5692     1.0  0.84772  0.23452  0.76325  1.0000
  H   H5693     1.0  0.86323  0.25073  0.76052  1.0000
  C   C4749     1.0  0.86521  0.30851  0.69321  1.0000
  C   C4750     1.0  0.86145  0.31606  0.70411  1.0000
  C   C4751     1.0  0.85085  0.32879  0.70345  1.0000
  C   C4752     1.0  0.84371  0.33370  0.69213  1.0000
  C   C4753     1.0  0.84734  0.32599  0.68139  1.0000
  C   C4754     1.0  0.85827  0.31362  0.68175  1.0000
  H   H5694     1.0  0.86688  0.31223  0.71291  1.0000
  H   H5695     1.0  0.84809  0.33474  0.71178  1.0000
  H   H5696     1.0  0.84200  0.32977  0.67259  1.0000
  H   H5697     1.0  0.86127  0.30788  0.67323  1.0000
  C   C4755     1.0  0.92840  0.25683  0.75316  1.0000
  C   C4756     1.0  0.93964  0.24610  0.75774  1.0000
  C   C4757     1.0  0.75996  0.21172  0.71346  1.0000
  H   H5698     1.0  0.74173  0.18993  0.62299  1.0000
  C   C4758     1.0  0.78708  0.98473  0.73421  1.0000
  C   C4759     1.0  0.91691  0.26246  0.76329  1.0000
  H   H5699     1.0  0.94848  0.24173  0.74988  1.0000
  H   H5700     1.0  0.84246  0.24983  0.72668  1.0000
  H   H5701     1.0  0.77438  0.23680  0.65838  1.0000
  H   H5702     1.0  0.90828  0.27086  0.75976  1.0000
  C   C4760     1.0  0.85281  0.23843  0.70133  1.0000
  C   C4761     1.0  0.86258  0.24678  0.69938  1.0000
  C   C4762     1.0  0.87100  0.24381  0.70941  1.0000
  C   C4763     1.0  0.86975  0.23239  0.72134  1.0000
  C   C4764     1.0  0.86007  0.22391  0.72324  1.0000
  C   C4765     1.0  0.85152  0.22701  0.71328  1.0000
  H   H5703     1.0  0.86365  0.25559  0.69014  1.0000
  H   H5704     1.0  0.87854  0.25034  0.70781  1.0000
  H   H5705     1.0  0.85896  0.21518  0.73256  1.0000
  H   H5706     1.0  0.84364  0.22083  0.71512  1.0000
  H   H5707     1.0  0.88178  0.99014  0.70864  1.0000
  H   H5708     1.0  0.73842  0.17989  0.75299  1.0000
  H   H5709     1.0  0.80987  0.00678  0.72486  1.0000
  C   C4766     1.0  0.77401  0.23914  0.60521  1.0000
  S   S1305     1.0  0.75152  0.45819  0.58314  1.0000
  C   C4767     1.0  0.74262  0.22153  0.63789  1.0000
  H   H5710     1.0  0.79105  0.99514  0.70418  1.0000
  Fe  Fe650     1.0  0.75405  0.44015  0.60253  1.0000
  H   H5711     1.0  0.76928  0.23717  0.68405  1.0000
  H   H5712     1.0  0.74554  0.35207  0.59173  1.0000
  C   C4768     1.0  0.90704  0.16197  0.68713  1.0000
  C   C4769     1.0  0.89387  0.16722  0.69564  1.0000
  C   C4770     1.0  0.88174  0.17299  0.68970  1.0000
  C   C4771     1.0  0.88264  0.17324  0.67533  1.0000
  C   C4772     1.0  0.89575  0.16776  0.66693  1.0000
  C   C4773     1.0  0.90793  0.16232  0.67275  1.0000
  H   H5713     1.0  0.89313  0.16733  0.70662  1.0000
  H   H5714     1.0  0.87176  0.17730  0.69622  1.0000
  H   H5715     1.0  0.89656  0.16789  0.65581  1.0000
  H   H5716     1.0  0.91808  0.15837  0.66608  1.0000
  C   C4774     1.0  0.83802  0.02066  0.69456  1.0000
  C   C4775     1.0  0.83427  0.01313  0.68661  1.0000
  H   H5717     1.0  0.83835  0.03186  0.69034  1.0000
  H   H5718     1.0  0.83167  0.01866  0.67632  1.0000
  C   C4776     1.0  0.88353  0.08605  0.72461  1.0000
  C   C4777     1.0  0.87286  0.08971  0.73634  1.0000
  C   C4778     1.0  0.87470  0.09855  0.74423  1.0000
  C   C4779     1.0  0.88697  0.10426  0.74016  1.0000
  C   C4780     1.0  0.89753  0.10079  0.72828  1.0000
  C   C4781     1.0  0.89592  0.09153  0.72073  1.0000
  H   H5719     1.0  0.86340  0.08535  0.73961  1.0000
  H   H5720     1.0  0.86660  0.10092  0.75357  1.0000
  H   H5721     1.0  0.90707  0.10500  0.72509  1.0000
  H   H5722     1.0  0.90437  0.08851  0.71187  1.0000
  C   C4782     1.0  0.78259  0.16647  0.72459  1.0000
  C   C4783     1.0  0.78871  0.16043  0.73656  1.0000
  C   C4784     1.0  0.79969  0.16574  0.73802  1.0000
  C   C4785     1.0  0.80444  0.17709  0.72752  1.0000
  C   C4786     1.0  0.79800  0.18333  0.71580  1.0000
  C   C4787     1.0  0.78720  0.17792  0.71428  1.0000
  H   H5723     1.0  0.78520  0.15146  0.74452  1.0000
  H   H5724     1.0  0.80474  0.16082  0.74704  1.0000
  H   H5725     1.0  0.80136  0.19232  0.70784  1.0000
  H   H5726     1.0  0.78235  0.18271  0.70518  1.0000
  C   C4788     1.0  0.74143  0.23779  0.68467  1.0000
  C   C4789     1.0  0.79732  0.26202  0.69459  1.0000
  C   C4790     1.0  0.77518  0.34924  0.62685  1.0000
  H   H5727     1.0  0.86462  0.14081  0.74226  1.0000
  S   S1306     1.0  0.73966  0.45329  0.61817  1.0000
  H   H5728     1.0  0.81808  0.05332  0.76447  1.0000
  H   H5729     1.0  0.74108  0.10717  0.77173  1.0000
  C   C4791     1.0  0.84133  0.99903  0.71296  1.0000
  H   H5730     1.0  0.75004  0.18515  0.64545  1.0000
  C   C4792     1.0  0.81780  0.13230  0.65998  1.0000
  C   C4793     1.0  0.82737  0.12654  0.64871  1.0000
  C   C4794     1.0  0.83500  0.11232  0.65130  1.0000
  C   C4795     1.0  0.83331  0.10379  0.66521  1.0000
  C   C4796     1.0  0.82352  0.10940  0.67652  1.0000
  C   C4797     1.0  0.81565  0.12364  0.67388  1.0000
  H   H5731     1.0  0.82903  0.13314  0.63796  1.0000
  H   H5732     1.0  0.84250  0.10799  0.64252  1.0000
  H   H5733     1.0  0.82209  0.10281  0.68728  1.0000
  H   H5734     1.0  0.80838  0.12806  0.68266  1.0000
  C   C4798     1.0  0.79425  0.07156  0.72537  1.0000
  C   C4799     1.0  0.79588  0.07394  0.73795  1.0000
  H   H5735     1.0  0.80054  0.07583  0.71511  1.0000
  S   S1307     1.0  0.85738  0.27879  0.76626  1.0000
  H   H5736     1.0  0.77229  0.32449  0.76416  1.0000
  H   H5737     1.0  0.78991  0.32670  0.76224  1.0000
  H   H5738     1.0  0.77279  0.37908  0.59902  1.0000
  N   N320      1.0  0.75886  0.22071  0.69894  1.0000
  C   C4800     1.0  0.78696  0.06927  0.75109  1.0000
  H   H5739     1.0  0.83456  0.29745  0.75291  1.0000
  H   H5740     1.0  0.77092  0.01616  0.71103  1.0000
  H   H5741     1.0  0.78553  0.30924  0.76911  1.0000
  H   H5742     1.0  0.77943  0.26858  0.71116  1.0000
  C   C4801     1.0  0.82746  0.30161  0.74550  1.0000
  H   H5743     1.0  0.81424  0.25794  0.67696  1.0000
  H   H5744     1.0  0.79286  0.27772  0.64890  1.0000
  H   H5745     1.0  0.98392  0.08909  0.73498  1.0000
  C   C4802     1.0  0.81381  0.28263  0.70811  1.0000
  H   H5746     1.0  0.74317  0.09080  0.74431  1.0000
  Fe  Fe651     1.0  0.74191  0.29038  0.63676  1.0000
  C   C4803     1.0  0.77279  0.10345  0.72632  1.0000
  C   C4804     1.0  0.78294  0.25288  0.64125  1.0000
  H   H5747     1.0  0.98417  0.22248  0.77363  1.0000
  H   H5748     1.0  0.78267  0.33013  0.72584  1.0000
  H   H5749     1.0  0.94772  0.23225  0.77585  1.0000
  H   H5750     1.0  0.86813  0.10571  0.68096  1.0000
  C   C4805     1.0  0.77575  0.00653  0.74282  1.0000
  C   C4806     1.0  0.81680  0.29194  0.69477  1.0000
  H   H5751     1.0  0.84956  0.18737  0.77474  1.0000
  H   H5752     1.0  0.83920  0.26231  0.73790  1.0000
  Fe  Fe652     1.0  0.77210  0.28618  0.61920  1.0000
  H   H5753     1.0  0.75673  0.32229  0.72703  1.0000
  C   C4807     1.0  0.78844  0.28893  0.67766  1.0000
  H   H5754     1.0  0.91184  0.19547  0.76868  1.0000
  C   C4808     1.0  0.76106  0.40880  0.64882  1.0000
  H   H5755     1.0  0.76588  0.40516  0.58923  1.0000
  H   H5756     1.0  0.78460  0.29948  0.67154  1.0000
  H   H5757     1.0  0.80371  0.01696  0.75476  1.0000
  C   C4809     1.0  0.97308  0.19484  0.76005  1.0000
  H   H5758     1.0  0.98202  0.11545  0.76047  1.0000
  C   C4810     1.0  0.79158  0.22618  0.61941  1.0000
  C   C4811     1.0  0.95581  0.19306  0.74818  1.0000
  H   H5759     1.0  0.84451  0.29906  0.72699  1.0000
  H   H5760     1.0  0.85693  0.34864  0.65970  1.0000
  C   C4812     1.0  0.78095  0.28502  0.69181  1.0000
  H   H5761     1.0  0.77362  0.01797  0.74176  1.0000
  H   H5762     1.0  0.82576  0.27589  0.64009  1.0000
  C   C4813     1.0  0.87874  0.99057  0.69886  1.0000
  C   C4814     1.0  0.91942  0.17361  0.76628  1.0000
  C   C4815     1.0  0.76250  0.09814  0.73772  1.0000
  C   C4816     1.0  0.76446  0.21113  0.68866  1.0000
  S   S1308     1.0  0.79814  0.21757  0.66929  1.0000
  C   C4817     1.0  0.81342  0.29674  0.65437  1.0000
  C   C4818     1.0  0.79530  0.25742  0.63285  1.0000
  N   N321      1.0  0.81757  0.02904  0.75681  1.0000
  C   C4819     1.0  0.83177  0.27050  0.77551  1.0000
  C   C4820     1.0  0.81477  0.01544  0.75606  1.0000
  C   C4821     1.0  0.81532  0.03957  0.74335  1.0000
  H   H5763     1.0  0.92988  0.15178  0.76519  1.0000
  C   C4822     1.0  0.80063  0.27943  0.67152  1.0000
  H   H5764     1.0  0.80294  0.31616  0.71834  1.0000
  H   H5765     1.0  0.77478  0.02849  0.71880  1.0000
  H   H5766     1.0  0.84005  0.02139  0.74842  1.0000
  H   H5767     1.0  0.74483  0.37287  0.71074  1.0000
  H   H5768     1.0  0.80002  0.22665  0.62394  1.0000
  H   H5769     1.0  0.82211  0.01125  0.74668  1.0000
  H   H5770     1.0  0.75611  0.21827  0.72176  1.0000
  H   H5771     1.0  0.81819  0.04978  0.74254  1.0000
  H   H5772     1.0  0.82191  0.03554  0.73366  1.0000
  H   H5773     1.0  0.80398  0.04215  0.74260  1.0000
  C   C4823     1.0  0.79800  0.28686  0.64687  1.0000
  C   C4824     1.0  0.81486  0.25309  0.72656  1.0000
  N   N322      1.0  0.85050  0.35655  0.63930  1.0000
  C   C4825     1.0  0.85002  0.35800  0.65391  1.0000
  C   C4826     1.0  0.84768  0.34226  0.64084  1.0000
  C   C4827     1.0  0.86509  0.35677  0.63045  1.0000
  C   C4828     1.0  0.84023  0.36859  0.63249  1.0000
  C   C4829     1.0  0.83031  0.36653  0.62585  1.0000
  C   C4830     1.0  0.84026  0.38298  0.63194  1.0000
  C   C4831     1.0  0.82069  0.37813  0.61964  1.0000
  C   C4832     1.0  0.83058  0.39450  0.62570  1.0000
  C   C4833     1.0  0.82078  0.39208  0.61962  1.0000
  C   C4834     1.0  0.96146  0.17841  0.74975  1.0000
  H   H5774     1.0  0.79921  0.19137  0.65109  1.0000
  H   H5775     1.0  0.85380  0.36746  0.65385  1.0000
  H   H5776     1.0  0.83898  0.35894  0.66063  1.0000
  H   H5777     1.0  0.83666  0.34158  0.64709  1.0000
  H   H5778     1.0  0.84909  0.33975  0.63025  1.0000
  H   H5779     1.0  0.86828  0.36686  0.62958  1.0000
  H   H5780     1.0  0.87317  0.34777  0.63510  1.0000
  H   H5781     1.0  0.86587  0.35584  0.61934  1.0000
  H   H5782     1.0  0.82959  0.35606  0.62547  1.0000
  H   H5783     1.0  0.84775  0.38546  0.63634  1.0000
  H   H5784     1.0  0.81305  0.37625  0.61489  1.0000
  C   C4835     1.0  0.80333  0.31210  0.74106  1.0000
  S   S1309     1.0  0.81751  0.23764  0.77218  1.0000
  N   N323      1.0  0.82154  0.26357  0.72882  1.0000
  C   C4836     1.0  0.77143  0.10568  0.71227  1.0000
  H   H5785     1.0  0.85682  0.12622  0.74450  1.0000
  C   C4837     1.0  0.83410  0.99851  0.69174  1.0000
  H   H5786     1.0  0.88483  0.20788  0.76336  1.0000
  H   H5787     1.0  0.91765  0.21781  0.69871  1.0000
  C   C4838     1.0  0.89661  0.19502  0.72001  1.0000
  C   C4839     1.0  0.82050  0.27248  0.65157  1.0000
  H   H5788     1.0  0.80441  0.25817  0.72364  1.0000
  C   C4840     1.0  0.90230  0.20192  0.69391  1.0000
  C   C4841     1.0  0.88877  0.21076  0.69225  1.0000
  H   H5789     1.0  0.75455  0.42747  0.63298  1.0000
  C   C4842     1.0  0.88364  0.21266  0.68001  1.0000
  H   H5790     1.0  0.77123  0.20627  0.71394  1.0000
  C   C4843     1.0  0.89193  0.20599  0.66892  1.0000
  H   H5791     1.0  0.88643  0.20307  0.72143  1.0000
  H   H5792     1.0  0.80815  0.29838  0.68966  1.0000
  H   H5793     1.0  0.78950  0.35693  0.63402  1.0000
  S   S1310     1.0  0.79434  0.27283  0.61895  1.0000
  H   H5794     1.0  0.83180  0.24670  0.74404  1.0000
  S   S1311     1.0  0.74405  0.13643  0.68406  1.0000
  N   N324      1.0  0.80809  0.28369  0.65637  1.0000
  H   H5795     1.0  0.88202  0.21627  0.70044  1.0000
  Fe  Fe653     1.0  0.74719  0.29882  0.60445  1.0000
  H   H5796     1.0  0.87313  0.21930  0.67917  1.0000
  C   C4844     1.0  0.80955  0.23754  0.64696  1.0000
  H   H5797     1.0  0.74407  0.37258  0.67992  1.0000
  C   C4845     1.0  0.84179  0.01359  0.70768  1.0000
  H   H5798     1.0  0.90022  0.13544  0.68126  1.0000
  H   H5799     1.0  0.80342  0.28891  0.63528  1.0000
  H   H5800     1.0  0.78901  0.33907  0.73541  1.0000
  H   H5801     1.0  0.80271  0.00734  0.69611  1.0000
  C   C4846     1.0  0.88151  0.20770  0.77479  1.0000
  H   H5802     1.0  0.81324  0.40105  0.61487  1.0000
  H   H5803     1.0  0.84546  0.11814  0.68402  1.0000
  C   C4847     1.0  0.79487  0.20159  0.64403  1.0000
  H   H5804     1.0  0.82861  0.30874  0.70989  1.0000
  Fe  Fe654     1.0  0.75505  0.31614  0.62047  1.0000
  C   C4848     1.0  0.76187  0.41725  0.63484  1.0000
  H   H5805     1.0  0.77264  0.25874  0.63908  1.0000
  H   H5806     1.0  0.74995  0.23908  0.67522  1.0000
  C   C4849     1.0  0.87510  0.00379  0.68975  1.0000
  H   H5807     1.0  0.78373  0.29608  0.75283  1.0000
  H   H5808     1.0  0.74271  0.40293  0.62438  1.0000
  C   C4850     1.0  0.76953  0.99851  0.75584  1.0000
  H   H5809     1.0  0.78224  0.30492  0.73467  1.0000
  C   C4851     1.0  0.74909  0.09713  0.72093  1.0000
  H   H5810     1.0  0.74305  0.35809  0.69509  1.0000
  C   C4852     1.0  0.78453  0.99994  0.73147  1.0000
  H   H5811     1.0  0.84851  0.13535  0.65363  1.0000
  C   C4853     1.0  0.92971  0.16100  0.76894  1.0000
  H   H5812     1.0  0.75393  0.20309  0.71653  1.0000
  H   H5813     1.0  0.80279  0.28216  0.71282  1.0000
  C   C4854     1.0  0.75279  0.32405  0.71747  1.0000
  C   C4855     1.0  0.74729  0.20744  0.64513  1.0000
  H   H5814     1.0  0.86611  0.99354  0.66457  1.0000
  C   C4856     1.0  0.74414  0.22858  0.69784  1.0000
  H   H5815     1.0  0.75434  0.13336  0.72723  1.0000
  C   C4857     1.0  0.82281  0.26144  0.77668  1.0000
  C   C4858     1.0  0.97272  0.17184  0.75674  1.0000
  C   C4859     1.0  0.77209  0.98369  0.75815  1.0000
  H   H5816     1.0  0.77931  0.22546  0.69648  1.0000
  H   H5817     1.0  0.83480  0.01874  0.76769  1.0000
  C   C4860     1.0  0.82412  0.30789  0.72129  1.0000
  C   C4861     1.0  0.73697  0.22424  0.62572  1.0000
  H   H5818     1.0  0.87857  0.14726  0.67257  1.0000
  H   H5819     1.0  0.84517  0.13140  0.69316  1.0000
  C   C4862     1.0  0.83278  0.02619  0.75744  1.0000
  S   S1312     1.0  0.76438  0.04790  0.73990  1.0000
  C   C4863     1.0  0.87473  0.11263  0.68099  1.0000
  H   H5820     1.0  0.85280  0.28568  0.68972  1.0000
  C   C4864     1.0  0.92102  0.18936  0.70783  1.0000
  H   H5821     1.0  0.80167  0.20898  0.64321  1.0000
  C   C4865     1.0  0.81022  0.04758  0.77175  1.0000
  H   H5822     1.0  0.74694  0.38429  0.65357  1.0000
  C   C4866     1.0  0.84517  0.12967  0.68261  1.0000
  C   C4867     1.0  0.78531  0.27156  0.70022  1.0000
  H   H5823     1.0  0.84356  0.15504  0.66496  1.0000
  H   H5824     1.0  0.77255  0.20428  0.61564  1.0000
  C   C4868     1.0  0.78106  0.39087  0.64005  1.0000
  H   H5825     1.0  0.76532  0.21711  0.67730  1.0000
  C   C4869     1.0  0.77646  0.21360  0.61476  1.0000
  C   C4870     1.0  0.87079  0.12772  0.67628  1.0000
  H   H5826     1.0  0.85899  0.11818  0.66004  1.0000
  C   C4871     1.0  0.91958  0.18559  0.77096  1.0000
  H   H5827     1.0  0.76268  0.00381  0.76426  1.0000
  H   H5828     1.0  0.81029  0.19434  0.61105  1.0000
  H   H5829     1.0  0.92101  0.18849  0.68250  1.0000
  C   C4872     1.0  0.78193  0.39941  0.62607  1.0000
  H   H5830     1.0  0.74363  0.12766  0.71896  1.0000
  C   C4873     1.0  0.78393  0.24050  0.65227  1.0000
  H   H5831     1.0  0.76352  0.18193  0.74815  1.0000
  C   C4874     1.0  0.78382  0.31951  0.76102  1.0000
  N   N325      1.0  0.79089  0.00875  0.71773  1.0000
  C   C4875     1.0  0.73678  0.21285  0.62024  1.0000
  H   H5832     1.0  0.81284  0.15249  0.70922  1.0000
  S   S1313     1.0  0.75619  0.33844  0.62020  1.0000
  H   H5833     1.0  0.80084  0.25156  0.70113  1.0000
  Fe  Fe655     1.0  0.75107  0.04249  0.76212  1.0000
  C   C4876     1.0  0.76725  0.16773  0.76811  1.0000
  C   C4877     1.0  0.91063  0.19551  0.68226  1.0000
  H   H5834     1.0  0.84424  0.99346  0.72310  1.0000
  C   C4878     1.0  0.76992  0.22646  0.60673  1.0000
  S   S1314     1.0  0.84752  0.02230  0.71765  1.0000
  H   H5835     1.0  0.78390  0.20597  0.64978  1.0000
  C   C4879     1.0  0.74836  0.37960  0.64423  1.0000
  H   H5836     1.0  0.86559  0.15957  0.72094  1.0000
  H   H5837     1.0  0.78317  0.06194  0.71622  1.0000
  H   H5838     1.0  0.80523  0.31500  0.62479  1.0000
  H   H5839     1.0  0.86211  0.15481  0.65910  1.0000
  H   H5840     1.0  0.78937  0.29651  0.64833  1.0000
  C   C4880     1.0  0.78426  0.06388  0.72599  1.0000
  H   H5841     1.0  0.77818  0.16880  0.76601  1.0000
  C   C4881     1.0  0.79875  0.33572  0.63011  1.0000
  C   C4882     1.0  0.73870  0.38219  0.70408  1.0000
  C   C4883     1.0  0.76224  0.32185  0.70459  1.0000
  C   C4884     1.0  0.79833  0.00043  0.70646  1.0000
  C   C4885     1.0  0.77067  0.39562  0.65147  1.0000
  H   H5842     1.0  0.78834  0.38060  0.64194  1.0000
  C   C4886     1.0  0.79684  0.32452  0.62546  1.0000
  H   H5843     1.0  0.84547  0.14342  0.74615  1.0000
  H   H5844     1.0  0.92422  0.18780  0.71813  1.0000
  H   H5845     1.0  0.82881  0.26991  0.65793  1.0000
  C   C4887     1.0  0.78799  0.34817  0.63061  1.0000
  C   C4888     1.0  0.85564  0.13790  0.73998  1.0000
  H   H5846     1.0  0.74654  0.07126  0.72121  1.0000
  C   C4889     1.0  0.85602  0.15720  0.71926  1.0000
  H   H5847     1.0  0.83273  0.15959  0.71243  1.0000
  N   N326      1.0  0.85587  0.14173  0.72440  1.0000
  H   H5848     1.0  0.85625  0.16086  0.70757  1.0000
  C   C4890     1.0  0.83268  0.14832  0.71574  1.0000
  H   H5849     1.0  0.78806  0.07126  0.76082  1.0000
  H   H5850     1.0  0.87892  0.13595  0.71873  1.0000
  C   C4891     1.0  0.84354  0.13797  0.72201  1.0000
  S   S1315     1.0  0.95816  0.12003  0.74767  1.0000
  H   H5851     1.0  0.84974  0.11508  0.73117  1.0000
  H   H5852     1.0  0.87052  0.12194  0.72026  1.0000
  C   C4892     1.0  0.86939  0.13372  0.71678  1.0000
  C   C4893     1.0  0.82109  0.14438  0.71384  1.0000
  H   H5853     1.0  0.84657  0.16390  0.72517  1.0000
  C   C4894     1.0  0.84199  0.12354  0.72622  1.0000
  H   H5854     1.0  0.89421  0.18499  0.71944  1.0000
  S   S1316     1.0  0.77401  0.42346  0.60598  1.0000
  H   H5855     1.0  0.77116  0.33600  0.74111  1.0000
  H   H5856     1.0  0.84804  0.27012  0.71291  1.0000
  C   C4895     1.0  0.83032  0.11973  0.72433  1.0000
  H   H5857     1.0  0.87012  0.13660  0.70502  1.0000
  H   H5858     1.0  0.80467  0.30616  0.65643  1.0000
  C   C4896     1.0  0.81989  0.13014  0.71816  1.0000
  C   C4897     1.0  0.77586  0.05858  0.73921  1.0000
  H   H5859     1.0  0.81289  0.24455  0.73645  1.0000
  H   H5860     1.0  0.76147  0.22661  0.60179  1.0000
  H   H5861     1.0  0.86760  0.13257  0.64969  1.0000
  H   H5862     1.0  0.82928  0.10865  0.72782  1.0000
  H   H5863     1.0  0.76694  0.35885  0.62722  1.0000
  H   H5864     1.0  0.81079  0.12716  0.71684  1.0000
  H   H5865     1.0  0.90035  0.19288  0.73012  1.0000
  H   H5866     1.0  0.94681  0.19799  0.74313  1.0000
  C   C4898     1.0  0.80983  0.19574  0.62190  1.0000
  S   S1317     1.0  0.76125  0.29700  0.63760  1.0000
  C   C4899     1.0  0.77708  0.06141  0.75176  1.0000
  S   S1318     1.0  0.76731  0.30589  0.60199  1.0000
  H   H5867     1.0  0.86758  0.01491  0.67055  1.0000
  C   C4900     1.0  0.85815  0.12992  0.65812  1.0000
  H   H5868     1.0  0.78206  0.10547  0.72837  1.0000
  H   H5869     1.0  0.76385  0.09601  0.74861  1.0000
  C   C4901     1.0  0.88736  0.10608  0.68578  1.0000
  C   C4902     1.0  0.88048  0.13578  0.67626  1.0000
  C   C4903     1.0  0.89304  0.12911  0.68117  1.0000
  H   H5870     1.0  0.81619  0.27913  0.74171  1.0000
  H   H5871     1.0  0.78873  0.18438  0.62224  1.0000
  H   H5872     1.0  0.78989  0.39572  0.61722  1.0000
  C   C4904     1.0  0.80496  0.26585  0.68051  1.0000
  N   N327      1.0  0.85728  0.13441  0.67138  1.0000
  C   C4905     1.0  0.85399  0.15033  0.66819  1.0000
  H   H5873     1.0  0.80681  0.02157  0.71005  1.0000
  H   H5874     1.0  0.81570  0.18553  0.62776  1.0000
  S   S1319     1.0  0.74038  0.05909  0.77517  1.0000
  C   C4906     1.0  0.78383  0.32540  0.62219  1.0000
  H   H5875     1.0  0.91257  0.21307  0.71807  1.0000
  H   H5876     1.0  0.82068  0.29494  0.66163  1.0000
  N   N328      1.0  0.90733  0.20000  0.70714  1.0000
  C   C4907     1.0  0.89644  0.11430  0.68598  1.0000
  H   H5877     1.0  0.83470  0.13558  0.67992  1.0000
  H   H5878     1.0  0.85336  0.15444  0.67772  1.0000
  H   H5879     1.0  0.90617  0.10918  0.68981  1.0000
  S   S1320     1.0  0.75327  0.27796  0.61970  1.0000
  H   H5880     1.0  0.92994  0.19276  0.69908  1.0000
  C   C4908     1.0  0.78487  0.23898  0.61147  1.0000
  H   H5881     1.0  0.88571  0.22812  0.77195  1.0000
  C   C4909     1.0  0.75977  0.10263  0.70952  1.0000
  C   C4910     1.0  0.81155  0.27102  0.73994  1.0000
  H   H5882     1.0  0.77074  0.05722  0.76205  1.0000
  H   H5883     1.0  0.81986  0.23159  0.64899  1.0000
  C   C4911     1.0  0.77291  0.33769  0.62309  1.0000
  C   C4912     1.0  0.75716  0.32471  0.69210  1.0000
  H   H5884     1.0  0.75309  0.41262  0.65759  1.0000
  S   S1321     1.0  0.74864  0.25061  0.76889  1.0000
  H   H5885     1.0  0.77685  0.18969  0.63824  1.0000
  H   H5886     1.0  0.88781  0.20717  0.65958  1.0000
  C   C4913     1.0  0.78819  0.18731  0.63241  1.0000
  H   H5887     1.0  0.76420  0.36216  0.59207  1.0000
  H   H5888     1.0  0.91183  0.19226  0.66139  1.0000
  H   H5889     1.0  0.95684  0.17196  0.74590  1.0000
  S   S1322     1.0  0.82957  0.98952  0.68109  1.0000
  C   C4914     1.0  0.83432  0.25535  0.73458  1.0000
  H   H5890     1.0  0.85513  0.33346  0.64658  1.0000
  C   C4915     1.0  0.78747  0.21309  0.62146  1.0000
  H   H5891     1.0  0.82191  0.24772  0.71782  1.0000
  N   N329      1.0  0.79485  0.19963  0.62980  1.0000
  C   C4916     1.0  0.87001  0.99207  0.67407  1.0000
  H   H5892     1.0  0.89013  0.09452  0.68937  1.0000
  H   H5893     1.0  0.83063  0.40538  0.62561  1.0000
  C   C4917     1.0  0.76080  0.37338  0.58733  1.0000
  H   H5894     1.0  0.76452  0.32316  0.68208  1.0000
  H   H5895     1.0  0.80113  0.27653  0.73706  1.0000
  C   C4918     1.0  0.83083  0.29297  0.68809  1.0000
  C   C4919     1.0  0.74176  0.19876  0.62728  1.0000
  C   C4920     1.0  0.77243  0.41269  0.62346  1.0000
  H   H5896     1.0  0.81719  0.26244  0.65247  1.0000
  H   H5897     1.0  0.89944  0.22236  0.70783  1.0000
  C   C4921     1.0  0.83895  0.27580  0.70829  1.0000
  C   C4922     1.0  0.84185  0.28492  0.69486  1.0000
  H   H5898     1.0  0.81582  0.20410  0.62040  1.0000
  C   C4923     1.0  0.90937  0.21388  0.70796  1.0000
  C   C4924     1.0  0.82485  0.27405  0.71517  1.0000
  H   H5899     1.0  0.92017  0.17869  0.70717  1.0000
  C   C4925     1.0  0.97169  0.14243  0.73335  1.0000
  C   C4926     1.0  0.80861  0.24963  0.63560  1.0000
  C   C4927     1.0  0.75899  0.17518  0.75805  1.0000
  H   H5900     1.0  0.80928  0.26338  0.75045  1.0000
  C   C4928     1.0  0.80942  0.31237  0.72626  1.0000
  C   C4929     1.0  0.83312  0.30251  0.73088  1.0000
  C   C4930     1.0  0.97137  0.13001  0.74423  1.0000
  C   C4931     1.0  0.82855  0.24851  0.77216  1.0000
  C   C4932     1.0  0.79721  0.23296  0.65533  1.0000
  H   H5901     1.0  0.96355  0.14630  0.72715  1.0000
  C   C4933     1.0  0.75079  0.09505  0.73512  1.0000
  H   H5902     1.0  0.80765  0.99209  0.70953  1.0000
  H   H5903     1.0  0.78401  0.02667  0.70115  1.0000
  H   H5904     1.0  0.97628  0.16041  0.75786  1.0000
  C   C4934     1.0  0.90546  0.19759  0.66997  1.0000
  H   H5905     1.0  0.74329  0.15105  0.74202  1.0000
  H   H5906     1.0  0.78226  0.31654  0.61902  1.0000
  C   C4935     1.0  0.83742  0.99155  0.70510  1.0000
  H   H5907     1.0  0.83624  0.03610  0.75661  1.0000
  C   C4936     1.0  0.78024  0.30661  0.74573  1.0000
  H   H5908     1.0  0.97593  0.23150  0.75076  1.0000
  H   H5909     1.0  0.74335  0.23041  0.64167  1.0000
  C   C4937     1.0  0.80833  0.03495  0.76925  1.0000
  C   C4938     1.0  0.76581  0.38302  0.59150  1.0000
  H   H5910     1.0  0.74632  0.38070  0.61744  1.0000
  C   C4939     1.0  0.93916  0.24067  0.77245  1.0000
  S   S1323     1.0  0.78005  0.26498  0.77235  1.0000
  H   H5911     1.0  0.75940  0.10475  0.69835  1.0000
  C   C4940     1.0  0.78249  0.33119  0.73672  1.0000
  H   H5912     1.0  0.81642  0.00694  0.76583  1.0000
  H   H5913     1.0  0.75767  0.38296  0.63601  1.0000
  C   C4941     1.0  0.75017  0.35319  0.58000  1.0000
  N   N330      1.0  0.78778  0.31728  0.74611  1.0000
  C   C4942     1.0  0.73903  0.31173  0.77403  1.0000
  C   C4943     1.0  0.96163  0.20129  0.75328  1.0000
  C   C4944     1.0  0.76820  0.23102  0.69536  1.0000
  H   H5914     1.0  0.76404  0.23885  0.70242  1.0000
  C   C4945     1.0  0.84636  0.26681  0.76944  1.0000
  H   H5915     1.0  0.77958  0.10964  0.70341  1.0000
  H   H5916     1.0  0.76878  0.24911  0.59914  1.0000
  C   C4946     1.0  0.76197  0.39770  0.58598  1.0000
  H   H5917     1.0  0.75752  0.20351  0.69060  1.0000
  S   S1324     1.0  0.73718  0.43040  0.60096  1.0000
  H   H5918     1.0  0.76187  0.34863  0.57838  1.0000
  H   H5919     1.0  0.74678  0.38692  0.69519  1.0000
  H   H5920     1.0  0.75154  0.36779  0.64780  1.0000
  H   H5921     1.0  0.80918  0.30508  0.76210  1.0000
  C   C4947     1.0  0.74248  0.32925  0.69266  1.0000
  H   H5922     1.0  0.95716  0.21269  0.75204  1.0000
  C   C4948     1.0  0.73649  0.36779  0.68931  1.0000
  H   H5923     1.0  0.78810  0.24888  0.61017  1.0000
  H   H5924     1.0  0.74616  0.08923  0.69746  1.0000
  H   H5925     1.0  0.77514  0.98482  0.69287  1.0000
  C   C4949     1.0  0.74499  0.13690  0.72218  1.0000
  H   H5926     1.0  0.74810  0.14471  0.71212  1.0000
  C   C4950     1.0  0.93975  0.16014  0.77669  1.0000
  H   H5927     1.0  0.97742  0.20166  0.76355  1.0000
  H   H5928     1.0  0.74857  0.98468  0.73941  1.0000
  C   C4951     1.0  0.97878  0.17985  0.76232  1.0000
  H   H5929     1.0  0.98048  0.11152  0.71666  1.0000
  C   C4952     1.0  0.74493  0.17392  0.76072  1.0000
  H   H5930     1.0  0.98311  0.15901  0.72144  1.0000
  C   C4953     1.0  0.98223  0.12501  0.75200  1.0000
  C   C4954     1.0  0.98289  0.14954  0.73004  1.0000
  H   H5931     1.0  0.73843  0.39705  0.67477  1.0000
  H   H5932     1.0  0.74030  0.36557  0.62956  1.0000
  C   C4955     1.0  0.73820  0.32893  0.71792  1.0000
  H   H5933     1.0  0.73851  0.33120  0.68308  1.0000
  H   H5934     1.0  0.73998  0.26397  0.74297  1.0000
  C   C4956     1.0  0.73914  0.16503  0.77336  1.0000
  C   C4957     1.0  0.73747  0.37747  0.62638  1.0000
  H   H5935     1.0  0.76185  0.98363  0.67591  1.0000
  C   C4958     1.0  0.76493  0.98176  0.69696  1.0000
  N   N331      1.0  0.73659  0.09372  0.71850  1.0000
  C   C4959     1.0  0.73661  0.09608  0.70306  1.0000
  H   H5936     1.0  0.77242  0.17965  0.82223  1.0000
  H   H5937     1.0  0.77628  0.08944  0.92230  1.0000
  C   C4960     1.0  0.84347  0.17047  0.80992  1.0000
  C   C4961     1.0  0.87255  0.15207  0.83066  1.0000
  H   H5938     1.0  0.81191  0.20147  0.96649  1.0000
  S   S1325     1.0  0.77716  0.14844  0.96469  1.0000
  C   C4962     1.0  0.76152  0.15891  0.78084  1.0000
  C   C4963     1.0  0.88781  0.19549  0.92259  1.0000
  S   S1326     1.0  0.76619  0.10174  0.82150  1.0000
  C   C4964     1.0  0.93975  0.17195  0.78165  1.0000
  S   S1327     1.0  0.77082  0.22044  0.82898  1.0000
  C   C4965     1.0  0.74337  0.12953  0.93004  1.0000
  S   S1328     1.0  0.93191  0.18458  0.85492  1.0000
  C   C4966     1.0  0.88511  0.21624  0.93205  1.0000
  C   C4967     1.0  0.88662  0.15355  0.82449  1.0000
  C   C4968     1.0  0.77797  0.10022  0.91804  1.0000
  H   H5939     1.0  0.87793  0.17837  0.93788  1.0000
  Fe  Fe656     1.0  0.81880  0.20519  0.87975  1.0000
  S   S1329     1.0  0.83216  0.19592  0.86102  1.0000
  S   S1330     1.0  0.79958  0.22290  0.87696  1.0000
  Fe  Fe657     1.0  0.83774  0.18625  0.90005  1.0000
  S   S1331     1.0  0.85283  0.17543  0.88279  1.0000
  S   S1332     1.0  0.83991  0.17757  0.92315  1.0000
  Fe  Fe658     1.0  0.85056  0.19751  0.86866  1.0000
  S   S1333     1.0  0.86739  0.20715  0.85139  1.0000
  Fe  Fe659     1.0  0.83311  0.17483  0.87665  1.0000
  S   S1334     1.0  0.83200  0.15426  0.87224  1.0000
  S   S1335     1.0  0.83709  0.20849  0.88639  1.0000
  S   S1336     1.0  0.81815  0.18397  0.89493  1.0000
  H   H5940     1.0  0.91158  0.20570  0.91851  1.0000
  H   H5941     1.0  0.87622  0.19407  0.95161  1.0000
  H   H5942     1.0  0.83060  0.17952  0.82738  1.0000
  H   H5943     1.0  0.94439  0.24807  0.81656  1.0000
  H   H5944     1.0  0.86087  0.17947  0.84795  1.0000
  Fe  Fe660     1.0  0.77867  0.13347  0.84529  1.0000
  C   C4969     1.0  0.76168  0.08641  0.81953  1.0000
  S   S1337     1.0  0.78944  0.15223  0.83656  1.0000
  C   C4970     1.0  0.87985  0.18588  0.90228  1.0000
  H   H5945     1.0  0.90087  0.18925  0.81600  1.0000
  H   H5946     1.0  0.77943  0.18130  0.92496  1.0000
  C   C4971     1.0  0.74810  0.17002  0.84302  1.0000
  S   S1338     1.0  0.76035  0.13345  0.83660  1.0000
  S   S1339     1.0  0.78709  0.10965  0.84788  1.0000
  C   C4972     1.0  0.87703  0.17915  0.91675  1.0000
  C   C4973     1.0  0.88204  0.17383  0.83522  1.0000
  Fe  Fe661     1.0  0.76402  0.25116  0.78118  1.0000
  S   S1340     1.0  0.77885  0.13401  0.93323  1.0000
  H   H5947     1.0  0.88030  0.22045  0.82146  1.0000
  C   C4974     1.0  0.80748  0.18139  0.95551  1.0000
  S   S1341     1.0  0.85155  0.21544  0.95861  1.0000
  C   C4975     1.0  0.74179  0.14090  0.90068  1.0000
  H   H5948     1.0  0.81149  0.14548  0.89775  1.0000
  H   H5949     1.0  0.77628  0.18116  0.90121  1.0000
  C   C4976     1.0  0.74348  0.32925  0.78389  1.0000
  H   H5950     1.0  0.78037  0.02954  0.79819  1.0000
  Fe  Fe662     1.0  0.94353  0.19325  0.83267  1.0000
  S   S1342     1.0  0.95194  0.16988  0.79223  1.0000
  H   H5951     1.0  0.89598  0.21086  0.90365  1.0000
  S   S1343     1.0  0.75384  0.10632  0.86342  1.0000
  C   C4977     1.0  0.74915  0.19441  0.84097  1.0000
  H   H5952     1.0  0.84241  0.13783  0.91642  1.0000
  C   C4978     1.0  0.88084  0.18386  0.92683  1.0000
  H   H5953     1.0  0.82701  0.11990  0.92872  1.0000
  H   H5954     1.0  0.76972  0.20322  0.95378  1.0000
  H   H5955     1.0  0.74342  0.16855  0.85477  1.0000
  H   H5956     1.0  0.76139  0.13436  0.80282  1.0000
  N   N332      1.0  0.82134  0.20807  0.81301  1.0000
  C   C4979     1.0  0.89070  0.20199  0.90771  1.0000
  S   S1344     1.0  0.93104  0.19841  0.81573  1.0000
  C   C4980     1.0  0.77817  0.10841  0.92747  1.0000
  C   C4981     1.0  0.78475  0.17337  0.90574  1.0000
  H   H5957     1.0  0.89846  0.23512  0.78410  1.0000
  H   H5958     1.0  0.87657  0.18234  0.89461  1.0000
  Fe  Fe663     1.0  0.94045  0.21780  0.80716  1.0000
  H   H5959     1.0  0.76826  0.19239  0.77864  1.0000
  C   C4982     1.0  0.78199  0.11991  0.89784  1.0000
  C   C4983     1.0  0.78187  0.12816  0.90723  1.0000
  C   C4984     1.0  0.77991  0.12253  0.92206  1.0000
  C   C4985     1.0  0.74456  0.12410  0.94434  1.0000
  H   H5960     1.0  0.90780  0.26185  0.78574  1.0000
  H   H5961     1.0  0.78403  0.12430  0.88643  1.0000
  H   H5962     1.0  0.78326  0.13901  0.90291  1.0000
  C   C4986     1.0  0.73985  0.11749  0.90077  1.0000
  C   C4987     1.0  0.84288  0.18835  0.93292  1.0000
  C   C4988     1.0  0.84333  0.18280  0.94746  1.0000
  C   C4989     1.0  0.84549  0.19117  0.95561  1.0000
  C   C4990     1.0  0.84748  0.20507  0.94916  1.0000
  C   C4991     1.0  0.84706  0.21059  0.93462  1.0000
  C   C4992     1.0  0.84467  0.20231  0.92654  1.0000
  H   H5963     1.0  0.84200  0.17197  0.95246  1.0000
  H   H5964     1.0  0.84588  0.18677  0.96679  1.0000
  H   H5965     1.0  0.84857  0.22134  0.92955  1.0000
  H   H5966     1.0  0.84439  0.20668  0.91534  1.0000
  C   C4993     1.0  0.81917  0.15424  0.86321  1.0000
  C   C4994     1.0  0.81277  0.16678  0.85465  1.0000
  C   C4995     1.0  0.80359  0.16614  0.84652  1.0000
  C   C4996     1.0  0.80040  0.15305  0.84731  1.0000
  C   C4997     1.0  0.80630  0.14066  0.85639  1.0000
  C   C4998     1.0  0.81582  0.14123  0.86414  1.0000
  H   H5967     1.0  0.81514  0.17687  0.85410  1.0000
  H   H5968     1.0  0.79891  0.17577  0.83962  1.0000
  H   H5969     1.0  0.80388  0.13053  0.85712  1.0000
  H   H5970     1.0  0.82067  0.13150  0.87080  1.0000
  C   C4999     1.0  0.79187  0.22204  0.86350  1.0000
  C   C5000     1.0  0.79071  0.20887  0.86205  1.0000
  C   C5001     1.0  0.78394  0.20845  0.85161  1.0000
  C   C5002     1.0  0.77886  0.22113  0.84226  1.0000
  C   C5003     1.0  0.78036  0.23422  0.84349  1.0000
  C   C5004     1.0  0.78662  0.23469  0.85426  1.0000
  H   H5971     1.0  0.79471  0.19907  0.86919  1.0000
  H   H5972     1.0  0.78281  0.19830  0.85069  1.0000
  H   H5973     1.0  0.77636  0.24405  0.83638  1.0000
  H   H5974     1.0  0.78750  0.24488  0.85538  1.0000
  N   N333      1.0  0.89202  0.20084  0.93292  1.0000
  H   H5975     1.0  0.89329  0.18157  0.94971  1.0000
  S   S1345     1.0  0.74141  0.99407  0.78773  1.0000
  H   H5976     1.0  0.76825  0.15367  0.78845  1.0000
  C   C5005     1.0  0.81807  0.12796  0.92454  1.0000
  H   H5977     1.0  0.76017  0.07499  0.84154  1.0000
  C   C5006     1.0  0.75936  0.07479  0.83099  1.0000
  H   H5978     1.0  0.75052  0.12864  0.94883  1.0000
  H   H5979     1.0  0.75716  0.07338  0.79298  1.0000
  H   H5980     1.0  0.79249  0.16314  0.88779  1.0000
  C   C5007     1.0  0.91363  0.19154  0.85574  1.0000
  C   C5008     1.0  0.90912  0.20485  0.84707  1.0000
  C   C5009     1.0  0.89478  0.20979  0.84628  1.0000
  C   C5010     1.0  0.88485  0.20144  0.85414  1.0000
  C   C5011     1.0  0.88923  0.18829  0.86320  1.0000
  C   C5012     1.0  0.90362  0.18339  0.86411  1.0000
  H   H5981     1.0  0.91674  0.21136  0.84087  1.0000
  H   H5982     1.0  0.89144  0.22011  0.83952  1.0000
  H   H5983     1.0  0.88166  0.18168  0.86909  1.0000
  H   H5984     1.0  0.90711  0.17305  0.87080  1.0000
  N   N334      1.0  0.74392  0.18505  0.83528  1.0000
  H   H5985     1.0  0.74811  0.23434  0.79775  1.0000
  H   H5986     1.0  0.95155  0.27563  0.79889  1.0000
  H   H5987     1.0  0.76257  0.09470  0.79688  1.0000
  C   C5013     1.0  0.88673  0.19724  0.89775  1.0000
  C   C5014     1.0  0.79114  0.04671  0.79304  1.0000
  H   H5988     1.0  0.74194  0.19697  0.78656  1.0000
  H   H5989     1.0  0.91328  0.18786  0.92935  1.0000
  S   S1346     1.0  0.79918  0.11702  0.96564  1.0000
  S   S1347     1.0  0.78965  0.25164  0.80369  1.0000
  H   H5990     1.0  0.80798  0.12593  0.93217  1.0000
  H   H5991     1.0  0.87148  0.17043  0.92022  1.0000
  Fe  Fe664     1.0  0.77281  0.10852  0.87015  1.0000
  C   C5015     1.0  0.79386  0.16325  0.89819  1.0000
  S   S1348     1.0  0.76583  0.13223  0.86769  1.0000
  C   C5016     1.0  0.74851  0.19300  0.79447  1.0000
  C   C5017     1.0  0.78659  0.17348  0.91908  1.0000
  C   C5018     1.0  0.87267  0.19558  0.79902  1.0000
  H   H5992     1.0  0.81074  0.14252  0.94535  1.0000
  Fe  Fe665     1.0  0.95107  0.18718  0.80308  1.0000
  S   S1349     1.0  0.77965  0.23147  0.78883  1.0000
  H   H5993     1.0  0.83359  0.14283  0.90191  1.0000
  C   C5019     1.0  0.75165  0.13360  0.80005  1.0000
  S   S1350     1.0  0.77828  0.09607  0.89159  1.0000
  H   H5994     1.0  0.88518  0.18244  0.83730  1.0000
  C   C5020     1.0  0.96621  0.24166  0.79470  1.0000
  H   H5995     1.0  0.79852  0.16436  0.93515  1.0000
  C   C5021     1.0  0.79602  0.21005  0.91696  1.0000
  C   C5022     1.0  0.77969  0.10602  0.90319  1.0000
  H   H5996     1.0  0.78056  0.20523  0.97117  1.0000
  H   H5997     1.0  0.75117  0.11251  0.90126  1.0000
  N   N335      1.0  0.87902  0.23152  0.79972  1.0000
  C   C5023     1.0  0.83658  0.19737  0.79211  1.0000
  H   H5998     1.0  0.90847  0.17472  0.83792  1.0000
  H   H5999     1.0  0.81357  0.17732  0.96412  1.0000
  H   H6000     1.0  0.92497  0.16583  0.82871  1.0000
  H   H6001     1.0  0.83842  0.21802  0.81127  1.0000
  H   H6002     1.0  0.89558  0.24137  0.80000  1.0000
  S   S1351     1.0  0.77011  0.29206  0.79652  1.0000
  H   H6003     1.0  0.81147  0.26465  0.78078  1.0000
  H   H6004     1.0  0.81685  0.20564  0.94749  1.0000
  C   C5024     1.0  0.91346  0.16549  0.83267  1.0000
  Fe  Fe666     1.0  0.79491  0.24588  0.78239  1.0000
  H   H6005     1.0  0.73938  0.12143  0.88924  1.0000
  C   C5025     1.0  0.74946  0.30113  0.78043  1.0000
  H   H6006     1.0  0.81295  0.20195  0.92793  1.0000
  N   N336      1.0  0.96345  0.25367  0.80183  1.0000
  H   H6007     1.0  0.87705  0.18675  0.78035  1.0000
  C   C5026     1.0  0.75374  0.31873  0.79031  1.0000
  H   H6008     1.0  0.91223  0.15539  0.80327  1.0000
  N   N337      1.0  0.79849  0.19590  0.95613  1.0000
  H   H6009     1.0  0.86966  0.20616  0.81568  1.0000
  C   C5027     1.0  0.87307  0.20712  0.80419  1.0000
  H   H6010     1.0  0.77731  0.21767  0.90818  1.0000
  C   C5028     1.0  0.87045  0.24507  0.79270  1.0000
  H   H6011     1.0  0.88894  0.20242  0.88644  1.0000
  S   S1352     1.0  0.75239  0.04615  0.81273  1.0000
  H   H6012     1.0  0.83389  0.20746  0.78470  1.0000
  C   C5029     1.0  0.75035  0.18640  0.81973  1.0000
  C   C5030     1.0  0.76540  0.18339  0.81478  1.0000
  C   C5031     1.0  0.90682  0.18016  0.81077  1.0000
  H   H6013     1.0  0.75937  0.32150  0.79661  1.0000
  H   H6014     1.0  0.81799  0.12567  0.91427  1.0000
  H   H6015     1.0  0.74872  0.13814  0.92415  1.0000
  C   C5032     1.0  0.83293  0.14500  0.91246  1.0000
  C   C5033     1.0  0.79237  0.20176  0.94318  1.0000
  N   N338      1.0  0.81940  0.14283  0.92284  1.0000
  H   H6016     1.0  0.82960  0.13630  0.94089  1.0000
  C   C5034     1.0  0.75639  0.06266  0.82871  1.0000
  C   C5035     1.0  0.80747  0.20527  0.95663  1.0000
  C   C5036     1.0  0.82049  0.14428  0.93693  1.0000
  C   C5037     1.0  0.80721  0.15315  0.91738  1.0000
  H   H6017     1.0  0.89321  0.14597  0.81807  1.0000
  H   H6018     1.0  0.83408  0.15622  0.91048  1.0000
  C   C5038     1.0  0.75552  0.06203  0.81503  1.0000
  C   C5039     1.0  0.76066  0.08585  0.80586  1.0000
  H   H6019     1.0  0.97322  0.24377  0.78382  1.0000
  H   H6020     1.0  0.82226  0.15501  0.93627  1.0000
  Fe  Fe667     1.0  0.76743  0.10936  0.84086  1.0000
  C   C5040     1.0  0.75755  0.07378  0.80361  1.0000
  Fe  Fe668     1.0  0.77309  0.23860  0.80960  1.0000
  C   C5041     1.0  0.79767  0.16360  0.92485  1.0000
  C   C5042     1.0  0.80481  0.15318  0.90398  1.0000
  H   H6021     1.0  0.75495  0.05361  0.83761  1.0000
  Fe  Fe669     1.0  0.77969  0.12858  0.95676  1.0000
  H   H6022     1.0  0.90211  0.18102  0.80159  1.0000
  H   H6023     1.0  0.82107  0.22996  0.81250  1.0000
  C   C5043     1.0  0.89416  0.23266  0.79592  1.0000
  S   S1353     1.0  0.95141  0.21368  0.82517  1.0000
  C   C5044     1.0  0.77174  0.18541  0.80013  1.0000
  S   S1354     1.0  0.96317  0.18053  0.82059  1.0000
  C   C5045     1.0  0.86802  0.17228  0.84130  1.0000
  H   H6024     1.0  0.77658  0.10395  0.93890  1.0000
  N   N339      1.0  0.90676  0.16608  0.82089  1.0000
  S   S1355     1.0  0.76456  0.11887  0.97611  1.0000
  C   C5046     1.0  0.87787  0.21932  0.79469  1.0000
  H   H6025     1.0  0.74687  0.12592  0.80944  1.0000
  H   H6026     1.0  0.87037  0.25439  0.79684  1.0000
  Fe  Fe670     1.0  0.97002  0.20149  0.81142  1.0000
  C   C5047     1.0  0.81760  0.20509  0.82893  1.0000
  H   H6027     1.0  0.88679  0.22038  0.94061  1.0000
  C   C5048     1.0  0.89186  0.16438  0.82682  1.0000
  C   C5049     1.0  0.88197  0.21926  0.77983  1.0000
  H   H6028     1.0  0.80965  0.21522  0.79612  1.0000
  H   H6029     1.0  0.86249  0.22960  0.81914  1.0000
  H   H6030     1.0  0.81552  0.18116  0.94528  1.0000
  Fe  Fe671     1.0  0.73841  0.01855  0.78384  1.0000
  C   C5050     1.0  0.88795  0.19313  0.94808  1.0000
  H   H6031     1.0  0.91269  0.15552  0.84114  1.0000
  H   H6032     1.0  0.85918  0.24437  0.79439  1.0000
  H   H6033     1.0  0.75508  0.12853  0.79064  1.0000
  S   S1356     1.0  0.81463  0.14389  0.97406  1.0000
  C   C5051     1.0  0.73902  0.15470  0.80930  1.0000
  C   C5052     1.0  0.75677  0.30467  0.78861  1.0000
  C   C5053     1.0  0.86330  0.16135  0.83913  1.0000
  H   H6034     1.0  0.95259  0.25875  0.82236  1.0000
  Fe  Fe672     1.0  0.77328  0.26964  0.79431  1.0000
  S   S1357     1.0  0.95946  0.20707  0.79279  1.0000
  H   H6035     1.0  0.74040  0.14476  0.88940  1.0000
  C   C5054     1.0  0.90772  0.19924  0.92931  1.0000
  H   H6036     1.0  0.90112  0.22255  0.80055  1.0000
  C   C5055     1.0  0.87704  0.19581  0.78437  1.0000
  H   H6037     1.0  0.74699  0.20572  0.83481  1.0000
  C   C5056     1.0  0.78764  0.19463  0.96987  1.0000
  C   C5057     1.0  0.82806  0.22064  0.80804  1.0000
  H   H6038     1.0  0.86907  0.18633  0.80641  1.0000
  C   C5058     1.0  0.87395  0.23014  0.81549  1.0000
  H   H6039     1.0  0.94447  0.26396  0.79345  1.0000
  H   H6040     1.0  0.81115  0.19678  0.83355  1.0000
  H   H6041     1.0  0.74404  0.19432  0.85246  1.0000
  H   H6042     1.0  0.97846  0.17627  0.79013  1.0000
  H   H6043     1.0  0.95615  0.23992  0.79349  1.0000
  H   H6044     1.0  0.80319  0.21211  0.90652  1.0000
  C   C5059     1.0  0.78882  0.03447  0.79078  1.0000
  H   H6045     1.0  0.78461  0.05115  0.80216  1.0000
  C   C5060     1.0  0.80789  0.21187  0.80800  1.0000
  H   H6046     1.0  0.81099  0.21476  0.83303  1.0000
  H   H6047     1.0  0.80126  0.21647  0.95642  1.0000
  H   H6048     1.0  0.89089  0.19762  0.95565  1.0000
  C   C5061     1.0  0.74737  0.15702  0.78372  1.0000
  H   H6049     1.0  0.80017  0.22084  0.81244  1.0000
  H   H6050     1.0  0.78328  0.18328  0.79667  1.0000
  C   C5062     1.0  0.77214  0.21061  0.93128  1.0000
  H   H6051     1.0  0.86885  0.14352  0.82906  1.0000
  H   H6052     1.0  0.85250  0.15997  0.84415  1.0000
  C   C5063     1.0  0.77747  0.20495  0.94379  1.0000
  H   H6053     1.0  0.91642  0.14397  0.82001  1.0000
  C   C5064     1.0  0.74206  0.19094  0.80910  1.0000
  H   H6054     1.0  0.91788  0.18175  0.80626  1.0000
  C   C5065     1.0  0.76331  0.19042  0.78999  1.0000
  S   S1358     1.0  0.75602  0.25730  0.80254  1.0000
  S   S1359     1.0  0.92661  0.23956  0.80107  1.0000
  C   C5066     1.0  0.91593  0.15490  0.81301  1.0000
  Fe  Fe673     1.0  0.74827  0.13026  0.85936  1.0000
  H   H6055     1.0  0.87499  0.23941  0.81899  1.0000
  H   H6056     1.0  0.78097  0.18705  0.97073  1.0000
  H   H6057     1.0  0.92715  0.15628  0.80906  1.0000
  H   H6058     1.0  0.80099  0.17357  0.95664  1.0000
  H   H6059     1.0  0.80256  0.20266  0.81147  1.0000
  H   H6060     1.0  0.83011  0.22455  0.79623  1.0000
  H   H6061     1.0  0.96030  0.26944  0.78239  1.0000
  S   S1360     1.0  0.75881  0.02592  0.78039  1.0000
  H   H6062     1.0  0.87339  0.21802  0.93337  1.0000
  H   H6063     1.0  0.74115  0.34009  0.78536  1.0000
  H   H6064     1.0  0.84585  0.15991  0.81678  1.0000
  C   C5067     1.0  0.78140  0.21320  0.91790  1.0000
  H   H6065     1.0  0.88914  0.22315  0.92162  1.0000
  H   H6066     1.0  0.75348  0.13718  0.90007  1.0000
  C   C5068     1.0  0.83101  0.19580  0.80714  1.0000
  C   C5069     1.0  0.95483  0.24999  0.81661  1.0000
  C   C5070     1.0  0.80148  0.20434  0.92934  1.0000
  H   H6067     1.0  0.75176  0.29025  0.77912  1.0000
  H   H6068     1.0  0.82733  0.20166  0.83337  1.0000
  H   H6069     1.0  0.76074  0.21308  0.93194  1.0000
  H   H6070     1.0  0.74899  0.15698  0.81012  1.0000
  H   H6071     1.0  0.93002  0.19410  0.78199  1.0000
  C   C5071     1.0  0.83464  0.18191  0.81590  1.0000
  H   H6072     1.0  0.80339  0.06297  0.78517  1.0000
  C   C5072     1.0  0.95465  0.26628  0.79377  1.0000
  Fe  Fe674     1.0  0.79535  0.13601  0.97512  1.0000
  Fe  Fe675     1.0  0.74624  0.04198  0.79397  1.0000
  H   H6073     1.0  0.74436  0.16266  0.83904  1.0000
  H   H6074     1.0  0.75984  0.16628  0.84185  1.0000
  H   H6075     1.0  0.91132  0.20278  0.93712  1.0000
  H   H6076     1.0  0.87471  0.24799  0.78093  1.0000
  N   N340      1.0  0.74150  0.14764  0.79728  1.0000
  C   C5073     1.0  0.92762  0.24624  0.78259  1.0000
  H   H6077     1.0  0.76085  0.19109  0.84034  1.0000
  H   H6078     1.0  0.73771  0.15036  0.90567  1.0000
  H   H6079     1.0  0.96029  0.24010  0.82318  1.0000
  H   H6080     1.0  0.73970  0.10839  0.96371  1.0000
  C   C5074     1.0  0.73850  0.11266  0.95272  1.0000
  C   C5075     1.0  0.79723  0.02862  0.77908  1.0000
  C   C5076     1.0  0.80179  0.05328  0.78352  1.0000
  C   C5077     1.0  0.73898  0.23362  0.79452  1.0000
  H   H6081     1.0  0.82733  0.28058  0.77884  1.0000
  C   C5078     1.0  0.84895  0.17245  0.79516  1.0000
  H   H6082     1.0  0.85570  0.16352  0.79056  1.0000
  C   C5079     1.0  0.73700  0.24005  0.78060  1.0000
  H   H6083     1.0  0.98450  0.23431  0.81438  1.0000
  C   C5080     1.0  0.84548  0.18587  0.78627  1.0000
  C   C5081     1.0  0.91665  0.25734  0.77797  1.0000
  H   H6084     1.0  0.97472  0.27858  0.79091  1.0000
  H   H6085     1.0  0.97139  0.23133  0.80088  1.0000
  H   H6086     1.0  0.73673  0.28791  0.82693  1.0000
  H   H6087     1.0  0.94752  0.15023  0.77887  1.0000
  C   C5082     1.0  0.97721  0.25603  0.80247  1.0000
  H   H6088     1.0  0.98405  0.15366  0.78016  1.0000
  C   C5083     1.0  0.92986  0.18482  0.77849  1.0000
  C   C5084     1.0  0.98140  0.26934  0.79635  1.0000
  H   H6089     1.0  0.79476  0.01917  0.77801  1.0000
  S   S1361     1.0  0.86488  0.74942  0.00439  1.0000
  Fe  Fe676     1.0  0.89735  0.78689  0.04773  1.0000
  S   S1362     1.0  0.91243  0.76653  0.05589  1.0000
  S   S1363     1.0  0.88500  0.79076  0.03016  1.0000
  Fe  Fe677     1.0  0.90410  0.80365  0.06594  1.0000
  S   S1364     1.0  0.91868  0.78431  0.07562  1.0000
  S   S1365     1.0  0.90223  0.82450  0.07209  1.0000
  Fe  Fe678     1.0  0.92747  0.78063  0.05345  1.0000
  Fe  Fe679     1.0  0.90242  0.77221  0.07745  1.0000
  S   S1366     1.0  0.90125  0.75652  0.09874  1.0000
  S   S1367     1.0  0.91335  0.80056  0.04347  1.0000
  S   S1368     1.0  0.88666  0.79193  0.06963  1.0000
  Fe  Fe680     1.0  0.82584  0.74373  0.13557  1.0000
  S   S1369     1.0  0.81847  0.76338  0.11951  1.0000
  S   S1370     1.0  0.84795  0.73021  0.13471  1.0000
  Fe  Fe681     1.0  0.79698  0.74615  0.15665  1.0000
  S   S1371     1.0  0.78711  0.76605  0.14253  1.0000
  H   H6090     1.0  0.79706  0.68657  0.13339  1.0000
  Fe  Fe682     1.0  0.79879  0.75471  0.12467  1.0000
  S   S1372     1.0  0.78716  0.75553  0.10811  1.0000
  Fe  Fe683     1.0  0.80755  0.77278  0.13888  1.0000
  S   S1373     1.0  0.80891  0.79359  0.14208  1.0000
  S   S1374     1.0  0.80705  0.73406  0.13921  1.0000
  S   S1375     1.0  0.81652  0.75375  0.15453  1.0000
  Fe  Fe684     1.0  0.96628  0.85755  0.12089  1.0000
  S   S1376     1.0  0.95476  0.86142  0.10317  1.0000
  H   H6091     1.0  0.73856  0.80776  0.00965  1.0000
  H   H6092     1.0  0.75792  0.96391  0.13461  1.0000
  S   S1377     1.0  0.92778  0.85120  0.12805  1.0000
  Fe  Fe685     1.0  0.94797  0.84086  0.11475  1.0000
  S   S1378     1.0  0.94971  0.82347  0.10354  1.0000
  Fe  Fe686     1.0  0.93540  0.87158  0.11793  1.0000
  S   S1379     1.0  0.91912  0.89070  0.10962  1.0000
  H   H6093     1.0  0.96357  0.78013  0.08703  1.0000
  H   H6094     1.0  0.89348  0.78462  0.14409  1.0000
  H   H6095     1.0  0.93872  0.78145  0.98977  1.0000
  C   C5085     1.0  0.79467  0.95819  0.13731  1.0000
  H   H6096     1.0  0.78339  0.91638  0.02101  1.0000
  H   H6097     1.0  0.75918  0.93051  0.17474  1.0000
  S   S1380     1.0  0.86417  0.96542  0.12391  1.0000
  H   H6098     1.0  0.81517  0.72458  0.07534  1.0000
  Fe  Fe687     1.0  0.84547  0.95676  0.12463  1.0000
  S   S1381     1.0  0.84023  0.95520  0.10460  1.0000
  H   H6099     1.0  0.98506  0.81091  0.15478  1.0000
  H   H6100     1.0  0.80314  0.88606  0.01992  1.0000
  S   S1382     1.0  0.83934  0.74061  0.98475  1.0000
  H   H6101     1.0  0.82622  0.87875  0.15758  1.0000
  Fe  Fe688     1.0  0.77276  0.66370  0.08935  1.0000
  S   S1383     1.0  0.76459  0.68119  0.10149  1.0000
  S   S1384     1.0  0.77182  0.64239  0.10456  1.0000
  Fe  Fe689     1.0  0.78198  0.68446  0.06104  1.0000
  S   S1385     1.0  0.77431  0.70346  0.07120  1.0000
  S   S1386     1.0  0.79464  0.68700  0.03814  1.0000
  Fe  Fe690     1.0  0.78438  0.68881  0.08898  1.0000
  S   S1387     1.0  0.79974  0.69305  0.09899  1.0000
  Fe  Fe691     1.0  0.75538  0.69367  0.08247  1.0000
  C   C5086     1.0  0.75610  0.65385  0.14006  1.0000
  S   S1388     1.0  0.79339  0.67043  0.07820  1.0000
  S   S1389     1.0  0.76210  0.67566  0.07102  1.0000
  S   S1390     1.0  0.79803  0.75090  0.00631  1.0000
  H   H6102     1.0  0.95074  0.77625  0.00155  1.0000
  C   C5087     1.0  0.87016  0.76109  0.01163  1.0000
  C   C5088     1.0  0.87707  0.75532  0.02319  1.0000
  C   C5089     1.0  0.75535  0.80880  0.99046  1.0000
  C   C5090     1.0  0.83625  0.74784  0.05663  1.0000
  H   H6103     1.0  0.80893  0.77074  0.08896  1.0000
  Fe  Fe692     1.0  0.77022  0.91727  0.07677  1.0000
  S   S1391     1.0  0.77429  0.90233  0.06163  1.0000
  Fe  Fe693     1.0  0.78487  0.92071  0.09836  1.0000
  S   S1392     1.0  0.80171  0.91205  0.11142  1.0000
  H   H6104     1.0  0.81502  0.81705  0.03741  1.0000
  C   C5091     1.0  0.75773  0.63469  0.10548  1.0000
  C   C5092     1.0  0.75284  0.62529  0.11819  1.0000
  H   H6105     1.0  0.74192  0.66904  0.16892  1.0000
  H   H6106     1.0  0.78178  0.92128  0.00278  1.0000
  Fe  Fe694     1.0  0.84853  0.97923  0.13840  1.0000
  C   C5093     1.0  0.75151  0.63761  0.09373  1.0000
  H   H6107     1.0  0.75770  0.62289  0.12727  1.0000
  S   S1393     1.0  0.75962  0.83075  0.00825  1.0000
  H   H6108     1.0  0.74997  0.74912  0.05478  1.0000
  H   H6109     1.0  0.75536  0.64474  0.08384  1.0000
  C   C5094     1.0  0.79487  0.70471  0.02846  1.0000
  C   C5095     1.0  0.78421  0.71618  0.03264  1.0000
  C   C5096     1.0  0.78518  0.73030  0.02557  1.0000
  C   C5097     1.0  0.79684  0.73304  0.01430  1.0000
  C   C5098     1.0  0.80730  0.72157  0.00979  1.0000
  C   C5099     1.0  0.80624  0.70742  0.01680  1.0000
  H   H6110     1.0  0.77514  0.71418  0.04125  1.0000
  H   H6111     1.0  0.77695  0.73914  0.02892  1.0000
  H   H6112     1.0  0.81619  0.72359  0.00095  1.0000
  H   H6113     1.0  0.81441  0.69857  0.01338  1.0000
  C   C5100     1.0  0.75698  0.87751  0.04827  1.0000
  C   C5101     1.0  0.76590  0.88226  0.05378  1.0000
  C   C5102     1.0  0.76148  0.89547  0.05793  1.0000
  H   H6114     1.0  0.83845  0.69682  0.06168  1.0000
  H   H6115     1.0  0.76074  0.86752  0.04474  1.0000
  H   H6116     1.0  0.77646  0.87582  0.05449  1.0000
  N   N341      1.0  0.82223  0.71251  0.05195  1.0000
  S   S1394     1.0  0.82813  0.77033  0.99727  1.0000
  C   C5103     1.0  0.82238  0.72959  0.06628  1.0000
  H   H6117     1.0  0.82278  0.78366  0.02455  1.0000
  C   C5104     1.0  0.79131  0.88840  0.02355  1.0000
  H   H6118     1.0  0.96818  0.81453  0.07835  1.0000
  C   C5105     1.0  0.75235  0.70456  0.13171  1.0000
  H   H6119     1.0  0.83663  0.79218  0.01325  1.0000
  Fe  Fe695     1.0  0.81848  0.75566  0.99128  1.0000
  Fe  Fe696     1.0  0.76931  0.84349  0.01655  1.0000
  C   C5106     1.0  0.83110  0.78757  0.06063  1.0000
  C   C5107     1.0  0.74769  0.90355  0.05724  1.0000
  S   S1395     1.0  0.95132  0.77678  0.04366  1.0000
  H   H6120     1.0  0.83108  0.77950  0.08318  1.0000
  C   C5108     1.0  0.81711  0.81476  0.98053  1.0000
  C   C5109     1.0  0.95813  0.77894  0.06800  1.0000
  C   C5110     1.0  0.81239  0.92406  0.10940  1.0000
  C   C5111     1.0  0.81458  0.93458  0.09682  1.0000
  C   C5112     1.0  0.82340  0.94388  0.09535  1.0000
  C   C5113     1.0  0.82957  0.94309  0.10664  1.0000
  C   C5114     1.0  0.82720  0.93268  0.11930  1.0000
  C   C5115     1.0  0.81881  0.92304  0.12056  1.0000
  H   H6121     1.0  0.80977  0.93534  0.08810  1.0000
  H   H6122     1.0  0.82547  0.95163  0.08539  1.0000
  H   H6123     1.0  0.83191  0.93197  0.12805  1.0000
  H   H6124     1.0  0.81703  0.91493  0.13027  1.0000
  C   C5116     1.0  0.90992  0.90247  0.12117  1.0000
  C   C5117     1.0  0.90013  0.91486  0.11638  1.0000
  C   C5118     1.0  0.89244  0.92428  0.12547  1.0000
  C   C5119     1.0  0.89470  0.92147  0.13933  1.0000
  C   C5120     1.0  0.90451  0.90910  0.14413  1.0000
  C   C5121     1.0  0.91199  0.89953  0.13513  1.0000
  H   H6125     1.0  0.89860  0.91726  0.10554  1.0000
  H   H6126     1.0  0.88501  0.93388  0.12165  1.0000
  H   H6127     1.0  0.79231  0.95896  0.15924  1.0000
  H   H6128     1.0  0.91948  0.89000  0.13894  1.0000
  C   C5122     1.0  0.79118  0.73864  0.10424  1.0000
  C   C5123     1.0  0.80349  0.72874  0.10734  1.0000
  C   C5124     1.0  0.80602  0.71472  0.10569  1.0000
  C   C5125     1.0  0.79641  0.71069  0.10061  1.0000
  C   C5126     1.0  0.78436  0.72072  0.09694  1.0000
  C   C5127     1.0  0.78175  0.73475  0.09874  1.0000
  H   H6129     1.0  0.81115  0.73190  0.11090  1.0000
  H   H6130     1.0  0.81550  0.70704  0.10828  1.0000
  H   H6131     1.0  0.77695  0.71763  0.09296  1.0000
  H   H6132     1.0  0.77227  0.74247  0.09622  1.0000
  H   H6133     1.0  0.82202  0.81584  0.01898  1.0000
  H   H6134     1.0  0.97248  0.81053  0.04727  1.0000
  H   H6135     1.0  0.79643  0.77354  0.06991  1.0000
  H   H6136     1.0  0.93109  0.75263  0.03070  1.0000
  H   H6137     1.0  0.84813  0.74887  0.03482  1.0000
  H   H6138     1.0  0.84077  0.79120  0.05889  1.0000
  H   H6139     1.0  0.80449  0.79918  0.99257  1.0000
  C   C5128     1.0  0.91599  0.82502  0.07977  1.0000
  C   C5129     1.0  0.91479  0.83657  0.08582  1.0000
  C   C5130     1.0  0.92530  0.83657  0.09275  1.0000
  C   C5131     1.0  0.93688  0.82484  0.09390  1.0000
  C   C5132     1.0  0.93836  0.81370  0.08727  1.0000
  C   C5133     1.0  0.92813  0.81391  0.08007  1.0000
  H   H6140     1.0  0.90562  0.84543  0.08534  1.0000
  H   H6141     1.0  0.92423  0.84540  0.09755  1.0000
  H   H6142     1.0  0.94755  0.80489  0.08756  1.0000
  H   H6143     1.0  0.92998  0.80571  0.07433  1.0000
  C   C5134     1.0  0.87976  0.77889  0.02314  1.0000
  C   C5135     1.0  0.87293  0.78463  0.01152  1.0000
  C   C5136     1.0  0.86807  0.77584  0.00587  1.0000
  C   C5137     1.0  0.93515  0.76102  0.10677  1.0000
  C   C5138     1.0  0.88180  0.76415  0.02895  1.0000
  H   H6144     1.0  0.87139  0.79599  0.00683  1.0000
  H   H6145     1.0  0.86294  0.78044  0.99687  1.0000
  H   H6146     1.0  0.88702  0.75953  0.03788  1.0000
  C   C5139     1.0  0.88593  0.74993  0.10833  1.0000
  C   C5140     1.0  0.88759  0.73749  0.11911  1.0000
  C   C5141     1.0  0.87585  0.73162  0.12704  1.0000
  C   C5142     1.0  0.86222  0.73836  0.12459  1.0000
  C   C5143     1.0  0.86040  0.75109  0.11407  1.0000
  C   C5144     1.0  0.87231  0.75681  0.10580  1.0000
  H   H6147     1.0  0.89809  0.73213  0.12109  1.0000
  H   H6148     1.0  0.87738  0.72173  0.13500  1.0000
  H   H6149     1.0  0.84992  0.75633  0.11208  1.0000
  H   H6150     1.0  0.87096  0.76649  0.09753  1.0000
  H   H6151     1.0  0.89592  0.75167  0.16727  1.0000
  H   H6152     1.0  0.86011  0.71780  0.15887  1.0000
  H   H6153     1.0  0.78018  0.68864  0.14586  1.0000
  H   H6154     1.0  0.94730  0.77846  0.07327  1.0000
  C   C5145     1.0  0.90401  0.75244  0.99432  1.0000
  C   C5146     1.0  0.94318  0.77241  0.99792  1.0000
  H   H6155     1.0  0.87885  0.74391  0.02768  1.0000
  C   C5147     1.0  0.77889  0.91209  0.14918  1.0000
  C   C5148     1.0  0.91184  0.74295  0.00401  1.0000
  H   H6156     1.0  0.82329  0.74431  0.07806  1.0000
  S   S1396     1.0  0.76514  0.97125  0.07266  1.0000
  S   S1397     1.0  0.78666  0.92984  0.07472  1.0000
  H   H6157     1.0  0.75073  0.72853  0.17112  1.0000
  C   C5149     1.0  0.82705  0.72475  0.05325  1.0000
  S   S1398     1.0  0.88542  0.93326  0.15079  1.0000
  C   C5150     1.0  0.96296  0.77832  0.05353  1.0000
  C   C5151     1.0  0.96743  0.77985  0.07580  1.0000
  Fe  Fe697     1.0  0.94112  0.84838  0.14371  1.0000
  H   H6158     1.0  0.74196  0.84703  0.16604  1.0000
  H   H6159     1.0  0.80113  0.71751  0.06541  1.0000
  C   C5152     1.0  0.74015  0.87407  0.16786  1.0000
  H   H6160     1.0  0.81536  0.84550  0.99010  1.0000
  H   H6161     1.0  0.82415  0.69956  0.03706  1.0000
  Fe  Fe698     1.0  0.74594  0.85168  0.99952  1.0000
  H   H6162     1.0  0.89094  0.86216  0.15768  1.0000
  H   H6163     1.0  0.76428  0.90424  0.02666  1.0000
  C   C5153     1.0  0.84252  0.80198  0.03229  1.0000
  C   C5154     1.0  0.82408  0.78955  0.04936  1.0000
  S   S1399     1.0  0.77005  0.90689  0.10003  1.0000
  S   S1400     1.0  0.76742  0.93883  0.10487  1.0000
  C   C5155     1.0  0.74920  0.80278  0.00456  1.0000
  H   H6164     1.0  0.79072  0.81337  0.01089  1.0000
  H   H6165     1.0  0.91306  0.75262  0.12281  1.0000
  S   S1401     1.0  0.75719  0.86459  0.00629  1.0000
  H   H6166     1.0  0.91918  0.78925  0.00900  1.0000
  H   H6167     1.0  0.79593  0.95456  0.11666  1.0000
  S   S1402     1.0  0.79275  0.84040  0.01459  1.0000
  S   S1403     1.0  0.96084  0.83606  0.13143  1.0000
  C   C5156     1.0  0.81319  0.77584  0.07801  1.0000
  H   H6168     1.0  0.77850  0.94069  0.16934  1.0000
  N   N342      1.0  0.75744  0.73252  0.14804  1.0000
  C   C5157     1.0  0.77013  0.87729  0.13891  1.0000
  C   C5158     1.0  0.75138  0.72150  0.14592  1.0000
  C   C5159     1.0  0.90367  0.75157  0.14479  1.0000
  H   H6169     1.0  0.82162  0.93293  0.15341  1.0000
  S   S1404     1.0  0.84867  0.93887  0.14373  1.0000
  H   H6170     1.0  0.83992  0.70556  0.03529  1.0000
  H   H6171     1.0  0.80820  0.66515  0.12501  1.0000
  N   N343      1.0  0.86571  0.89373  0.12469  1.0000
  C   C5160     1.0  0.88103  0.88839  0.11850  1.0000
  C   C5161     1.0  0.85821  0.89927  0.11264  1.0000
  C   C5162     1.0  0.86472  0.90579  0.13113  1.0000
  C   C5163     1.0  0.85891  0.88268  0.13569  1.0000
  C   C5164     1.0  0.86649  0.86839  0.14013  1.0000
  C   C5165     1.0  0.84419  0.88607  0.14229  1.0000
  C   C5166     1.0  0.85961  0.85823  0.15045  1.0000
  H   H6172     1.0  0.78780  0.78517  0.98785  1.0000
  C   C5167     1.0  0.81248  0.91452  0.16375  1.0000
  H   H6173     1.0  0.88264  0.87946  0.11317  1.0000
  H   H6174     1.0  0.88576  0.89690  0.11014  1.0000
  H   H6175     1.0  0.88758  0.88481  0.12678  1.0000
  H   H6176     1.0  0.86334  0.90727  0.10391  1.0000
  H   H6177     1.0  0.84695  0.90486  0.11601  1.0000
  H   H6178     1.0  0.85814  0.89045  0.10788  1.0000
  H   H6179     1.0  0.87057  0.90222  0.13996  1.0000
  H   H6180     1.0  0.86936  0.91451  0.12305  1.0000
  H   H6181     1.0  0.85353  0.91080  0.13559  1.0000
  H   H6182     1.0  0.87770  0.86478  0.13578  1.0000
  H   H6183     1.0  0.83775  0.89671  0.13955  1.0000
  H   H6184     1.0  0.79750  0.91191  0.98430  1.0000
  H   H6185     1.0  0.73803  0.90580  0.10462  1.0000
  C   C5168     1.0  0.79479  0.66158  0.15271  1.0000
  N   N344      1.0  0.88387  0.79892  0.11915  1.0000
  C   C5169     1.0  0.86936  0.80428  0.12723  1.0000
  C   C5170     1.0  0.88473  0.80569  0.10367  1.0000
  C   C5171     1.0  0.88606  0.78325  0.12053  1.0000
  C   C5172     1.0  0.89433  0.80221  0.12506  1.0000
  C   C5173     1.0  0.89809  0.79370  0.13809  1.0000
  C   C5174     1.0  0.90003  0.81468  0.11885  1.0000
  C   C5175     1.0  0.81822  0.80963  0.02997  1.0000
  H   H6186     1.0  0.74036  0.76305  0.07307  1.0000
  C   C5176     1.0  0.82591  0.78975  0.14554  1.0000
  H   H6187     1.0  0.86103  0.80131  0.12390  1.0000
  H   H6188     1.0  0.86828  0.79982  0.13897  1.0000
  H   H6189     1.0  0.86687  0.81614  0.12568  1.0000
  H   H6190     1.0  0.88117  0.81755  0.10162  1.0000
  H   H6191     1.0  0.87771  0.80215  0.09906  1.0000
  H   H6192     1.0  0.89582  0.80290  0.09731  1.0000
  H   H6193     1.0  0.88330  0.77734  0.13181  1.0000
  H   H6194     1.0  0.87910  0.78071  0.11503  1.0000
  H   H6195     1.0  0.89727  0.77858  0.11573  1.0000
  C   C5177     1.0  0.84090  0.74351  0.04362  1.0000
  H   H6196     1.0  0.89737  0.82212  0.10928  1.0000
  Fe  Fe699     1.0  0.76790  0.94717  0.08150  1.0000
  C   C5178     1.0  0.97721  0.81835  0.07015  1.0000
  H   H6197     1.0  0.84081  0.80999  0.03881  1.0000
  N   N345      1.0  0.78790  0.66789  0.14027  1.0000
  H   H6198     1.0  0.95922  0.76042  0.11223  1.0000
  H   H6199     1.0  0.75233  0.78649  0.02348  1.0000
  H   H6200     1.0  0.92610  0.84552  0.05069  1.0000
  C   C5179     1.0  0.77360  0.66458  0.14399  1.0000
  C   C5180     1.0  0.76317  0.66892  0.15588  1.0000
  C   C5181     1.0  0.76962  0.65696  0.13614  1.0000
  H   H6201     1.0  0.76006  0.84437  0.15569  1.0000
  C   C5182     1.0  0.74969  0.66571  0.15973  1.0000
  C   C5183     1.0  0.79601  0.90133  0.98539  1.0000
  C   C5184     1.0  0.86335  0.71776  0.16871  1.0000
  C   C5185     1.0  0.92706  0.82493  0.17176  1.0000
  C   C5186     1.0  0.78829  0.87943  0.99869  1.0000
  H   H6202     1.0  0.98322  0.80952  0.06460  1.0000
  S   S1405     1.0  0.81618  0.94902  0.17516  1.0000
  H   H6203     1.0  0.86486  0.70657  0.17517  1.0000
  H   H6204     1.0  0.89495  0.74743  0.14425  1.0000
  H   H6205     1.0  0.89672  0.74884  0.99055  1.0000
  H   H6206     1.0  0.83474  0.77435  0.13214  1.0000
  H   H6207     1.0  0.91332  0.82770  0.12036  1.0000
  H   H6208     1.0  0.77674  0.65315  0.12693  1.0000
  H   H6209     1.0  0.79325  0.66681  0.11793  1.0000
  S   S1406     1.0  0.85158  0.96325  0.15893  1.0000
  Fe  Fe700     1.0  0.75270  0.92583  0.10456  1.0000
  C   C5187     1.0  0.77701  0.79052  0.99195  1.0000
  N   N346      1.0  0.85260  0.72769  0.17707  1.0000
  H   H6210     1.0  0.80117  0.96612  0.13298  1.0000
  H   H6211     1.0  0.84045  0.72945  0.03146  1.0000
  H   H6212     1.0  0.94946  0.76358  0.99240  1.0000
  C   C5188     1.0  0.93644  0.83814  0.04974  1.0000
  S   S1407     1.0  0.75154  0.93545  0.08150  1.0000
  C   C5189     1.0  0.81148  0.78419  0.05310  1.0000
  H   H6213     1.0  0.78977  0.90919  0.15135  1.0000
  C   C5190     1.0  0.83657  0.77912  0.13976  1.0000
  H   H6214     1.0  0.94443  0.84914  0.05994  1.0000
  H   H6215     1.0  0.84462  0.75055  0.17438  1.0000
  C   C5191     1.0  0.80677  0.80934  0.99194  1.0000
  Fe  Fe701     1.0  0.84911  0.75629  0.98955  1.0000
  H   H6216     1.0  0.77927  0.96558  0.09637  1.0000
  C   C5192     1.0  0.90420  0.75391  0.15777  1.0000
  H   H6217     1.0  0.78793  0.87802  0.02697  1.0000
  C   C5193     1.0  0.82695  0.74093  0.06793  1.0000
  C   C5194     1.0  0.82566  0.78080  0.07471  1.0000
  H   H6218     1.0  0.80556  0.78530  0.04514  1.0000
  C   C5195     1.0  0.82806  0.70875  0.03768  1.0000
  H   H6219     1.0  0.94584  0.76110  0.02505  1.0000
  C   C5196     1.0  0.83242  0.78706  0.02461  1.0000
  H   H6220     1.0  0.91431  0.77677  0.02527  1.0000
  H   H6221     1.0  0.82469  0.71784  0.02895  1.0000
  H   H6222     1.0  0.84052  0.77722  0.02770  1.0000
  C   C5197     1.0  0.78387  0.94100  0.13372  1.0000
  H   H6223     1.0  0.80837  0.80674  0.02970  1.0000
  N   N347      1.0  0.82931  0.79692  0.03438  1.0000
  H   H6224     1.0  0.84629  0.80729  0.02090  1.0000
  C   C5198     1.0  0.80615  0.77746  0.06723  1.0000
  H   H6225     1.0  0.92654  0.73971  0.01684  1.0000
  C   C5199     1.0  0.77855  0.93661  0.14870  1.0000
  H   H6226     1.0  0.80586  0.66323  0.15007  1.0000
  H   H6227     1.0  0.75918  0.93217  0.13685  1.0000
  C   C5200     1.0  0.78962  0.95418  0.15208  1.0000
  C   C5201     1.0  0.80206  0.83044  0.00158  1.0000
  H   H6228     1.0  0.78895  0.66641  0.16214  1.0000
  C   C5202     1.0  0.85064  0.90143  0.17221  1.0000
  C   C5203     1.0  0.78166  0.94356  0.15777  1.0000
  C   C5204     1.0  0.77565  0.97703  0.09298  1.0000
  C   C5205     1.0  0.87574  0.89180  0.17203  1.0000
  H   H6229     1.0  0.77943  0.72496  0.13777  1.0000
  H   H6230     1.0  0.92005  0.81203  0.14239  1.0000
  H   H6231     1.0  0.78024  0.91328  0.13746  1.0000
  C   C5206     1.0  0.81593  0.92733  0.16331  1.0000
  H   H6232     1.0  0.79529  0.64985  0.15626  1.0000
  H   H6233     1.0  0.94617  0.74737  0.01664  1.0000
  H   H6234     1.0  0.93370  0.76762  0.14719  1.0000
  H   H6235     1.0  0.94365  0.76398  0.09725  1.0000
  C   C5207     1.0  0.93111  0.80105  0.16771  1.0000
  H   H6236     1.0  0.73806  0.61151  0.12903  1.0000
  H   H6237     1.0  0.77409  0.71613  0.15627  1.0000
  C   C5208     1.0  0.77222  0.86766  0.16365  1.0000
  H   H6238     1.0  0.77680  0.77534  0.01226  1.0000
  S   S1408     1.0  0.93102  0.84194  0.16703  1.0000
  N   N348      1.0  0.78443  0.89861  0.01209  1.0000
  H   H6239     1.0  0.95219  0.74624  0.12560  1.0000
  H   H6240     1.0  0.78116  0.68871  0.12750  1.0000
  H   H6241     1.0  0.76668  0.71846  0.12594  1.0000
  C   C5209     1.0  0.78969  0.89319  0.99870  1.0000
  H   H6242     1.0  0.89745  0.84663  0.17036  1.0000
  C   C5210     1.0  0.86432  0.90352  0.17008  1.0000
  H   H6243     1.0  0.97650  0.84416  0.07246  1.0000
  H   H6244     1.0  0.90355  0.87403  0.16766  1.0000
  H   H6245     1.0  0.79886  0.77890  0.17190  1.0000
  C   C5211     1.0  0.75770  0.71510  0.13391  1.0000
  C   C5212     1.0  0.75141  0.97250  0.12825  1.0000
  C   C5213     1.0  0.93870  0.82641  0.04378  1.0000
  H   H6246     1.0  0.78829  0.76609  0.17569  1.0000
  C   C5214     1.0  0.83746  0.87585  0.15261  1.0000
  H   H6247     1.0  0.86549  0.84736  0.15374  1.0000
  C   C5215     1.0  0.76618  0.92129  0.17016  1.0000
  H   H6248     1.0  0.85146  0.79294  0.03512  1.0000
  H   H6249     1.0  0.81591  0.91009  0.15431  1.0000
  Fe  Fe702     1.0  0.74300  0.83117  0.02882  1.0000
  H   H6250     1.0  0.93020  0.82477  0.04009  1.0000
  H   H6251     1.0  0.75029  0.86345  0.13626  1.0000
  H   H6252     1.0  0.74416  0.91377  0.06033  1.0000
  C   C5216     1.0  0.79172  0.95168  0.12814  1.0000
  C   C5217     1.0  0.78647  0.68362  0.13669  1.0000
  S   S1409     1.0  0.75414  0.84201  0.03792  1.0000
  H   H6253     1.0  0.80256  0.70710  0.05300  1.0000
  C   C5218     1.0  0.98425  0.83472  0.04788  1.0000
  H   H6254     1.0  0.91461  0.78267  0.99126  1.0000
  C   C5219     1.0  0.74327  0.96939  0.12063  1.0000
  H   H6255     1.0  0.78359  0.87261  0.00839  1.0000
  H   H6256     1.0  0.82179  0.70108  0.07404  1.0000
  H   H6257     1.0  0.74278  0.96063  0.09575  1.0000
  C   C5220     1.0  0.79284  0.87413  0.98618  1.0000
  S   S1410     1.0  0.94741  0.86963  0.13462  1.0000
  H   H6258     1.0  0.78787  0.88596  0.12466  1.0000
  H   H6259     1.0  0.75272  0.71564  0.09456  1.0000
  H   H6260     1.0  0.93621  0.74926  0.10856  1.0000
  C   C5221     1.0  0.82851  0.79612  0.15514  1.0000
  C   C5222     1.0  0.83640  0.73217  0.04186  1.0000
  H   H6261     1.0  0.75343  0.64788  0.13395  1.0000
  C   C5223     1.0  0.93443  0.81462  0.16363  1.0000
  H   H6262     1.0  0.73849  0.88586  0.16361  1.0000
  H   H6263     1.0  0.75026  0.93994  0.15215  1.0000
  C   C5224     1.0  0.82667  0.69961  0.06290  1.0000
  C   C5225     1.0  0.84516  0.86196  0.15669  1.0000
  C   C5226     1.0  0.92357  0.77977  0.01678  1.0000
  N   N349      1.0  0.93188  0.76750  0.01014  1.0000
  C   C5227     1.0  0.93902  0.75661  0.02107  1.0000
  H   H6264     1.0  0.75050  0.92167  0.15271  1.0000
  H   H6265     1.0  0.82334  0.69014  0.06210  1.0000
  S   S1411     1.0  0.86765  0.77299  0.16039  1.0000
  C   C5228     1.0  0.92092  0.74763  0.00927  1.0000
  C   C5229     1.0  0.90747  0.79710  0.14409  1.0000
  S   S1412     1.0  0.88098  0.79932  0.17300  1.0000
  C   C5230     1.0  0.97725  0.77891  0.04686  1.0000
  Fe  Fe703     1.0  0.86589  0.94874  0.14439  1.0000
  H   H6266     1.0  0.84674  0.74384  0.15870  1.0000
  N   N350      1.0  0.97215  0.83177  0.06008  1.0000
  H   H6267     1.0  0.92388  0.78646  0.11421  1.0000
  H   H6268     1.0  0.83997  0.85407  0.16482  1.0000
  H   H6269     1.0  0.79965  0.65036  0.12992  1.0000
  C   C5231     1.0  0.82010  0.82784  0.97984  1.0000
  H   H6270     1.0  0.90639  0.90697  0.15480  1.0000
  C   C5232     1.0  0.84834  0.88758  0.17600  1.0000
  C   C5233     1.0  0.78347  0.88075  0.13555  1.0000
  C   C5234     1.0  0.74173  0.61882  0.11920  1.0000
  C   C5235     1.0  0.92236  0.76212  0.00489  1.0000
  H   H6271     1.0  0.82033  0.80444  0.15951  1.0000
  H   H6272     1.0  0.74924  0.73331  0.10918  1.0000
  C   C5236     1.0  0.93463  0.78079  0.11629  1.0000
  H   H6273     1.0  0.76146  0.74255  0.12532  1.0000
  H   H6274     1.0  0.78859  0.89269  0.03343  1.0000
  C   C5237     1.0  0.76947  0.80292  0.98372  1.0000
  C   C5238     1.0  0.96256  0.81845  0.04816  1.0000
  C   C5239     1.0  0.84955  0.77434  0.14405  1.0000
  N   N351      1.0  0.93627  0.76502  0.11966  1.0000
  H   H6275     1.0  0.80152  0.88037  0.14345  1.0000
  C   C5240     1.0  0.92566  0.76291  0.14612  1.0000
  H   H6276     1.0  0.83991  0.75653  0.05797  1.0000
  H   H6277     1.0  0.91559  0.76127  0.16859  1.0000
  H   H6278     1.0  0.80263  0.72582  0.04663  1.0000
  C   C5241     1.0  0.80647  0.71593  0.05438  1.0000
  C   C5242     1.0  0.92542  0.76075  0.13268  1.0000
  C   C5243     1.0  0.75696  0.79082  0.01240  1.0000
  H   H6279     1.0  0.79152  0.86360  0.98651  1.0000
  C   C5244     1.0  0.79897  0.81737  0.00228  1.0000
  H   H6280     1.0  0.80165  0.71329  0.16901  1.0000
  C   C5245     1.0  0.90922  0.81806  0.12508  1.0000
  H   H6281     1.0  0.76476  0.88007  0.13016  1.0000
  C   C5246     1.0  0.76876  0.89997  0.01672  1.0000
  S   S1413     1.0  0.82965  0.97176  0.13751  1.0000
  H   H6282     1.0  0.82205  0.97594  0.08616  1.0000
  H   H6283     1.0  0.86188  0.74542  0.16320  1.0000
  C   C5247     1.0  0.75217  0.85062  0.16331  1.0000
  H   H6284     1.0  0.91004  0.79059  0.15416  1.0000
  H   H6285     1.0  0.75598  0.84749  0.17344  1.0000
  C   C5248     1.0  0.75644  0.74525  0.13598  1.0000
  H   H6286     1.0  0.77387  0.90275  0.15453  1.0000
  H   H6287     1.0  0.79758  0.68874  0.17366  1.0000
  H   H6288     1.0  0.93018  0.78347  0.02175  1.0000
  H   H6289     1.0  0.85765  0.76595  0.13969  1.0000
  H   H6290     1.0  0.84339  0.79595  0.16716  1.0000
  C   C5249     1.0  0.96780  0.84360  0.06783  1.0000
  C   C5250     1.0  0.91303  0.80924  0.13758  1.0000
  H   H6291     1.0  0.76322  0.90728  0.00826  1.0000
  H   H6292     1.0  0.75707  0.70020  0.12219  1.0000
  C   C5251     1.0  0.85182  0.78005  0.15431  1.0000
  C   C5252     1.0  0.91420  0.77149  0.99498  1.0000
  H   H6293     1.0  0.98086  0.84458  0.03988  1.0000
  H   H6294     1.0  0.98154  0.81112  0.10395  1.0000
  C   C5253     1.0  0.75017  0.73753  0.16155  1.0000
  H   H6295     1.0  0.76568  0.88952  0.01910  1.0000
  H   H6296     1.0  0.93606  0.78465  0.12514  1.0000
  C   C5254     1.0  0.77269  0.72657  0.14843  1.0000
  H   H6297     1.0  0.95856  0.84208  0.07702  1.0000
  H   H6298     1.0  0.94262  0.78445  0.10657  1.0000
  C   C5255     1.0  0.74346  0.88590  0.04693  1.0000
  H   H6299     1.0  0.95332  0.76190  0.13044  1.0000
  C   C5256     1.0  0.91526  0.75941  0.15846  1.0000
  C   C5257     1.0  0.91415  0.75479  0.13244  1.0000
  C   C5258     1.0  0.79122  0.87758  0.14611  1.0000
  C   C5259     1.0  0.76416  0.87043  0.15311  1.0000
  H   H6300     1.0  0.98115  0.77844  0.03567  1.0000
  C   C5260     1.0  0.79764  0.66225  0.12779  1.0000
  C   C5261     1.0  0.95083  0.75809  0.12213  1.0000
  H   H6301     1.0  0.79154  0.86888  0.16840  1.0000
  H   H6302     1.0  0.74914  0.81846  0.98509  1.0000
  H   H6303     1.0  0.89872  0.77410  0.98259  1.0000
  C   C5262     1.0  0.84149  0.79121  0.15957  1.0000
  C   C5263     1.0  0.85140  0.74248  0.16806  1.0000
  H   H6304     1.0  0.96492  0.85423  0.06063  1.0000
  H   H6305     1.0  0.93693  0.79302  0.16155  1.0000
  H   H6306     1.0  0.78235  0.93589  0.12622  1.0000
  Fe  Fe704     1.0  0.83416  0.95457  0.15663  1.0000
  H   H6307     1.0  0.77720  0.73389  0.15165  1.0000
  H   H6308     1.0  0.95345  0.80743  0.03837  1.0000
  C   C5264     1.0  0.74617  0.65818  0.15184  1.0000
  C   C5265     1.0  0.95176  0.81662  0.04293  1.0000
  C   C5266     1.0  0.77079  0.78465  0.00609  1.0000
  C   C5267     1.0  0.78733  0.91283  0.01062  1.0000
  C   C5268     1.0  0.94712  0.84004  0.05511  1.0000
  H   H6309     1.0  0.91065  0.73194  0.00765  1.0000
  H   H6310     1.0  0.94283  0.81702  0.15436  1.0000
  H   H6311     1.0  0.86608  0.91434  0.16706  1.0000
  N   N352      1.0  0.77030  0.92522  0.15423  1.0000
  N   N353      1.0  0.75024  0.86623  0.15706  1.0000
  C   C5269     1.0  0.78556  0.87114  0.16015  1.0000
  C   C5270     1.0  0.96053  0.83013  0.05457  1.0000
  H   H6312     1.0  0.76536  0.67478  0.16238  1.0000
  C   C5271     1.0  0.74349  0.86931  0.14470  1.0000
  C   C5272     1.0  0.88825  0.85587  0.16886  1.0000
  H   H6313     1.0  0.76019  0.91256  0.17401  1.0000
  C   C5273     1.0  0.90515  0.76669  0.98984  1.0000
  H   H6314     1.0  0.92483  0.76659  0.10362  1.0000
  H   H6315     1.0  0.73841  0.85671  0.06423  1.0000
  H   H6316     1.0  0.79897  0.91253  0.00733  1.0000
  C   C5274     1.0  0.81284  0.83550  0.99055  1.0000
  H   H6317     1.0  0.74122  0.88095  0.13977  1.0000
  C   C5275     1.0  0.73872  0.89875  0.05178  1.0000
  C   C5276     1.0  0.75700  0.92999  0.14876  1.0000
  H   H6318     1.0  0.98281  0.86000  0.14471  1.0000
  H   H6319     1.0  0.87392  0.72072  0.16514  1.0000
  C   C5277     1.0  0.98167  0.78038  0.06924  1.0000
  H   H6320     1.0  0.75521  0.74553  0.16300  1.0000
  H   H6321     1.0  0.88601  0.89428  0.17023  1.0000
  H   H6322     1.0  0.83491  0.72569  0.16987  1.0000
  H   H6323     1.0  0.98608  0.78478  0.10861  1.0000
  H   H6324     1.0  0.76183  0.75330  0.13673  1.0000
  C   C5278     1.0  0.74066  0.63080  0.09460  1.0000
  H   H6325     1.0  0.84179  0.91057  0.17100  1.0000
  C   C5279     1.0  0.81161  0.93310  0.17553  1.0000
  C   C5280     1.0  0.80446  0.90751  0.17630  1.0000
  Fe  Fe705     1.0  0.74127  0.86243  0.02731  1.0000
  H   H6326     1.0  0.87902  0.85123  0.16991  1.0000
  S   S1414     1.0  0.79984  0.89183  0.17609  1.0000
  H   H6327     1.0  0.98448  0.81967  0.07607  1.0000
  H   H6328     1.0  0.74516  0.75069  0.13581  1.0000
  H   H6329     1.0  0.74361  0.95823  0.12179  1.0000
  H   H6330     1.0  0.77573  0.91722  0.17496  1.0000
  H   H6331     1.0  0.76829  0.86271  0.17472  1.0000
  C   C5281     1.0  0.74208  0.72072  0.09931  1.0000
  H   H6332     1.0  0.81000  0.97135  0.07024  1.0000
  H   H6333     1.0  0.74086  0.84756  0.08201  1.0000
  H   H6334     1.0  0.74123  0.73558  0.06674  1.0000
  C   C5282     1.0  0.73978  0.74541  0.05804  1.0000
  C   C5283     1.0  0.79168  0.71078  0.17562  1.0000
  C   C5284     1.0  0.74068  0.69992  0.14147  1.0000
  C   C5285     1.0  0.74012  0.73058  0.10771  1.0000
  C   C5286     1.0  0.87368  0.87752  0.17635  1.0000
  H   H6335     1.0  0.73748  0.77298  0.04753  1.0000
  H   H6336     1.0  0.73856  0.74237  0.04857  1.0000
  C   C5287     1.0  0.73953  0.71644  0.15577  1.0000
  H   H6337     1.0  0.73878  0.74285  0.16162  1.0000
  S   S1415     1.0  0.73738  0.81016  0.04168  1.0000
  H   H6338     1.0  0.73649  0.69184  0.13964  1.0000
  H   H6339     1.0  0.74209  0.55353  0.24678  1.0000
  H   H6340     1.0  0.76805  0.79065  0.20025  1.0000
  H   H6341     1.0  0.78045  0.79872  0.22231  1.0000
  C   C5288     1.0  0.79422  0.68073  0.23839  1.0000
  H   H6342     1.0  0.79962  0.79744  0.18064  1.0000
  Fe  Fe706     1.0  0.76981  0.85788  0.20735  1.0000
  H   H6343     1.0  0.76988  0.80001  0.28932  1.0000
  S   S1416     1.0  0.78332  0.73883  0.17818  1.0000
  Fe  Fe707     1.0  0.75053  0.67662  0.20119  1.0000
  C   C5289     1.0  0.78105  0.76233  0.20384  1.0000
  H   H6344     1.0  0.75476  0.75967  0.26171  1.0000
  S   S1417     1.0  0.77338  0.67651  0.18993  1.0000
  H   H6345     1.0  0.76465  0.81163  0.25615  1.0000
  H   H6346     1.0  0.87752  0.86279  0.20225  1.0000
  H   H6347     1.0  0.74588  0.80122  0.28321  1.0000
  S   S1418     1.0  0.88002  0.76751  0.19422  1.0000
  C   C5290     1.0  0.74486  0.84954  0.29001  1.0000
  Fe  Fe708     1.0  0.86454  0.80821  0.19052  1.0000
  S   S1419     1.0  0.87585  0.79513  0.20805  1.0000
  H   H6348     1.0  0.75216  0.53203  0.23997  1.0000
  Fe  Fe709     1.0  0.89142  0.78500  0.19059  1.0000
  H   H6349     1.0  0.73880  0.83212  0.19733  1.0000
  Fe  Fe710     1.0  0.86311  0.77905  0.20980  1.0000
  S   S1420     1.0  0.85112  0.76744  0.23054  1.0000
  C   C5291     1.0  0.81085  0.79703  0.19604  1.0000
  S   S1421     1.0  0.85058  0.79300  0.19357  1.0000
  C   C5292     1.0  0.79616  0.77652  0.26017  1.0000
  Fe  Fe711     1.0  0.76176  0.73950  0.24273  1.0000
  S   S1422     1.0  0.77660  0.71912  0.23797  1.0000
  H   H6350     1.0  0.73941  0.84505  0.28450  1.0000
  Fe  Fe712     1.0  0.77443  0.73828  0.26738  1.0000
  S   S1423     1.0  0.79066  0.71790  0.26473  1.0000
  H   H6351     1.0  0.76777  0.69344  0.23425  1.0000
  Fe  Fe713     1.0  0.79356  0.72795  0.24105  1.0000
  S   S1424     1.0  0.81322  0.72968  0.22332  1.0000
  Fe  Fe714     1.0  0.77223  0.71095  0.26196  1.0000
  S   S1425     1.0  0.76624  0.68958  0.27243  1.0000
  S   S1426     1.0  0.77903  0.74889  0.24406  1.0000
  S   S1427     1.0  0.75589  0.73060  0.26633  1.0000
  S   S1428     1.0  0.76395  0.88175  0.19963  1.0000
  S   S1429     1.0  0.79314  0.85690  0.20214  1.0000
  C   C5293     1.0  0.80841  0.77880  0.21782  1.0000
  Fe  Fe715     1.0  0.78956  0.85945  0.22464  1.0000
  S   S1430     1.0  0.80489  0.84520  0.23795  1.0000
  S   S1431     1.0  0.78531  0.88338  0.21893  1.0000
  H   H6352     1.0  0.73878  0.62073  0.18645  1.0000
  C   C5294     1.0  0.75331  0.76868  0.26622  1.0000
  C   C5295     1.0  0.92001  0.79802  0.17954  1.0000
  H   H6353     1.0  0.81126  0.77347  0.22806  1.0000
  H   H6354     1.0  0.83892  0.71248  0.18520  1.0000
  H   H6355     1.0  0.87464  0.73778  0.17948  1.0000
  H   H6356     1.0  0.79990  0.93067  0.19753  1.0000
  H   H6357     1.0  0.79344  0.90821  0.19815  1.0000
  C   C5296     1.0  0.76831  0.71798  0.19038  1.0000
  H   H6358     1.0  0.83013  0.73066  0.18691  1.0000
  H   H6359     1.0  0.79268  0.82806  0.22939  1.0000
  H   H6360     1.0  0.88234  0.73611  0.20118  1.0000
  C   C5297     1.0  0.77365  0.80986  0.28475  1.0000
  H   H6361     1.0  0.87190  0.85119  0.19503  1.0000
  H   H6362     1.0  0.74000  0.67128  0.25486  1.0000
  C   C5298     1.0  0.84333  0.83603  0.20194  1.0000
  C   C5299     1.0  0.83443  0.84969  0.20103  1.0000
  C   C5300     1.0  0.82316  0.85271  0.21256  1.0000
  C   C5301     1.0  0.82072  0.84210  0.22503  1.0000
  C   C5302     1.0  0.82997  0.82861  0.22623  1.0000
  C   C5303     1.0  0.84119  0.82552  0.21460  1.0000
  H   H6363     1.0  0.83584  0.85781  0.19125  1.0000
  H   H6364     1.0  0.81611  0.86321  0.21164  1.0000
  H   H6365     1.0  0.82820  0.82041  0.23590  1.0000
  H   H6366     1.0  0.84806  0.81495  0.21538  1.0000
  C   C5304     1.0  0.84062  0.75703  0.22833  1.0000
  C   C5305     1.0  0.83252  0.74947  0.24047  1.0000
  C   C5306     1.0  0.82374  0.74143  0.23899  1.0000
  C   C5307     1.0  0.82329  0.74062  0.22533  1.0000
  C   C5308     1.0  0.83134  0.74823  0.21316  1.0000
  C   C5309     1.0  0.84001  0.75639  0.21464  1.0000
  H   H6367     1.0  0.83314  0.74973  0.25107  1.0000
  H   H6368     1.0  0.81762  0.73555  0.24844  1.0000
  H   H6369     1.0  0.83090  0.74781  0.20256  1.0000
  H   H6370     1.0  0.84624  0.76215  0.20520  1.0000
  S   S1432     1.0  0.74054  0.68193  0.22278  1.0000
  C   C5310     1.0  0.74243  0.67585  0.31199  1.0000
  C   C5311     1.0  0.81422  0.79036  0.20934  1.0000
  C   C5312     1.0  0.80171  0.79207  0.19116  1.0000
  H   H6371     1.0  0.78985  0.75290  0.20623  1.0000
  H   H6372     1.0  0.75458  0.85454  0.26138  1.0000
  C   C5313     1.0  0.79102  0.79986  0.24364  1.0000
  H   H6373     1.0  0.79256  0.76721  0.26744  1.0000
  H   H6374     1.0  0.75853  0.86769  0.29136  1.0000
  H   H6375     1.0  0.90401  0.80607  0.19670  1.0000
  H   H6376     1.0  0.80023  0.68897  0.23139  1.0000
  C   C5314     1.0  0.77291  0.80545  0.22965  1.0000
  S   S1433     1.0  0.74115  0.65740  0.20620  1.0000
  C   C5315     1.0  0.74307  0.79360  0.26617  1.0000
  Fe  Fe716     1.0  0.76248  0.88198  0.22251  1.0000
  H   H6377     1.0  0.75945  0.70855  0.29189  1.0000
  C   C5316     1.0  0.87358  0.73138  0.20191  1.0000
  C   C5317     1.0  0.79580  0.78011  0.19945  1.0000
  C   C5318     1.0  0.75885  0.85952  0.26750  1.0000
  H   H6378     1.0  0.79501  0.79903  0.27642  1.0000
  C   C5319     1.0  0.86899  0.73236  0.18956  1.0000
  C   C5320     1.0  0.76563  0.85723  0.28957  1.0000
  C   C5321     1.0  0.75054  0.67658  0.29780  1.0000
  H   H6379     1.0  0.84191  0.71456  0.20575  1.0000
  C   C5322     1.0  0.79277  0.82185  0.27159  1.0000
  H   H6380     1.0  0.75345  0.82270  0.29182  1.0000
  C   C5323     1.0  0.75628  0.77894  0.28423  1.0000
  N   N354      1.0  0.75969  0.85026  0.28192  1.0000
  H   H6381     1.0  0.74516  0.70732  0.31674  1.0000
  S   S1434     1.0  0.74475  0.75366  0.23117  1.0000
  H   H6382     1.0  0.74601  0.67793  0.26662  1.0000
  C   C5324     1.0  0.75650  0.68851  0.29038  1.0000
  C   C5325     1.0  0.78783  0.80926  0.27751  1.0000
  H   H6383     1.0  0.76664  0.78237  0.18694  1.0000
  H   H6384     1.0  0.76173  0.82726  0.24228  1.0000
  C   C5326     1.0  0.76909  0.83610  0.28042  1.0000
  C   C5327     1.0  0.86675  0.72459  0.21528  1.0000
  C   C5328     1.0  0.79981  0.91342  0.18846  1.0000
  H   H6385     1.0  0.75216  0.66791  0.29259  1.0000
  C   C5329     1.0  0.76579  0.70435  0.19251  1.0000
  H   H6386     1.0  0.75222  0.72449  0.22747  1.0000
  H   H6387     1.0  0.76013  0.72611  0.19511  1.0000
  H   H6388     1.0  0.75570  0.70204  0.19890  1.0000
  H   H6389     1.0  0.75170  0.87023  0.26819  1.0000
  H   H6390     1.0  0.76789  0.64699  0.27397  1.0000
  C   C5330     1.0  0.91626  0.82171  0.18381  1.0000
  C   C5331     1.0  0.78111  0.72130  0.18170  1.0000
  H   H6391     1.0  0.87001  0.72431  0.22489  1.0000
  H   H6392     1.0  0.76937  0.86158  0.26095  1.0000
  H   H6393     1.0  0.76703  0.85031  0.30024  1.0000
  C   C5332     1.0  0.77636  0.69376  0.18660  1.0000
  C   C5333     1.0  0.79950  0.77357  0.21294  1.0000
  H   H6394     1.0  0.82155  0.79397  0.21302  1.0000
  H   H6395     1.0  0.89734  0.87556  0.18628  1.0000
  S   S1435     1.0  0.74455  0.89627  0.23470  1.0000
  C   C5334     1.0  0.78936  0.69693  0.17823  1.0000
  H   H6396     1.0  0.73809  0.86036  0.29098  1.0000
  H   H6397     1.0  0.74191  0.68947  0.25029  1.0000
  N   N355      1.0  0.88528  0.86485  0.17942  1.0000
  S   S1436     1.0  0.76099  0.84211  0.20216  1.0000
  C   C5335     1.0  0.75455  0.69954  0.29731  1.0000
  H   H6398     1.0  0.76062  0.77782  0.29338  1.0000
  C   C5336     1.0  0.91250  0.80841  0.18749  1.0000
  H   H6399     1.0  0.76589  0.81408  0.22324  1.0000
  H   H6400     1.0  0.77566  0.78668  0.25590  1.0000
  H   H6401     1.0  0.85006  0.71338  0.22678  1.0000
  H   H6402     1.0  0.80995  0.80926  0.23441  1.0000
  N   N356      1.0  0.78071  0.81144  0.23643  1.0000
  C   C5337     1.0  0.81039  0.77723  0.25756  1.0000
  C   C5338     1.0  0.78658  0.78768  0.25341  1.0000
  C   C5339     1.0  0.78359  0.83506  0.27303  1.0000
  H   H6403     1.0  0.82625  0.78949  0.24606  1.0000
  H   H6404     1.0  0.77543  0.82457  0.25179  1.0000
  C   C5340     1.0  0.85556  0.71839  0.21632  1.0000
  H   H6405     1.0  0.77421  0.75852  0.19923  1.0000
  S   S1437     1.0  0.85672  0.83207  0.18703  1.0000
  H   H6406     1.0  0.78798  0.84451  0.26816  1.0000
  C   C5341     1.0  0.74557  0.78186  0.26016  1.0000
  H   H6407     1.0  0.79601  0.76414  0.21977  1.0000
  H   H6408     1.0  0.76972  0.68705  0.21854  1.0000
  H   H6409     1.0  0.81782  0.76853  0.26273  1.0000
  H   H6410     1.0  0.79572  0.81717  0.21658  1.0000
  C   C5342     1.0  0.77020  0.81904  0.24715  1.0000
  H   H6411     1.0  0.78174  0.66467  0.26030  1.0000
  H   H6412     1.0  0.80205  0.67142  0.24295  1.0000
  S   S1438     1.0  0.91527  0.78140  0.18415  1.0000
  H   H6413     1.0  0.74149  0.78290  0.25085  1.0000
  Fe  Fe717     1.0  0.78720  0.88088  0.19670  1.0000
  N   N357      1.0  0.78615  0.67644  0.23042  1.0000
  C   C5343     1.0  0.77573  0.68933  0.22515  1.0000
  C   C5344     1.0  0.76896  0.65025  0.26241  1.0000
  C   C5345     1.0  0.79656  0.67153  0.21788  1.0000
  C   C5346     1.0  0.77840  0.66512  0.23922  1.0000
  C   C5347     1.0  0.77696  0.66046  0.25435  1.0000
  C   C5348     1.0  0.77134  0.65891  0.23278  1.0000
  H   H6414     1.0  0.80376  0.82144  0.26572  1.0000
  C   C5349     1.0  0.76341  0.64868  0.24093  1.0000
  C   C5350     1.0  0.76218  0.64439  0.25572  1.0000
  H   H6415     1.0  0.77974  0.83052  0.21955  1.0000
  H   H6416     1.0  0.78102  0.69816  0.21828  1.0000
  S   S1439     1.0  0.77080  0.75126  0.28365  1.0000
  H   H6417     1.0  0.91073  0.82952  0.19027  1.0000
  C   C5351     1.0  0.76432  0.82304  0.28616  1.0000
  S   S1440     1.0  0.76669  0.85819  0.23040  1.0000
  H   H6418     1.0  0.79133  0.66987  0.21019  1.0000
  H   H6419     1.0  0.80303  0.67958  0.21148  1.0000
  H   H6420     1.0  0.80398  0.66127  0.22137  1.0000
  C   C5352     1.0  0.80340  0.92619  0.18807  1.0000
  H   H6421     1.0  0.77164  0.66211  0.22139  1.0000
  C   C5353     1.0  0.74646  0.69882  0.31143  1.0000
  H   H6422     1.0  0.75794  0.64423  0.23581  1.0000
  H   H6423     1.0  0.75580  0.63663  0.26201  1.0000
  C   C5354     1.0  0.80556  0.80038  0.24146  1.0000
  H   H6424     1.0  0.77617  0.85957  0.28344  1.0000
  C   C5355     1.0  0.74259  0.84870  0.20482  1.0000
  C   C5356     1.0  0.75922  0.76730  0.27783  1.0000
  H   H6425     1.0  0.76566  0.79891  0.23766  1.0000
  C   C5357     1.0  0.74030  0.68705  0.31879  1.0000
  C   C5358     1.0  0.81508  0.78912  0.24823  1.0000
  C   C5359     1.0  0.78760  0.82218  0.22500  1.0000
  H   H6426     1.0  0.77434  0.76510  0.21411  1.0000
  H   H6427     1.0  0.78700  0.68570  0.24729  1.0000
  C   C5360     1.0  0.83853  0.72397  0.17998  1.0000
  C   C5361     1.0  0.85726  0.72662  0.19028  1.0000
  N   N358      1.0  0.78658  0.77474  0.19381  1.0000
  C   C5362     1.0  0.85090  0.71925  0.20404  1.0000
  H   H6428     1.0  0.73915  0.71058  0.22092  1.0000
  H   H6429     1.0  0.74147  0.55686  0.26359  1.0000
  C   C5363     1.0  0.74800  0.79211  0.27848  1.0000
  C   C5364     1.0  0.79486  0.77010  0.18039  1.0000
  Fe  Fe718     1.0  0.86845  0.78262  0.17783  1.0000
  H   H6430     1.0  0.75391  0.51257  0.22901  1.0000
  H   H6431     1.0  0.90714  0.85893  0.18175  1.0000
  H   H6432     1.0  0.73778  0.66668  0.31764  1.0000
  H   H6433     1.0  0.81559  0.80590  0.18934  1.0000
  C   C5365     1.0  0.85971  0.87578  0.17784  1.0000
  H   H6434     1.0  0.85749  0.86522  0.18064  1.0000
  H   H6435     1.0  0.74453  0.84306  0.30116  1.0000
  H   H6436     1.0  0.75430  0.54184  0.25786  1.0000
  C   C5366     1.0  0.74316  0.54808  0.25797  1.0000
  H   H6437     1.0  0.74039  0.73389  0.31805  1.0000
  H   H6438     1.0  0.74941  0.60078  0.37570  1.0000
  H   H6439     1.0  0.88968  0.84705  0.19709  1.0000
  C   C5367     1.0  0.77412  0.78631  0.19058  1.0000
  H   H6440     1.0  0.77727  0.79535  0.18181  1.0000
  H   H6441     1.0  0.74452  0.52542  0.28090  1.0000
  H   H6442     1.0  0.74592  0.74768  0.30355  1.0000
  C   C5368     1.0  0.74176  0.72942  0.22539  1.0000
  H   H6443     1.0  0.74273  0.86618  0.21348  1.0000
  H   H6444     1.0  0.80426  0.76133  0.18246  1.0000
  C   C5369     1.0  0.88089  0.85616  0.19406  1.0000
  C   C5370     1.0  0.73851  0.68078  0.25935  1.0000
  C   C5371     1.0  0.74483  0.52505  0.24528  1.0000
  H   H6445     1.0  0.83322  0.97981  0.18927  1.0000
  C   C5372     1.0  0.74595  0.51387  0.23881  1.0000
  C   C5373     1.0  0.89884  0.86861  0.17873  1.0000
  H   H6446     1.0  0.73674  0.86877  0.24073  1.0000
  H   H6447     1.0  0.74393  0.87153  0.17796  1.0000
  H   H6448     1.0  0.73694  0.76416  0.31890  1.0000
  C   C5374     1.0  0.73684  0.50440  0.24484  1.0000
  C   C5375     1.0  0.73678  0.74246  0.30906  1.0000
  H   H6449     1.0  0.73770  0.49578  0.23978  1.0000
  C   C5376     1.0  0.73649  0.86139  0.20970  1.0000
  H   H6450     1.0  0.83765  0.88600  0.17767  1.0000
  H   H6451     1.0  0.75004  0.57757  0.39386  1.0000
  C   C5377     1.0  0.74598  0.61608  0.53253  1.0000
  C   C5378     1.0  0.81862  0.73961  0.57473  1.0000
  C   C5379     1.0  0.83419  0.78782  0.56570  1.0000
  H   H6452     1.0  0.75351  0.64113  0.53077  1.0000
  C   C5380     1.0  0.84930  0.67969  0.57154  1.0000
  N   N359      1.0  0.79527  0.78715  0.56930  1.0000
  S   S1441     1.0  0.80488  0.70557  0.54949  1.0000
  C   C5381     1.0  0.74084  0.72680  0.49968  1.0000
  H   H6453     1.0  0.83908  0.70135  0.55205  1.0000
  H   H6454     1.0  0.74082  0.73426  0.48900  1.0000
  H   H6455     1.0  0.84545  0.67697  0.56336  1.0000
  H   H6456     1.0  0.79169  0.87040  0.56584  1.0000
  C   C5382     1.0  0.75035  0.60220  0.55601  1.0000
  C   C5383     1.0  0.75445  0.60509  0.54090  1.0000
  C   C5384     1.0  0.79082  0.65640  0.55008  1.0000
  Fe  Fe719     1.0  0.78328  0.71303  0.54402  1.0000
  S   S1442     1.0  0.78009  0.71743  0.52140  1.0000
  H   H6457     1.0  0.73938  0.57734  0.41175  1.0000
  H   H6458     1.0  0.75895  0.64157  0.54611  1.0000
  H   H6459     1.0  0.74186  0.75169  0.51627  1.0000
  S   S1443     1.0  0.75266  0.65139  0.47945  1.0000
  S   S1444     1.0  0.75176  0.62009  0.51365  1.0000
  S   S1445     1.0  0.80376  0.66904  0.57600  1.0000
  H   H6460     1.0  0.78827  0.85652  0.55975  1.0000
  C   C5385     1.0  0.78835  0.85997  0.56944  1.0000
  C   C5386     1.0  0.79548  0.67127  0.52630  1.0000
  H   H6461     1.0  0.83053  0.75509  0.56061  1.0000
  S   S1446     1.0  0.76269  0.68446  0.48503  1.0000
  C   C5387     1.0  0.74368  0.56649  0.57474  1.0000
  H   H6462     1.0  0.75345  0.85160  0.57237  1.0000
  H   H6463     1.0  0.84150  0.78612  0.57254  1.0000
  H   H6464     1.0  0.76889  0.64260  0.50753  1.0000
  C   C5388     1.0  0.78400  0.64872  0.54531  1.0000
  Fe  Fe720     1.0  0.79375  0.69227  0.56941  1.0000
  H   H6465     1.0  0.77428  0.80101  0.57087  1.0000
  H   H6466     1.0  0.76905  0.66027  0.50789  1.0000
  H   H6467     1.0  0.79334  0.78042  0.55105  1.0000
  C   C5389     1.0  0.78570  0.80141  0.56602  1.0000
  C   C5390     1.0  0.82937  0.79394  0.54206  1.0000
  H   H6468     1.0  0.86105  0.67866  0.56789  1.0000
  H   H6469     1.0  0.79309  0.62673  0.52365  1.0000
  H   H6470     1.0  0.80159  0.67372  0.54441  1.0000
  C   C5391     1.0  0.83881  0.79157  0.55086  1.0000
  H   H6471     1.0  0.76429  0.59892  0.53568  1.0000
  N   N360      1.0  0.77491  0.64421  0.52620  1.0000
  C   C5392     1.0  0.76380  0.87235  0.57206  1.0000
  H   H6472     1.0  0.79973  0.68021  0.51900  1.0000
  H   H6473     1.0  0.85493  0.70452  0.55452  1.0000
  Fe  Fe721     1.0  0.79798  0.72270  0.56231  1.0000
  Fe  Fe722     1.0  0.76854  0.71637  0.57431  1.0000
  H   H6474     1.0  0.74104  0.54152  0.57263  1.0000
  H   H6475     1.0  0.77636  0.62257  0.52494  1.0000
  H   H6476     1.0  0.78562  0.64749  0.50376  1.0000
  Fe  Fe723     1.0  0.74669  0.67085  0.48895  1.0000
  C   C5393     1.0  0.73741  0.55092  0.56426  1.0000
  C   C5394     1.0  0.77467  0.64889  0.51068  1.0000
  H   H6477     1.0  0.74670  0.71715  0.55722  1.0000
  H   H6478     1.0  0.84971  0.79270  0.54619  1.0000
  C   C5395     1.0  0.82018  0.78622  0.57185  1.0000
  C   C5396     1.0  0.77596  0.70625  0.51280  1.0000
  C   C5397     1.0  0.78162  0.70777  0.49805  1.0000
  C   C5398     1.0  0.77763  0.70065  0.49004  1.0000
  C   C5399     1.0  0.76759  0.69214  0.49649  1.0000
  C   C5400     1.0  0.76186  0.69039  0.51136  1.0000
  C   C5401     1.0  0.76621  0.69731  0.51956  1.0000
  H   H6479     1.0  0.78904  0.71470  0.49268  1.0000
  H   H6480     1.0  0.78213  0.70208  0.47861  1.0000
  H   H6481     1.0  0.75401  0.68392  0.51647  1.0000
  H   H6482     1.0  0.76170  0.69612  0.53095  1.0000
  H   H6483     1.0  0.80833  0.79474  0.54081  1.0000
  C   C5402     1.0  0.79648  0.66769  0.54061  1.0000
  C   C5403     1.0  0.74267  0.72532  0.53593  1.0000
  C   C5404     1.0  0.75990  0.64631  0.53444  1.0000
  H   H6484     1.0  0.75469  0.65789  0.53313  1.0000
  H   H6485     1.0  0.75190  0.72040  0.49942  1.0000
  H   H6486     1.0  0.83297  0.79694  0.53050  1.0000
  H   H6487     1.0  0.79169  0.65368  0.56120  1.0000
  H   H6488     1.0  0.76634  0.88310  0.56946  1.0000
  C   C5405     1.0  0.78876  0.66362  0.52138  1.0000
  H   H6489     1.0  0.76361  0.87029  0.56170  1.0000
  S   S1447     1.0  0.77273  0.69851  0.56306  1.0000
  H   H6490     1.0  0.78064  0.62380  0.54066  1.0000
  C   C5406     1.0  0.74165  0.71597  0.54943  1.0000
  H   H6491     1.0  0.73766  0.57671  0.54828  1.0000
  C   C5407     1.0  0.78269  0.65214  0.53081  1.0000
  H   H6492     1.0  0.74906  0.73310  0.53379  1.0000
  C   C5408     1.0  0.74307  0.60635  0.38449  1.0000
  H   H6493     1.0  0.75704  0.59388  0.56236  1.0000
  C   C5409     1.0  0.79174  0.77715  0.56290  1.0000
  H   H6494     1.0  0.79678  0.85202  0.57450  1.0000
  C   C5410     1.0  0.74471  0.58421  0.40201  1.0000
  H   H6495     1.0  0.75075  0.60972  0.38841  1.0000
  C   C5411     1.0  0.81029  0.78841  0.56319  1.0000
  H   H6496     1.0  0.77961  0.64018  0.55310  1.0000
  C   C5412     1.0  0.78157  0.62868  0.52902  1.0000
  S   S1448     1.0  0.77742  0.73157  0.55476  1.0000
  H   H6497     1.0  0.78823  0.66713  0.51019  1.0000
  H   H6498     1.0  0.74640  0.64264  0.44097  1.0000
  S   S1449     1.0  0.81208  0.73778  0.56065  1.0000
  C   C5413     1.0  0.74544  0.74463  0.50847  1.0000
  H   H6499     1.0  0.79840  0.76616  0.56548  1.0000
  H   H6500     1.0  0.75668  0.73873  0.50867  1.0000
  H   H6501     1.0  0.75355  0.56673  0.56609  1.0000
  H   H6502     1.0  0.78651  0.80561  0.55429  1.0000
  C   C5414     1.0  0.82787  0.74895  0.57147  1.0000
  H   H6503     1.0  0.83756  0.71544  0.56037  1.0000
  C   C5415     1.0  0.81529  0.79252  0.54809  1.0000
  H   H6504     1.0  0.75319  0.58713  0.40516  1.0000
  H   H6505     1.0  0.75176  0.63327  0.41890  1.0000
  Fe  Fe724     1.0  0.74094  0.64130  0.50129  1.0000
  C   C5416     1.0  0.73762  0.61015  0.56280  1.0000
  C   C5417     1.0  0.84355  0.70434  0.55959  1.0000
  H   H6506     1.0  0.78832  0.80936  0.57024  1.0000
  H   H6507     1.0  0.74565  0.75184  0.49763  1.0000
  N   N361      1.0  0.84202  0.69429  0.57387  1.0000
  H   H6508     1.0  0.74682  0.55173  0.55512  1.0000
  H   H6509     1.0  0.78035  0.77647  0.56690  1.0000
  C   C5418     1.0  0.73862  0.64576  0.43438  1.0000
  C   C5419     1.0  0.74164  0.64046  0.42182  1.0000
  H   H6510     1.0  0.85300  0.71831  0.57137  1.0000
  H   H6511     1.0  0.82190  0.69117  0.57281  1.0000
  Fe  Fe725     1.0  0.75778  0.55898  0.60756  1.0000
  H   H6512     1.0  0.89542  0.77214  0.75393  1.0000
  H   H6513     1.0  0.77155  0.68876  0.71762  1.0000
  H   H6514     1.0  0.86231  0.72310  0.58908  1.0000
  H   H6515     1.0  0.82072  0.70360  0.73208  1.0000
  S   S1450     1.0  0.92451  0.74754  0.73913  1.0000
  H   H6516     1.0  0.74392  0.89298  0.71008  1.0000
  S   S1451     1.0  0.78859  0.70865  0.58270  1.0000
  S   S1452     1.0  0.94732  0.76330  0.75447  1.0000
  Fe  Fe726     1.0  0.87468  0.70425  0.73436  1.0000
  S   S1453     1.0  0.85901  0.72521  0.73400  1.0000
  S   S1454     1.0  0.89097  0.69928  0.74782  1.0000
  Fe  Fe727     1.0  0.86084  0.69483  0.71560  1.0000
  S   S1455     1.0  0.84418  0.71524  0.71361  1.0000
  S   S1456     1.0  0.86253  0.67839  0.70308  1.0000
  Fe  Fe728     1.0  0.86193  0.72598  0.71076  1.0000
  S   S1457     1.0  0.86507  0.74622  0.69468  1.0000
  Fe  Fe729     1.0  0.84279  0.71256  0.73704  1.0000
  S   S1458     1.0  0.82254  0.71781  0.75305  1.0000
  S   S1459     1.0  0.87903  0.70592  0.71062  1.0000
  S   S1460     1.0  0.85808  0.69123  0.73951  1.0000
  Fe  Fe730     1.0  0.78413  0.66176  0.66544  1.0000
  S   S1461     1.0  0.78776  0.64308  0.68352  1.0000
  S   S1462     1.0  0.76160  0.67417  0.66967  1.0000
  Fe  Fe731     1.0  0.81451  0.65396  0.64949  1.0000
  S   S1463     1.0  0.82026  0.63446  0.66660  1.0000
  S   S1464     1.0  0.83042  0.65943  0.62909  1.0000
  Fe  Fe732     1.0  0.79909  0.63047  0.66659  1.0000
  S   S1465     1.0  0.79113  0.61040  0.66913  1.0000
  Fe  Fe733     1.0  0.80815  0.64937  0.68156  1.0000
  S   S1466     1.0  0.81124  0.65296  0.70200  1.0000
  S   S1467     1.0  0.79437  0.64900  0.64851  1.0000
  S   S1468     1.0  0.80370  0.66897  0.66435  1.0000
  Fe  Fe734     1.0  0.76725  0.58333  0.61372  1.0000
  H   H6517     1.0  0.88716  0.94489  0.67619  1.0000
  S   S1469     1.0  0.78577  0.59181  0.61471  1.0000
  C   C5420     1.0  0.84793  0.69775  0.58425  1.0000
  S   S1470     1.0  0.76102  0.56301  0.62752  1.0000
  H   H6518     1.0  0.86388  0.83218  0.66473  1.0000
  Fe  Fe735     1.0  0.92648  0.83001  0.67655  1.0000
  S   S1471     1.0  0.91374  0.84840  0.68681  1.0000
  S   S1472     1.0  0.95034  0.82165  0.67559  1.0000
  Fe  Fe736     1.0  0.89959  0.82153  0.67482  1.0000
  S   S1473     1.0  0.88517  0.83910  0.68542  1.0000
  S   S1474     1.0  0.88730  0.80638  0.67268  1.0000
  Fe  Fe737     1.0  0.89995  0.85291  0.67102  1.0000
  S   S1475     1.0  0.88895  0.87476  0.66023  1.0000
  Fe  Fe738     1.0  0.90004  0.83304  0.70022  1.0000
  S   S1476     1.0  0.89081  0.83296  0.72352  1.0000
  S   S1477     1.0  0.91380  0.83570  0.65926  1.0000
  S   S1478     1.0  0.91333  0.81429  0.69111  1.0000
  Fe  Fe739     1.0  0.82705  0.79297  0.61000  1.0000
  S   S1479     1.0  0.81499  0.81036  0.59540  1.0000
  Fe  Fe740     1.0  0.82684  0.77524  0.63992  1.0000
  S   S1480     1.0  0.84872  0.76194  0.63333  1.0000
  S   S1481     1.0  0.81462  0.77101  0.66274  1.0000
  Fe  Fe741     1.0  0.85430  0.78312  0.62108  1.0000
  S   S1482     1.0  0.87360  0.79175  0.62005  1.0000
  H   H6519     1.0  0.76979  0.78950  0.66398  1.0000
  S   S1483     1.0  0.83275  0.79629  0.62886  1.0000
  S   S1484     1.0  0.81867  0.77345  0.62194  1.0000
  Fe  Fe742     1.0  0.81629  0.94491  0.67724  1.0000
  S   S1485     1.0  0.81751  0.92861  0.69782  1.0000
  S   S1486     1.0  0.81044  0.94021  0.65885  1.0000
  Fe  Fe743     1.0  0.82570  0.96685  0.68736  1.0000
  S   S1487     1.0  0.82757  0.95198  0.70860  1.0000
  H   H6520     1.0  0.92486  0.83550  0.74187  1.0000
  Fe  Fe744     1.0  0.83795  0.93484  0.69586  1.0000
  S   S1488     1.0  0.85767  0.91855  0.70092  1.0000
  Fe  Fe745     1.0  0.80702  0.94729  0.70836  1.0000
  S   S1489     1.0  0.78832  0.94936  0.72712  1.0000
  S   S1490     1.0  0.83757  0.95004  0.67449  1.0000
  S   S1491     1.0  0.80433  0.96330  0.68785  1.0000
  H   H6521     1.0  0.77700  0.94444  0.70435  1.0000
  H   H6522     1.0  0.74855  0.59729  0.72174  1.0000
  Fe  Fe746     1.0  0.78803  0.87067  0.62860  1.0000
  S   S1492     1.0  0.80824  0.86861  0.61172  1.0000
  Fe  Fe747     1.0  0.77053  0.88537  0.65258  1.0000
  S   S1493     1.0  0.77024  0.89731  0.66912  1.0000
  H   H6523     1.0  0.76590  0.97889  0.71856  1.0000
  S   S1494     1.0  0.78682  0.86464  0.65230  1.0000
  C   C5421     1.0  0.76304  0.93008  0.70838  1.0000
  C   C5422     1.0  0.80010  0.92746  0.66180  1.0000
  C   C5423     1.0  0.79476  0.92014  0.67564  1.0000
  C   C5424     1.0  0.78599  0.91060  0.67770  1.0000
  C   C5425     1.0  0.78263  0.90809  0.66595  1.0000
  C   C5426     1.0  0.78854  0.91487  0.65206  1.0000
  C   C5427     1.0  0.79717  0.92458  0.65001  1.0000
  H   H6524     1.0  0.79702  0.92216  0.68481  1.0000
  H   H6525     1.0  0.78168  0.90531  0.68848  1.0000
  H   H6526     1.0  0.78603  0.91306  0.64292  1.0000
  H   H6527     1.0  0.80136  0.93010  0.63925  1.0000
  C   C5428     1.0  0.81414  0.82625  0.60000  1.0000
  C   C5429     1.0  0.80915  0.82742  0.61431  1.0000
  C   C5430     1.0  0.80740  0.84047  0.61793  1.0000
  C   C5431     1.0  0.81105  0.85221  0.60728  1.0000
  C   C5432     1.0  0.81655  0.85090  0.59302  1.0000
  C   C5433     1.0  0.81794  0.83793  0.58935  1.0000
  H   H6528     1.0  0.80636  0.81836  0.62256  1.0000
  H   H6529     1.0  0.80328  0.84145  0.62899  1.0000
  C   C5434     1.0  0.86643  0.90657  0.68942  1.0000
  C   C5435     1.0  0.86483  0.90988  0.67525  1.0000
  C   C5436     1.0  0.87216  0.90026  0.66624  1.0000
  C   C5437     1.0  0.88081  0.88712  0.67143  1.0000
  C   C5438     1.0  0.88248  0.88386  0.68557  1.0000
  C   C5439     1.0  0.87543  0.89363  0.69447  1.0000
  H   H6530     1.0  0.85811  0.91994  0.67120  1.0000
  H   H6531     1.0  0.87106  0.90296  0.65523  1.0000
  H   H6532     1.0  0.88910  0.87377  0.68970  1.0000
  H   H6533     1.0  0.87676  0.89102  0.70540  1.0000
  C   C5440     1.0  0.88324  0.80349  0.65758  1.0000
  C   C5441     1.0  0.87163  0.79721  0.65984  1.0000
  C   C5442     1.0  0.86843  0.79389  0.64841  1.0000
  C   C5443     1.0  0.87706  0.79632  0.63463  1.0000
  C   C5444     1.0  0.88868  0.80264  0.63233  1.0000
  C   C5445     1.0  0.89167  0.80637  0.64369  1.0000
  H   H6534     1.0  0.86503  0.79489  0.67052  1.0000
  H   H6535     1.0  0.85937  0.78931  0.65027  1.0000
  H   H6536     1.0  0.89546  0.80459  0.62170  1.0000
  H   H6537     1.0  0.90070  0.81111  0.64178  1.0000
  C   C5446     1.0  0.88725  0.95495  0.67895  1.0000
  C   C5447     1.0  0.76476  0.92200  0.75455  1.0000
  C   C5448     1.0  0.77088  0.93393  0.74818  1.0000
  C   C5449     1.0  0.78242  0.93353  0.73634  1.0000
  C   C5450     1.0  0.78849  0.92078  0.73155  1.0000
  C   C5451     1.0  0.78268  0.90865  0.73825  1.0000
  C   C5452     1.0  0.81523  0.73182  0.58886  1.0000
  H   H6538     1.0  0.76646  0.94351  0.75237  1.0000
  H   H6539     1.0  0.79751  0.92028  0.72260  1.0000
  H   H6540     1.0  0.78728  0.89886  0.73441  1.0000
  C   C5453     1.0  0.82249  0.66146  0.61487  1.0000
  C   C5454     1.0  0.82985  0.65442  0.60371  1.0000
  C   C5455     1.0  0.82375  0.65633  0.59206  1.0000
  C   C5456     1.0  0.81051  0.66568  0.59132  1.0000
  C   C5457     1.0  0.80307  0.67263  0.60254  1.0000
  C   C5458     1.0  0.80897  0.67035  0.61443  1.0000
  H   H6541     1.0  0.84024  0.64741  0.60415  1.0000
  H   H6542     1.0  0.79278  0.67976  0.60209  1.0000
  H   H6543     1.0  0.80324  0.67579  0.62307  1.0000
  C   C5459     1.0  0.78921  0.60592  0.65379  1.0000
  C   C5460     1.0  0.77839  0.59889  0.65506  1.0000
  C   C5461     1.0  0.77697  0.59477  0.64314  1.0000
  C   C5462     1.0  0.78664  0.59727  0.62993  1.0000
  C   C5463     1.0  0.79754  0.60413  0.62874  1.0000
  C   C5464     1.0  0.79867  0.60868  0.64050  1.0000
  H   H6544     1.0  0.77104  0.59665  0.66529  1.0000
  H   H6545     1.0  0.76858  0.58941  0.64425  1.0000
  H   H6546     1.0  0.80518  0.60597  0.61864  1.0000
  H   H6547     1.0  0.80714  0.61393  0.63940  1.0000
  C   C5465     1.0  0.85023  0.75467  0.68707  1.0000
  C   C5466     1.0  0.85216  0.76383  0.67354  1.0000
  C   C5467     1.0  0.84082  0.76955  0.66655  1.0000
  C   C5468     1.0  0.82755  0.76611  0.67300  1.0000
  C   C5469     1.0  0.82532  0.75763  0.68692  1.0000
  C   C5470     1.0  0.83670  0.75191  0.69398  1.0000
  H   H6548     1.0  0.86256  0.76606  0.66819  1.0000
  H   H6549     1.0  0.84242  0.77635  0.65596  1.0000
  H   H6550     1.0  0.81500  0.75507  0.69203  1.0000
  H   H6551     1.0  0.83499  0.74531  0.70470  1.0000
  C   C5471     1.0  0.84781  0.67213  0.70255  1.0000
  C   C5472     1.0  0.83458  0.67479  0.71207  1.0000
  C   C5473     1.0  0.82337  0.66904  0.71167  1.0000
  C   C5474     1.0  0.82516  0.66095  0.70151  1.0000
  C   C5475     1.0  0.83824  0.65871  0.69172  1.0000
  C   C5476     1.0  0.84955  0.66413  0.69235  1.0000
  H   H6552     1.0  0.83311  0.68093  0.71997  1.0000
  H   H6553     1.0  0.81331  0.67079  0.71934  1.0000
  H   H6554     1.0  0.83981  0.65236  0.68396  1.0000
  H   H6555     1.0  0.85974  0.66202  0.68496  1.0000
  C   C5477     1.0  0.91617  0.80565  0.75710  1.0000
  C   C5478     1.0  0.91946  0.80211  0.74368  1.0000
  C   C5479     1.0  0.91198  0.81063  0.73306  1.0000
  C   C5480     1.0  0.90085  0.82227  0.73612  1.0000
  C   C5481     1.0  0.89739  0.82550  0.74965  1.0000
  C   C5482     1.0  0.90522  0.81740  0.75999  1.0000
  H   H6556     1.0  0.92792  0.79299  0.74144  1.0000
  H   H6557     1.0  0.91469  0.80808  0.72262  1.0000
  H   H6558     1.0  0.88875  0.83444  0.75209  1.0000
  C   C5483     1.0  0.96413  0.79441  0.74149  1.0000
  C   C5484     1.0  0.91541  0.73395  0.74155  1.0000
  H   H6559     1.0  0.86817  0.95677  0.66437  1.0000
  H   H6560     1.0  0.79656  0.56805  0.65692  1.0000
  C   C5485     1.0  0.90070  0.71249  0.74484  1.0000
  C   C5486     1.0  0.89855  0.72519  0.73444  1.0000
  C   C5487     1.0  0.90600  0.73581  0.73271  1.0000
  H   H6561     1.0  0.79013  0.63134  0.61260  1.0000
  C   C5488     1.0  0.75734  0.69185  0.61731  1.0000
  H   H6562     1.0  0.89123  0.72677  0.72766  1.0000
  H   H6563     1.0  0.90436  0.74553  0.72456  1.0000
  C   C5489     1.0  0.85863  0.71327  0.59140  1.0000
  C   C5490     1.0  0.76271  0.61663  0.70374  1.0000
  C   C5491     1.0  0.98600  0.80295  0.73119  1.0000
  C   C5492     1.0  0.75116  0.66130  0.67593  1.0000
  C   C5493     1.0  0.75626  0.64830  0.67152  1.0000
  C   C5494     1.0  0.77816  0.83528  0.59304  1.0000
  H   H6564     1.0  0.83530  0.66771  0.76292  1.0000
  Fe  Fe748     1.0  0.76856  0.85525  0.65342  1.0000
  H   H6565     1.0  0.76641  0.64631  0.66414  1.0000
  C   C5495     1.0  0.73989  0.63191  0.76455  1.0000
  C   C5496     1.0  0.73765  0.82688  0.67904  1.0000
  S   S1495     1.0  0.74554  0.67814  0.77297  1.0000
  C   C5497     1.0  0.80812  0.71418  0.74917  1.0000
  C   C5498     1.0  0.81016  0.70688  0.73836  1.0000
  Fe  Fe749     1.0  0.84086  0.76167  0.61428  1.0000
  C   C5499     1.0  0.73904  0.84560  0.65742  1.0000
  H   H6566     1.0  0.79383  0.97861  0.72643  1.0000
  C   C5500     1.0  0.95032  0.84251  0.72495  1.0000
  C   C5501     1.0  0.95890  0.84640  0.67413  1.0000
  C   C5502     1.0  0.96250  0.83150  0.67591  1.0000
  C   C5503     1.0  0.77050  0.84679  0.58407  1.0000
  H   H6567     1.0  0.76598  0.64701  0.59867  1.0000
  N   N362      1.0  0.90333  0.75986  0.67864  1.0000
  H   H6568     1.0  0.94851  0.85229  0.67218  1.0000
  H   H6569     1.0  0.87094  0.79725  0.74467  1.0000
  H   H6570     1.0  0.79213  0.51867  0.63392  1.0000
  H   H6571     1.0  0.78129  0.55052  0.66346  1.0000
  C   C5504     1.0  0.77062  0.90938  0.74954  1.0000
  C   C5505     1.0  0.86850  0.96709  0.66641  1.0000
  S   S1496     1.0  0.77284  0.89200  0.62858  1.0000
  N   N363      1.0  0.73987  0.97051  0.73301  1.0000
  H   H6572     1.0  0.74688  0.61136  0.73017  1.0000
  C   C5506     1.0  0.97616  0.82407  0.67817  1.0000
  C   C5507     1.0  0.74034  0.66902  0.72115  1.0000
  H   H6573     1.0  0.74905  0.84211  0.69606  1.0000
  C   C5508     1.0  0.82963  0.89115  0.69369  1.0000
  C   C5509     1.0  0.83270  0.88750  0.70730  1.0000
  H   H6574     1.0  0.84743  0.87016  0.66005  1.0000
  H   H6575     1.0  0.82007  0.89918  0.69208  1.0000
  H   H6576     1.0  0.82577  0.89287  0.71566  1.0000
  H   H6577     1.0  0.84729  0.87451  0.72060  1.0000
  C   C5510     1.0  0.74919  0.76817  0.59215  1.0000
  C   C5511     1.0  0.75785  0.68224  0.63046  1.0000
  C   C5512     1.0  0.80684  0.56323  0.63622  1.0000
  C   C5513     1.0  0.82661  0.69474  0.57972  1.0000
  C   C5514     1.0  0.74175  0.80454  0.63257  1.0000
  S   S1497     1.0  0.76621  0.57823  0.59331  1.0000
  H   H6578     1.0  0.77092  0.73699  0.58469  1.0000
  N   N364      1.0  0.76592  0.66834  0.72148  1.0000
  C   C5515     1.0  0.76998  0.65658  0.71370  1.0000
  C   C5516     1.0  0.77296  0.68002  0.71210  1.0000
  C   C5517     1.0  0.77171  0.66271  0.73467  1.0000
  C   C5518     1.0  0.75031  0.67396  0.72526  1.0000
  H   H6579     1.0  0.74594  0.89703  0.73129  1.0000
  C   C5519     1.0  0.85320  0.71035  0.58128  1.0000
  H   H6580     1.0  0.76670  0.66034  0.70320  1.0000
  H   H6581     1.0  0.78174  0.65247  0.71118  1.0000
  H   H6582     1.0  0.76527  0.64729  0.72021  1.0000
  H   H6583     1.0  0.76863  0.68482  0.70222  1.0000
  H   H6584     1.0  0.78470  0.67605  0.70861  1.0000
  H   H6585     1.0  0.76630  0.65430  0.74232  1.0000
  H   H6586     1.0  0.78338  0.65795  0.73214  1.0000
  H   H6587     1.0  0.77048  0.67122  0.74042  1.0000
  H   H6588     1.0  0.74354  0.66078  0.71507  1.0000
  H   H6589     1.0  0.88091  0.96806  0.70311  1.0000
  N   N365      1.0  0.80023  0.53662  0.61919  1.0000
  C   C5520     1.0  0.81487  0.52769  0.61629  1.0000
  C   C5521     1.0  0.79013  0.52688  0.62408  1.0000
  C   C5522     1.0  0.79908  0.54503  0.62976  1.0000
  C   C5523     1.0  0.80770  0.55516  0.62646  1.0000
  C   C5524     1.0  0.78963  0.54343  0.64352  1.0000
  H   H6590     1.0  0.81319  0.57125  0.63328  1.0000
  C   C5525     1.0  0.78881  0.55163  0.65317  1.0000
  N   N366      1.0  0.74693  0.91318  0.71138  1.0000
  H   H6591     1.0  0.78675  0.55387  0.60740  1.0000
  H   H6592     1.0  0.77438  0.50901  0.59543  1.0000
  H   H6593     1.0  0.79097  0.52098  0.61577  1.0000
  H   H6594     1.0  0.76321  0.90100  0.72315  1.0000
  H   H6595     1.0  0.77884  0.53295  0.62620  1.0000
  H   H6596     1.0  0.81500  0.55715  0.61618  1.0000
  H   H6597     1.0  0.78251  0.53616  0.64699  1.0000
  C   C5526     1.0  0.74909  0.90192  0.70339  1.0000
  H   H6598     1.0  0.78086  0.78288  0.62783  1.0000
  C   C5527     1.0  0.75360  0.93085  0.68822  1.0000
  C   C5528     1.0  0.92405  0.84526  0.73303  1.0000
  H   H6599     1.0  0.88078  0.76857  0.68043  1.0000
  S   S1498     1.0  0.76636  0.53723  0.60131  1.0000
  H   H6600     1.0  0.81936  0.72630  0.61011  1.0000
  H   H6601     1.0  0.90263  0.82014  0.77035  1.0000
  N   N367      1.0  0.83960  0.71833  0.66940  1.0000
  C   C5529     1.0  0.84162  0.73280  0.66112  1.0000
  C   C5530     1.0  0.82764  0.72018  0.68201  1.0000
  C   C5531     1.0  0.85286  0.71066  0.67454  1.0000
  C   C5532     1.0  0.83655  0.70989  0.66096  1.0000
  C   C5533     1.0  0.83455  0.69576  0.66736  1.0000
  C   C5534     1.0  0.83554  0.71524  0.64633  1.0000
  C   C5535     1.0  0.83197  0.68741  0.65959  1.0000
  C   C5536     1.0  0.83286  0.70682  0.63869  1.0000
  C   C5537     1.0  0.83109  0.69293  0.64529  1.0000
  H   H6602     1.0  0.83176  0.73956  0.65758  1.0000
  H   H6603     1.0  0.84426  0.73869  0.66766  1.0000
  H   H6604     1.0  0.85064  0.73217  0.65158  1.0000
  H   H6605     1.0  0.81736  0.72533  0.67861  1.0000
  H   H6606     1.0  0.82927  0.72705  0.68824  1.0000
  H   H6607     1.0  0.82641  0.70983  0.68967  1.0000
  H   H6608     1.0  0.85181  0.70021  0.68196  1.0000
  H   H6609     1.0  0.86201  0.70847  0.66543  1.0000
  H   H6610     1.0  0.85581  0.71688  0.68056  1.0000
  H   H6611     1.0  0.83502  0.69101  0.67845  1.0000
  H   H6612     1.0  0.83678  0.72590  0.64050  1.0000
  H   H6613     1.0  0.83065  0.67658  0.66470  1.0000
  H   H6614     1.0  0.83219  0.71111  0.62755  1.0000
  H   H6615     1.0  0.82900  0.68642  0.63933  1.0000
  C   C5538     1.0  0.77488  0.86586  0.59205  1.0000
  H   H6616     1.0  0.82595  0.91119  0.66957  1.0000
  C   C5539     1.0  0.87340  0.84826  0.64861  1.0000
  H   H6617     1.0  0.90616  0.77095  0.72151  1.0000
  N   N368      1.0  0.85419  0.83898  0.61934  1.0000
  C   C5540     1.0  0.84530  0.85234  0.61243  1.0000
  C   C5541     1.0  0.86574  0.83308  0.60807  1.0000
  C   C5542     1.0  0.84493  0.82847  0.62609  1.0000
  C   C5543     1.0  0.86054  0.84210  0.62960  1.0000
  C   C5544     1.0  0.86914  0.85243  0.62486  1.0000
  C   C5545     1.0  0.85874  0.83492  0.64432  1.0000
  H   H6618     1.0  0.85151  0.86055  0.60607  1.0000
  H   H6619     1.0  0.84022  0.85031  0.60480  1.0000
  H   H6620     1.0  0.83656  0.85723  0.62056  1.0000
  H   H6621     1.0  0.87242  0.84084  0.60152  1.0000
  H   H6622     1.0  0.86144  0.82991  0.60052  1.0000
  H   H6623     1.0  0.87295  0.82331  0.61290  1.0000
  H   H6624     1.0  0.83592  0.83224  0.63466  1.0000
  H   H6625     1.0  0.84009  0.82664  0.61813  1.0000
  H   H6626     1.0  0.85110  0.81779  0.63068  1.0000
  H   H6627     1.0  0.87128  0.85809  0.61377  1.0000
  H   H6628     1.0  0.85277  0.82660  0.64887  1.0000
  C   C5546     1.0  0.82663  0.67714  0.76514  1.0000
  C   C5547     1.0  0.88847  0.77045  0.74782  1.0000
  H   H6629     1.0  0.89346  0.75971  0.74540  1.0000
  H   H6630     1.0  0.86167  0.94788  0.68977  1.0000
  C   C5548     1.0  0.86507  0.83805  0.65363  1.0000
  H   H6631     1.0  0.90979  0.78162  0.73126  1.0000
  C   C5549     1.0  0.79733  0.54643  0.60552  1.0000
  H   H6632     1.0  0.82304  0.53428  0.61141  1.0000
  C   C5550     1.0  0.74153  0.61695  0.76902  1.0000
  H   H6633     1.0  0.84386  0.88578  0.64628  1.0000
  H   H6634     1.0  0.88855  0.79671  0.74615  1.0000
  C   C5551     1.0  0.84649  0.88196  0.65708  1.0000
  H   H6635     1.0  0.87780  0.77025  0.75514  1.0000
  S   S1499     1.0  0.84894  0.78134  0.60105  1.0000
  H   H6636     1.0  0.85716  0.88414  0.65580  1.0000
  S   S1500     1.0  0.91568  0.75918  0.77419  1.0000
  C   C5552     1.0  0.75941  0.97837  0.71177  1.0000
  H   H6637     1.0  0.78082  0.78053  0.58934  1.0000
  H   H6638     1.0  0.81603  0.52089  0.60868  1.0000
  H   H6639     1.0  0.95228  0.79472  0.72634  1.0000
  C   C5553     1.0  0.73901  0.97315  0.70735  1.0000
  C   C5554     1.0  0.88234  0.79576  0.73889  1.0000
  C   C5555     1.0  0.90207  0.78115  0.72533  1.0000
  C   C5556     1.0  0.84478  0.87714  0.71012  1.0000
  N   N369      1.0  0.88750  0.78179  0.73452  1.0000
  H   H6640     1.0  0.79723  0.79893  0.64571  1.0000
  H   H6641     1.0  0.77467  0.63819  0.64032  1.0000
  C   C5557     1.0  0.77491  0.82173  0.59748  1.0000
  H   H6642     1.0  0.77042  0.62571  0.63351  1.0000
  H   H6643     1.0  0.80535  0.55311  0.60018  1.0000
  S   S1501     1.0  0.98082  0.74320  0.76967  1.0000
  C   C5558     1.0  0.91813  0.77220  0.68587  1.0000
  H   H6644     1.0  0.79716  0.54050  0.59761  1.0000
  H   H6645     1.0  0.82208  0.87413  0.67307  1.0000
  H   H6646     1.0  0.88333  0.80504  0.72964  1.0000
  H   H6647     1.0  0.76948  0.66873  0.59518  1.0000
  C   C5559     1.0  0.76961  0.94611  0.68554  1.0000
  H   H6648     1.0  0.75496  0.68621  0.64024  1.0000
  H   H6649     1.0  0.78116  0.58497  0.71989  1.0000
  C   C5560     1.0  0.76788  0.63727  0.63364  1.0000
  H   H6650     1.0  0.90242  0.79010  0.71569  1.0000
  H   H6651     1.0  0.75240  0.62766  0.67328  1.0000
  S   S1502     1.0  0.84102  0.74112  0.60864  1.0000
  S   S1503     1.0  0.73879  0.88687  0.61881  1.0000
  C   C5561     1.0  0.73988  0.81671  0.72527  1.0000
  C   C5562     1.0  0.87781  0.73114  0.77193  1.0000
  C   C5563     1.0  0.83881  0.88475  0.68234  1.0000
  C   C5564     1.0  0.82169  0.73275  0.59937  1.0000
  Fe  Fe750     1.0  0.73868  0.57622  0.62934  1.0000
  C   C5565     1.0  0.96926  0.78687  0.76973  1.0000
  H   H6652     1.0  0.92387  0.85922  0.70667  1.0000
  N   N370      1.0  0.77063  0.64637  0.61891  1.0000
  N   N371      1.0  0.83551  0.88916  0.66790  1.0000
  H   H6653     1.0  0.78533  0.59530  0.70182  1.0000
  C   C5566     1.0  0.83122  0.74183  0.59601  1.0000
  H   H6654     1.0  0.80780  0.72491  0.59168  1.0000
  C   C5567     1.0  0.79213  0.62390  0.73309  1.0000
  C   C5568     1.0  0.87813  0.97802  0.69561  1.0000
  C   C5569     1.0  0.93438  0.85719  0.70947  1.0000
  C   C5570     1.0  0.76564  0.80040  0.63711  1.0000
  H   H6655     1.0  0.76070  0.94544  0.66854  1.0000
  H   H6656     1.0  0.93475  0.86680  0.71285  1.0000
  H   H6657     1.0  0.91857  0.73630  0.69586  1.0000
  C   C5571     1.0  0.79741  0.56149  0.64954  1.0000
  H   H6658     1.0  0.89549  0.96001  0.67057  1.0000
  H   H6659     1.0  0.76427  0.92630  0.71932  1.0000
  C   C5572     1.0  0.82172  0.88578  0.66884  1.0000
  H   H6660     1.0  0.81880  0.88894  0.65819  1.0000
  C   C5573     1.0  0.87540  0.85547  0.63427  1.0000
  H   H6661     1.0  0.86295  0.79865  0.69736  1.0000
  C   C5574     1.0  0.97659  0.79696  0.74362  1.0000
  C   C5575     1.0  0.87376  0.97837  0.68309  1.0000
  S   S1504     1.0  0.77168  0.85879  0.62965  1.0000
  H   H6662     1.0  0.75851  0.81810  0.70815  1.0000
  C   C5576     1.0  0.75155  0.90581  0.72505  1.0000
  H   H6663     1.0  0.74511  0.85211  0.64860  1.0000
  N   N372      1.0  0.87305  0.96491  0.68001  1.0000
  C   C5577     1.0  0.77645  0.59289  0.71114  1.0000
  H   H6664     1.0  0.82451  0.68778  0.59060  1.0000
  C   C5578     1.0  0.88939  0.76727  0.68604  1.0000
  H   H6665     1.0  0.75556  0.92254  0.76342  1.0000
  H   H6666     1.0  0.79304  0.61379  0.70307  1.0000
  H   H6667     1.0  0.96913  0.80495  0.70515  1.0000
  H   H6668     1.0  0.85269  0.77716  0.70398  1.0000
  C   C5579     1.0  0.74791  0.82361  0.71273  1.0000
  C   C5580     1.0  0.74558  0.83559  0.66797  1.0000
  H   H6669     1.0  0.87454  0.75884  0.73813  1.0000
  C   C5581     1.0  0.87796  0.78028  0.72629  1.0000
  N   N373      1.0  0.76745  0.60593  0.71616  1.0000
  C   C5582     1.0  0.78890  0.61547  0.71390  1.0000
  C   C5583     1.0  0.83430  0.90483  0.66243  1.0000
  C   C5584     1.0  0.85095  0.87403  0.68566  1.0000
  C   C5585     1.0  0.85378  0.87030  0.69939  1.0000
  H   H6670     1.0  0.84444  0.90787  0.66140  1.0000
  C   C5586     1.0  0.76058  0.78601  0.62348  1.0000
  Fe  Fe751     1.0  0.75617  0.87952  0.63144  1.0000
  Fe  Fe752     1.0  0.73938  0.90260  0.76691  1.0000
  H   H6671     1.0  0.76237  0.66075  0.64167  1.0000
  C   C5587     1.0  0.93457  0.75929  0.70131  1.0000
  S   S1505     1.0  0.75011  0.78590  0.59068  1.0000
  H   H6672     1.0  0.81274  0.89155  0.67605  1.0000
  H   H6673     1.0  0.83148  0.90864  0.65172  1.0000
  H   H6674     1.0  0.80693  0.62387  0.71272  1.0000
  C   C5588     1.0  0.77578  0.61198  0.72222  1.0000
  H   H6675     1.0  0.89379  0.74629  0.67235  1.0000
  C   C5589     1.0  0.78495  0.70691  0.74462  1.0000
  H   H6676     1.0  0.77561  0.62253  0.75237  1.0000
  C   C5590     1.0  0.77039  0.94066  0.69987  1.0000
  Fe  Fe753     1.0  0.95668  0.74748  0.77233  1.0000
  C   C5591     1.0  0.86535  0.79017  0.70651  1.0000
  H   H6677     1.0  0.87852  0.85047  0.65577  1.0000
  C   C5592     1.0  0.79693  0.62130  0.71930  1.0000
  C   C5593     1.0  0.76301  0.64230  0.61033  1.0000
  N   N374      1.0  0.93670  0.84408  0.72092  1.0000
  C   C5594     1.0  0.92820  0.77208  0.69321  1.0000
  H   H6678     1.0  0.84731  0.67125  0.58141  1.0000
  C   C5595     1.0  0.78096  0.97680  0.74741  1.0000
  H   H6679     1.0  0.79349  0.78925  0.59080  1.0000
  H   H6680     1.0  0.88207  0.86328  0.63043  1.0000
  H   H6681     1.0  0.87905  0.80062  0.71071  1.0000
  H   H6682     1.0  0.88872  0.73326  0.76927  1.0000
  H   H6683     1.0  0.76407  0.77744  0.61770  1.0000
  C   C5596     1.0  0.86268  0.95795  0.69179  1.0000
  H   H6684     1.0  0.76495  0.82654  0.64152  1.0000
  H   H6685     1.0  0.94572  0.83044  0.70552  1.0000
  C   C5597     1.0  0.85360  0.69157  0.60805  1.0000
  C   C5598     1.0  0.90658  0.76785  0.66349  1.0000
  C   C5599     1.0  0.76110  0.94134  0.67977  1.0000
  C   C5600     1.0  0.92103  0.74652  0.69458  1.0000
  C   C5601     1.0  0.87216  0.76795  0.72956  1.0000
  H   H6686     1.0  0.95852  0.79423  0.77079  1.0000
  H   H6687     1.0  0.74571  0.65058  0.76650  1.0000
  H   H6688     1.0  0.75916  0.80738  0.66294  1.0000
  Fe  Fe754     1.0  0.93257  0.74877  0.75780  1.0000
  H   H6689     1.0  0.79233  0.64569  0.61883  1.0000
  H   H6690     1.0  0.85866  0.86860  0.67780  1.0000
  H   H6691     1.0  0.95618  0.79016  0.75027  1.0000
  H   H6692     1.0  0.85064  0.67565  0.77017  1.0000
  H   H6693     1.0  0.85753  0.97391  0.66675  1.0000
  H   H6694     1.0  0.77200  0.76067  0.58658  1.0000
  H   H6695     1.0  0.85357  0.68435  0.61850  1.0000
  H   H6696     1.0  0.74645  0.55777  0.58400  1.0000
  H   H6697     1.0  0.94256  0.85649  0.69933  1.0000
  C   C5602     1.0  0.75453  0.60190  0.72655  1.0000
  C   C5603     1.0  0.73678  0.86201  0.61204  1.0000
  C   C5604     1.0  0.85879  0.70395  0.60476  1.0000
  C   C5605     1.0  0.79448  0.71798  0.75756  1.0000
  C   C5606     1.0  0.77118  0.61478  0.73626  1.0000
  H   H6698     1.0  0.74454  0.90591  0.69367  1.0000
  C   C5607     1.0  0.76285  0.51187  0.59815  1.0000
  H   H6699     1.0  0.78102  0.81313  0.60423  1.0000
  C   C5608     1.0  0.84820  0.68851  0.59801  1.0000
  H   H6700     1.0  0.96451  0.84226  0.75277  1.0000
  H   H6701     1.0  0.76063  0.89723  0.69988  1.0000
  C   C5609     1.0  0.98112  0.80644  0.76145  1.0000
  H   H6702     1.0  0.79109  0.78412  0.64513  1.0000
  C   C5610     1.0  0.87454  0.79121  0.71429  1.0000
  C   C5611     1.0  0.78615  0.64292  0.61267  1.0000
  H   H6703     1.0  0.91216  0.73912  0.67334  1.0000
  H   H6704     1.0  0.75605  0.62672  0.70690  1.0000
  C   C5612     1.0  0.90189  0.74548  0.67843  1.0000
  C   C5613     1.0  0.86307  0.76698  0.72161  1.0000
  Fe  Fe755     1.0  0.74342  0.59017  0.59761  1.0000
  H   H6705     1.0  0.73910  0.79091  0.62058  1.0000
  H   H6706     1.0  0.97917  0.81258  0.67926  1.0000
  H   H6707     1.0  0.96353  0.84114  0.70367  1.0000
  H   H6708     1.0  0.77587  0.95381  0.67881  1.0000
  C   C5614     1.0  0.96413  0.84191  0.74209  1.0000
  H   H6709     1.0  0.84402  0.67892  0.60126  1.0000
  H   H6710     1.0  0.77650  0.87702  0.58912  1.0000
  C   C5615     1.0  0.85958  0.77810  0.71020  1.0000
  H   H6711     1.0  0.88621  0.76118  0.69723  1.0000
  S   S1506     1.0  0.77083  0.70052  0.74353  1.0000
  C   C5616     1.0  0.75499  0.50214  0.59807  1.0000
  H   H6712     1.0  0.81742  0.78329  0.58343  1.0000
  C   C5617     1.0  0.77007  0.80102  0.65958  1.0000
  S   S1507     1.0  0.75202  0.87542  0.65549  1.0000
  H   H6713     1.0  0.94185  0.84326  0.74773  1.0000
  C   C5618     1.0  0.75593  0.52523  0.60167  1.0000
  H   H6714     1.0  0.76048  0.49195  0.59528  1.0000
  H   H6715     1.0  0.85882  0.75746  0.72415  1.0000
  S   S1508     1.0  0.94356  0.73173  0.77383  1.0000
  C   C5619     1.0  0.75649  0.83014  0.58399  1.0000
  C   C5620     1.0  0.77928  0.62064  0.74156  1.0000
  H   H6716     1.0  0.78386  0.85925  0.59712  1.0000
  H   H6717     1.0  0.91315  0.78249  0.68013  1.0000
  H   H6718     1.0  0.87736  0.72680  0.76297  1.0000
  H   H6719     1.0  0.86192  0.71280  0.76980  1.0000
  H   H6720     1.0  0.79843  0.62842  0.73719  1.0000
  H   H6721     1.0  0.80017  0.69739  0.72788  1.0000
  C   C5621     1.0  0.76586  0.67205  0.60529  1.0000
  H   H6722     1.0  0.76141  0.61242  0.74344  1.0000
  H   H6723     1.0  0.91743  0.76315  0.65778  1.0000
  H   H6724     1.0  0.78289  0.82251  0.64309  1.0000
  H   H6725     1.0  0.92478  0.71973  0.75881  1.0000
  C   C5622     1.0  0.77011  0.78930  0.62936  1.0000
  H   H6726     1.0  0.75013  0.94837  0.73369  1.0000
  H   H6727     1.0  0.75629  0.61252  0.69894  1.0000
  C   C5623     1.0  0.95112  0.84257  0.73899  1.0000
  C   C5624     1.0  0.96331  0.84138  0.71449  1.0000
  C   C5625     1.0  0.97623  0.84075  0.71768  1.0000
  C   C5626     1.0  0.98329  0.80583  0.71749  1.0000
  C   C5627     1.0  0.93727  0.83152  0.71542  1.0000
  H   H6728     1.0  0.98364  0.80408  0.77221  1.0000
  H   H6729     1.0  0.91401  0.84640  0.72961  1.0000
  C   C5628     1.0  0.76135  0.68675  0.60477  1.0000
  H   H6730     1.0  0.88957  0.77812  0.68668  1.0000
  H   H6731     1.0  0.75125  0.64574  0.61399  1.0000
  C   C5629     1.0  0.79025  0.79583  0.64064  1.0000
  S   S1509     1.0  0.76331  0.83484  0.66787  1.0000
  C   C5630     1.0  0.74465  0.68499  0.73306  1.0000
  C   C5631     1.0  0.76601  0.66192  0.61856  1.0000
  H   H6732     1.0  0.86575  0.95492  0.70232  1.0000
  H   H6733     1.0  0.86996  0.74156  0.77177  1.0000
  H   H6734     1.0  0.85195  0.96523  0.69300  1.0000
  H   H6735     1.0  0.92255  0.85484  0.73737  1.0000
  H   H6736     1.0  0.92707  0.83223  0.71257  1.0000
  C   C5632     1.0  0.91028  0.71054  0.75351  1.0000
  H   H6737     1.0  0.97092  0.81457  0.76153  1.0000
  C   C5633     1.0  0.91744  0.72132  0.75205  1.0000
  C   C5634     1.0  0.75471  0.92452  0.70267  1.0000
  C   C5635     1.0  0.97666  0.84101  0.73145  1.0000
  H   H6738     1.0  0.89800  0.73932  0.68942  1.0000
  C   C5636     1.0  0.91436  0.75938  0.68615  1.0000
  C   C5637     1.0  0.97116  0.80286  0.71577  1.0000
  H   H6739     1.0  0.96603  0.86528  0.67311  1.0000
  H   H6740     1.0  0.86267  0.70651  0.61266  1.0000
  H   H6741     1.0  0.94212  0.75922  0.70731  1.0000
  C   C5638     1.0  0.96886  0.85374  0.67462  1.0000
  Fe  Fe756     1.0  0.93128  0.77232  0.77212  1.0000
  H   H6742     1.0  0.74182  0.85577  0.62081  1.0000
  H   H6743     1.0  0.93100  0.78199  0.69273  1.0000
  H   H6744     1.0  0.93569  0.73670  0.70869  1.0000
  H   H6745     1.0  0.76725  0.97756  0.76835  1.0000
  Fe  Fe757     1.0  0.76191  0.69130  0.76644  1.0000
  H   H6746     1.0  0.74272  0.81887  0.68702  1.0000
  H   H6747     1.0  0.90602  0.77934  0.66255  1.0000
  C   C5639     1.0  0.98241  0.84626  0.67720  1.0000
  S   S1510     1.0  0.92597  0.79605  0.77021  1.0000
  H   H6748     1.0  0.76480  0.86568  0.60040  1.0000
  H   H6749     1.0  0.81763  0.52048  0.62638  1.0000
  C   C5640     1.0  0.77553  0.81947  0.63847  1.0000
  C   C5641     1.0  0.76176  0.75803  0.58880  1.0000
  H   H6750     1.0  0.93927  0.82144  0.72363  1.0000
  H   H6751     1.0  0.74096  0.71477  0.75528  1.0000
  H   H6752     1.0  0.77180  0.61947  0.69491  1.0000
  H   H6753     1.0  0.75901  0.96650  0.74076  1.0000
  N   N375      1.0  0.98004  0.79335  0.75793  1.0000
  H   H6754     1.0  0.75728  0.59379  0.73622  1.0000
  C   C5642     1.0  0.93097  0.74656  0.70201  1.0000
  H   H6755     1.0  0.79494  0.79771  0.62890  1.0000
  H   H6756     1.0  0.89875  0.76782  0.65745  1.0000
  H   H6757     1.0  0.83061  0.68709  0.75964  1.0000
  C   C5643     1.0  0.74228  0.83752  0.70582  1.0000
  H   H6758     1.0  0.74722  0.92752  0.68316  1.0000
  C   C5644     1.0  0.79853  0.70336  0.73598  1.0000
  H   H6759     1.0  0.77022  0.58759  0.70735  1.0000
  H   H6760     1.0  0.75158  0.68940  0.73637  1.0000
  H   H6761     1.0  0.86329  0.86237  0.70162  1.0000
  H   H6762     1.0  0.82947  0.65087  0.58345  1.0000
  C   C5645     1.0  0.74833  0.63769  0.67675  1.0000
  H   H6763     1.0  0.88411  0.70250  0.77688  1.0000
  C   C5646     1.0  0.76212  0.66750  0.63114  1.0000
  C   C5647     1.0  0.75114  0.80789  0.63856  1.0000
  H   H6764     1.0  0.91219  0.70063  0.76140  1.0000
  S   S1511     1.0  0.74505  0.59676  0.61684  1.0000
  C   C5648     1.0  0.78294  0.71427  0.75535  1.0000
  S   S1512     1.0  0.76228  0.89487  0.75665  1.0000
  H   H6765     1.0  0.96834  0.77658  0.76809  1.0000
  H   H6766     1.0  0.76109  0.69431  0.59459  1.0000
  H   H6767     1.0  0.77700  0.80371  0.66502  1.0000
  C   C5649     1.0  0.79207  0.78175  0.58513  1.0000
  H   H6768     1.0  0.82061  0.70576  0.58066  1.0000
  H   H6769     1.0  0.76561  0.63048  0.61124  1.0000
  H   H6770     1.0  0.78681  0.83666  0.59659  1.0000
  C   C5650     1.0  0.74645  0.79359  0.62509  1.0000
  H   H6771     1.0  0.81813  0.67734  0.75982  1.0000
  H   H6772     1.0  0.74118  0.86597  0.69074  1.0000
  N   N376      1.0  0.77528  0.80404  0.64376  1.0000
  H   H6773     1.0  0.78313  0.96520  0.74934  1.0000
  H   H6774     1.0  0.77898  0.82227  0.62658  1.0000
  H   H6775     1.0  0.74687  0.81628  0.64453  1.0000
  H   H6776     1.0  0.79290  0.72354  0.76599  1.0000
  C   C5651     1.0  0.74799  0.74078  0.59084  1.0000
  H   H6777     1.0  0.77247  0.71709  0.76198  1.0000
  C   C5652     1.0  0.74006  0.50571  0.60138  1.0000
  H   H6778     1.0  0.75649  0.64001  0.63924  1.0000
  H   H6779     1.0  0.75396  0.70329  0.61679  1.0000
  C   C5653     1.0  0.74100  0.52874  0.60512  1.0000
  C   C5654     1.0  0.96163  0.79715  0.72773  1.0000
  H   H6780     1.0  0.74665  0.73266  0.73299  1.0000
  C   C5655     1.0  0.74669  0.63916  0.77015  1.0000
  H   H6781     1.0  0.74916  0.91317  0.73236  1.0000
  H   H6782     1.0  0.89084  0.95156  0.68924  1.0000
  H   H6783     1.0  0.78888  0.64890  0.60136  1.0000
  H   H6784     1.0  0.76122  0.80882  0.59673  1.0000
  C   C5656     1.0  0.73818  0.66356  0.68589  1.0000
  H   H6785     1.0  0.87596  0.97209  0.65699  1.0000
  S   S1513     1.0  0.74719  0.72470  0.58746  1.0000
  H   H6786     1.0  0.83755  0.70970  0.77534  1.0000
  H   H6787     1.0  0.74423  0.80586  0.73047  1.0000
  H   H6788     1.0  0.79899  0.77099  0.58830  1.0000
  H   H6789     1.0  0.81941  0.86000  0.58480  1.0000
  C   C5657     1.0  0.76115  0.74448  0.58787  1.0000
  C   C5658     1.0  0.83408  0.75009  0.58205  1.0000
  C   C5659     1.0  0.76393  0.81924  0.59314  1.0000
  H   H6790     1.0  0.98595  0.84020  0.70934  1.0000
  C   C5660     1.0  0.98599  0.83136  0.67900  1.0000
  C   C5661     1.0  0.74800  0.97322  0.74202  1.0000
  C   C5662     1.0  0.74609  0.97419  0.71742  1.0000
  H   H6791     1.0  0.74295  0.97057  0.75366  1.0000
  H   H6792     1.0  0.80118  0.68974  0.77583  1.0000
  C   C5663     1.0  0.73948  0.95510  0.73733  1.0000
  C   C5664     1.0  0.74459  0.97664  0.69257  1.0000
  H   H6793     1.0  0.73896  0.97581  0.68509  1.0000
  H   H6794     1.0  0.74792  0.82823  0.58062  1.0000
  C   C5665     1.0  0.75748  0.98103  0.68738  1.0000
  H   H6795     1.0  0.84164  0.75687  0.57923  1.0000
  H   H6796     1.0  0.75285  0.87326  0.57896  1.0000
  H   H6797     1.0  0.83715  0.98036  0.70932  1.0000
  H   H6798     1.0  0.74082  0.57680  0.57818  1.0000
  N   N377      1.0  0.77421  0.86103  0.57947  1.0000
  C   C5666     1.0  0.75978  0.84368  0.57935  1.0000
  H   H6799     1.0  0.82197  0.83693  0.57830  1.0000
  Fe  Fe758     1.0  0.83962  0.75495  0.96244  1.0000
  H   H6800     1.0  0.76594  0.74740  0.78175  1.0000
  Fe  Fe759     1.0  0.82098  0.72982  0.87741  1.0000
  S   S1514     1.0  0.81918  0.75187  0.86341  1.0000
  S   S1515     1.0  0.82237  0.72513  0.90101  1.0000
  Fe  Fe760     1.0  0.81693  0.71733  0.85366  1.0000
  S   S1516     1.0  0.81515  0.73860  0.83818  1.0000
  S   S1517     1.0  0.81453  0.69774  0.84765  1.0000
  Fe  Fe761     1.0  0.83328  0.74099  0.84580  1.0000
  S   S1518     1.0  0.84934  0.75283  0.82977  1.0000
  Fe  Fe762     1.0  0.80136  0.74733  0.85709  1.0000
  S   S1519     1.0  0.77991  0.76191  0.85586  1.0000
  S   S1520     1.0  0.83636  0.71894  0.86007  1.0000
  S   S1521     1.0  0.80192  0.72598  0.87235  1.0000
  Fe  Fe763     1.0  0.76563  0.68769  0.79694  1.0000
  H   H6801     1.0  0.74308  0.86476  0.83331  1.0000
  S   S1522     1.0  0.77490  0.70118  0.80581  1.0000
  C   C5667     1.0  0.80062  0.89587  0.97292  1.0000
  H   H6802     1.0  0.88911  0.72889  0.79353  1.0000
  H   H6803     1.0  0.75926  0.85650  0.81241  1.0000
  H   H6804     1.0  0.76439  0.80160  0.95927  1.0000
  H   H6805     1.0  0.82951  0.71978  0.81637  1.0000
  S   S1523     1.0  0.85163  0.76895  0.96669  1.0000
  S   S1524     1.0  0.73755  0.81053  0.90591  1.0000
  H   H6806     1.0  0.77363  0.75182  0.83027  1.0000
  H   H6807     1.0  0.76702  0.83569  0.85429  1.0000
  H   H6808     1.0  0.76364  0.74111  0.86186  1.0000
  C   C5668     1.0  0.75092  0.85839  0.83995  1.0000
  S   S1525     1.0  0.94125  0.75737  0.78994  1.0000
  H   H6809     1.0  0.75253  0.72455  0.81661  1.0000
  Fe  Fe764     1.0  0.92729  0.74304  0.79020  1.0000
  S   S1526     1.0  0.91581  0.72951  0.81005  1.0000
  C   C5669     1.0  0.87804  0.72706  0.79672  1.0000
  H   H6810     1.0  0.80542  0.90221  0.96287  1.0000
  H   H6811     1.0  0.75354  0.80046  0.88035  1.0000
  H   H6812     1.0  0.83432  0.67951  0.82113  1.0000
  Fe  Fe765     1.0  0.75100  0.82394  0.88848  1.0000
  H   H6813     1.0  0.75706  0.86600  0.84025  1.0000
  N   N378      1.0  0.87491  0.72115  0.78610  1.0000
  H   H6814     1.0  0.98323  0.71268  0.79361  1.0000
  S   S1527     1.0  0.82600  0.80570  0.96671  1.0000
  H   H6815     1.0  0.74040  0.72526  0.80646  1.0000
  C   C5670     1.0  0.75014  0.71528  0.84885  1.0000
  H   H6816     1.0  0.75624  0.81949  0.96163  1.0000
  H   H6817     1.0  0.81074  0.66224  0.79886  1.0000
  H   H6818     1.0  0.87728  0.71954  0.80741  1.0000
  H   H6819     1.0  0.81236  0.69904  0.77931  1.0000
  S   S1528     1.0  0.84565  0.75168  0.93928  1.0000
  C   C5671     1.0  0.76882  0.72187  0.85477  1.0000
  Fe  Fe766     1.0  0.82996  0.78189  0.97430  1.0000
  C   C5672     1.0  0.75177  0.83546  0.83525  1.0000
  C   C5673     1.0  0.75150  0.77737  0.81109  1.0000
  C   C5674     1.0  0.74401  0.73201  0.81134  1.0000
  H   H6820     1.0  0.75155  0.59790  0.78230  1.0000
  H   H6821     1.0  0.73704  0.94698  0.78467  1.0000
  C   C5675     1.0  0.76419  0.71233  0.85019  1.0000
  H   H6822     1.0  0.77979  0.71945  0.85586  1.0000
  N   N379      1.0  0.74898  0.74423  0.80045  1.0000
  C   C5676     1.0  0.83776  0.67858  0.80998  1.0000
  H   H6823     1.0  0.75971  0.73129  0.78477  1.0000
  H   H6824     1.0  0.82512  0.65348  0.78663  1.0000
  S   S1529     1.0  0.75142  0.70401  0.78325  1.0000
  C   C5677     1.0  0.74663  0.81139  0.84310  1.0000
  S   S1530     1.0  0.81811  0.76888  0.96898  1.0000
  H   H6825     1.0  0.80256  0.87812  0.96366  1.0000
  C   C5678     1.0  0.74493  0.73776  0.85686  1.0000
  C   C5679     1.0  0.80883  0.68875  0.78248  1.0000
  C   C5680     1.0  0.85194  0.67827  0.80283  1.0000
  H   H6826     1.0  0.77160  0.81660  0.94777  1.0000
  Fe  Fe767     1.0  0.75971  0.66330  0.78716  1.0000
  C   C5681     1.0  0.76622  0.75652  0.82317  1.0000
  N   N380      1.0  0.77594  0.81005  0.96906  1.0000
  C   C5682     1.0  0.83196  0.71474  0.79610  1.0000
  C   C5683     1.0  0.73969  0.84001  0.82897  1.0000
  C   C5684     1.0  0.77747  0.82431  0.96939  1.0000
  S   S1531     1.0  0.77709  0.67578  0.77925  1.0000
  H   H6827     1.0  0.82123  0.71301  0.79854  1.0000
  C   C5685     1.0  0.80627  0.76675  0.93652  1.0000
  S   S1532     1.0  0.74960  0.67350  0.80634  1.0000
  C   C5686     1.0  0.83664  0.71861  0.80610  1.0000
  C   C5687     1.0  0.75936  0.73437  0.85816  1.0000
  H   H6828     1.0  0.85951  0.67893  0.80841  1.0000
  S   S1533     1.0  0.74502  0.85753  0.97573  1.0000
  H   H6829     1.0  0.87596  0.74999  0.91744  1.0000
  H   H6830     1.0  0.76424  0.77796  0.82509  1.0000
  C   C5688     1.0  0.82754  0.73372  0.91169  1.0000
  C   C5689     1.0  0.83287  0.74620  0.90596  1.0000
  C   C5690     1.0  0.83775  0.75193  0.91470  1.0000
  C   C5691     1.0  0.83713  0.74549  0.92936  1.0000
  C   C5692     1.0  0.83120  0.73340  0.93522  1.0000
  C   C5693     1.0  0.82652  0.72754  0.92643  1.0000
  H   H6831     1.0  0.83352  0.75131  0.89476  1.0000
  H   H6832     1.0  0.84235  0.76125  0.91001  1.0000
  H   H6833     1.0  0.83077  0.72818  0.94641  1.0000
  H   H6834     1.0  0.82238  0.71792  0.93105  1.0000
  C   C5694     1.0  0.86784  0.74611  0.82512  1.0000
  C   C5695     1.0  0.87626  0.75523  0.81524  1.0000
  C   C5696     1.0  0.89100  0.75028  0.81074  1.0000
  C   C5697     1.0  0.89746  0.73616  0.81615  1.0000
  C   C5698     1.0  0.88910  0.72706  0.82625  1.0000
  C   C5699     1.0  0.87427  0.73199  0.83065  1.0000
  H   H6835     1.0  0.87134  0.76619  0.81097  1.0000
  H   H6836     1.0  0.89737  0.75744  0.80317  1.0000
  H   H6837     1.0  0.89408  0.71609  0.83037  1.0000
  H   H6838     1.0  0.86781  0.72481  0.83806  1.0000
  C   C5700     1.0  0.77832  0.77738  0.86167  1.0000
  C   C5701     1.0  0.76509  0.78376  0.86913  1.0000
  C   C5702     1.0  0.76380  0.79571  0.87450  1.0000
  C   C5703     1.0  0.77575  0.80127  0.87248  1.0000
  C   C5704     1.0  0.78893  0.79511  0.86472  1.0000
  C   C5705     1.0  0.79022  0.78315  0.85930  1.0000
  H   H6839     1.0  0.75585  0.77935  0.87101  1.0000
  H   H6840     1.0  0.85325  0.72410  0.81118  1.0000
  H   H6841     1.0  0.79817  0.79948  0.86302  1.0000
  H   H6842     1.0  0.80039  0.77847  0.85320  1.0000
  C   C5706     1.0  0.80357  0.69867  0.83597  1.0000
  C   C5707     1.0  0.79901  0.71147  0.82660  1.0000
  C   C5708     1.0  0.79060  0.71184  0.81724  1.0000
  C   C5709     1.0  0.78623  0.69957  0.81738  1.0000
  C   C5710     1.0  0.79084  0.68670  0.82669  1.0000
  C   C5711     1.0  0.79960  0.68624  0.83584  1.0000
  H   H6843     1.0  0.80208  0.72109  0.82642  1.0000
  H   H6844     1.0  0.78760  0.72172  0.80977  1.0000
  H   H6845     1.0  0.78761  0.67713  0.82695  1.0000
  H   H6846     1.0  0.80311  0.67625  0.84302  1.0000
  H   H6847     1.0  0.74481  0.85505  0.85109  1.0000
  C   C5712     1.0  0.85632  0.67715  0.78851  1.0000
  H   H6848     1.0  0.79480  0.80741  0.95198  1.0000
  C   C5713     1.0  0.73896  0.84573  0.94218  1.0000
  C   C5714     1.0  0.73870  0.96781  0.78593  1.0000
  C   C5715     1.0  0.98114  0.75447  0.79211  1.0000
  C   C5716     1.0  0.76665  0.81198  0.95904  1.0000
  C   C5717     1.0  0.75500  0.63149  0.78030  1.0000
  C   C5718     1.0  0.83192  0.67697  0.78814  1.0000
  H   H6849     1.0  0.96974  0.75535  0.79526  1.0000
  C   C5719     1.0  0.75520  0.82072  0.84207  1.0000
  N   N381      1.0  0.82116  0.67647  0.78078  1.0000
  N   N382      1.0  0.78738  0.76500  0.90872  1.0000
  C   C5720     1.0  0.78476  0.75039  0.91551  1.0000
  C   C5721     1.0  0.77337  0.77489  0.90757  1.0000
  C   C5722     1.0  0.79624  0.76459  0.89407  1.0000
  C   C5723     1.0  0.79468  0.77013  0.91671  1.0000
  C   C5724     1.0  0.79910  0.76166  0.92947  1.0000
  C   C5725     1.0  0.79781  0.78398  0.91162  1.0000
  C   C5726     1.0  0.76210  0.74781  0.81695  1.0000
  C   C5727     1.0  0.80513  0.78888  0.91868  1.0000
  C   C5728     1.0  0.85044  0.72094  0.80297  1.0000
  H   H6850     1.0  0.77788  0.74990  0.92651  1.0000
  H   H6851     1.0  0.77929  0.74688  0.90920  1.0000
  H   H6852     1.0  0.79496  0.74226  0.91610  1.0000
  H   H6853     1.0  0.76749  0.77128  0.90174  1.0000
  H   H6854     1.0  0.77443  0.78590  0.90156  1.0000
  H   H6855     1.0  0.76650  0.77577  0.91838  1.0000
  H   H6856     1.0  0.80685  0.75724  0.89453  1.0000
  H   H6857     1.0  0.79113  0.76079  0.88767  1.0000
  H   H6858     1.0  0.79816  0.77527  0.88788  1.0000
  H   H6859     1.0  0.79749  0.75090  0.93407  1.0000
  H   H6860     1.0  0.79479  0.79106  0.90197  1.0000
  H   H6861     1.0  0.80768  0.79935  0.91439  1.0000
  H   H6862     1.0  0.78988  0.79102  0.96261  1.0000
  H   H6863     1.0  0.76321  0.61054  0.79214  1.0000
  N   N383      1.0  0.86937  0.72918  0.87564  1.0000
  C   C5729     1.0  0.85921  0.74009  0.86761  1.0000
  C   C5730     1.0  0.88337  0.72606  0.86559  1.0000
  C   C5731     1.0  0.86384  0.71583  0.88091  1.0000
  C   C5732     1.0  0.87112  0.73467  0.88727  1.0000
  C   C5733     1.0  0.87622  0.74741  0.88395  1.0000
  C   C5734     1.0  0.86811  0.72759  0.90200  1.0000
  C   C5735     1.0  0.87802  0.75281  0.89471  1.0000
  C   C5736     1.0  0.87017  0.73299  0.91263  1.0000
  C   C5737     1.0  0.87496  0.74562  0.90903  1.0000
  H   H6864     1.0  0.86299  0.75016  0.86225  1.0000
  H   H6865     1.0  0.85745  0.73624  0.85893  1.0000
  H   H6866     1.0  0.84863  0.74289  0.87485  1.0000
  H   H6867     1.0  0.88281  0.72075  0.85737  1.0000
  H   H6868     1.0  0.89162  0.71883  0.87143  1.0000
  H   H6869     1.0  0.88731  0.73592  0.85953  1.0000
  H   H6870     1.0  0.85308  0.71756  0.88822  1.0000
  H   H6871     1.0  0.86263  0.71196  0.87196  1.0000
  H   H6872     1.0  0.87118  0.70696  0.88668  1.0000
  H   H6873     1.0  0.87878  0.75333  0.87300  1.0000
  H   H6874     1.0  0.86383  0.71806  0.90571  1.0000
  H   H6875     1.0  0.88167  0.76269  0.89199  1.0000
  H   H6876     1.0  0.86740  0.72770  0.92386  1.0000
  H   H6877     1.0  0.77068  0.73222  0.79561  1.0000
  H   H6878     1.0  0.77412  0.84159  0.81443  1.0000
  C   C5738     1.0  0.79903  0.88232  0.97332  1.0000
  C   C5739     1.0  0.77163  0.83967  0.84272  1.0000
  H   H6879     1.0  0.80253  0.68777  0.79366  1.0000
  S   S1534     1.0  0.77423  0.81566  0.87997  1.0000
  C   C5740     1.0  0.76187  0.73858  0.79020  1.0000
  C   C5741     1.0  0.76095  0.77127  0.82024  1.0000
  C   C5742     1.0  0.74739  0.76876  0.80470  1.0000
  C   C5743     1.0  0.76722  0.85077  0.81915  1.0000
  C   C5744     1.0  0.74382  0.85176  0.95066  1.0000
  H   H6880     1.0  0.98182  0.76290  0.80961  1.0000
  H   H6881     1.0  0.74961  0.76418  0.85560  1.0000
  H   H6882     1.0  0.79811  0.80091  0.96948  1.0000
  H   H6883     1.0  0.74658  0.70772  0.84541  1.0000
  H   H6884     1.0  0.88279  0.69919  0.79583  1.0000
  C   C5745     1.0  0.75259  0.75364  0.80746  1.0000
  H   H6885     1.0  0.74916  0.80033  0.84877  1.0000
  H   H6886     1.0  0.81554  0.78382  0.93629  1.0000
  C   C5746     1.0  0.79026  0.80192  0.96307  1.0000
  C   C5747     1.0  0.80945  0.78023  0.93106  1.0000
  H   H6887     1.0  0.77974  0.83071  0.83858  1.0000
  H   H6888     1.0  0.78256  0.83001  0.95866  1.0000
  C   C5748     1.0  0.74061  0.72777  0.85214  1.0000
  H   H6889     1.0  0.80993  0.75992  0.94599  1.0000
  H   H6890     1.0  0.77148  0.70254  0.84784  1.0000
  H   H6891     1.0  0.97214  0.78432  0.78034  1.0000
  H   H6892     1.0  0.81711  0.67794  0.80884  1.0000
  H   H6893     1.0  0.82816  0.83199  0.97106  1.0000
  H   H6894     1.0  0.86736  0.67692  0.78295  1.0000
  C   C5749     1.0  0.84652  0.67648  0.78123  1.0000
  N   N384      1.0  0.76030  0.84579  0.83436  1.0000
  H   H6895     1.0  0.75110  0.85886  0.94550  1.0000
  H   H6896     1.0  0.77397  0.85836  0.81801  1.0000
  C   C5750     1.0  0.82793  0.67782  0.80280  1.0000
  C   C5751     1.0  0.73757  0.75161  0.79235  1.0000
  C   C5752     1.0  0.86009  0.71919  0.78968  1.0000
  H   H6897     1.0  0.74259  0.84812  0.93063  1.0000
  S   S1535     1.0  0.76384  0.63963  0.78795  1.0000
  H   H6898     1.0  0.74739  0.78887  0.80883  1.0000
  H   H6899     1.0  0.74833  0.96359  0.79003  1.0000
  H   H6900     1.0  0.76701  0.83145  0.97284  1.0000
  C   C5753     1.0  0.81609  0.66297  0.78732  1.0000
  H   H6901     1.0  0.98408  0.72515  0.81143  1.0000
  H   H6902     1.0  0.76654  0.73646  0.81953  1.0000
  H   H6903     1.0  0.77755  0.84776  0.84230  1.0000
  H   H6904     1.0  0.76424  0.81617  0.84703  1.0000
  H   H6905     1.0  0.78411  0.82335  0.97704  1.0000
  H   H6906     1.0  0.87067  0.73755  0.79797  1.0000
  C   C5754     1.0  0.75671  0.61661  0.78446  1.0000
  C   C5755     1.0  0.84116  0.71288  0.78303  1.0000
  C   C5756     1.0  0.74092  0.76050  0.86452  1.0000
  H   H6907     1.0  0.74017  0.77422  0.79759  1.0000
  C   C5757     1.0  0.75007  0.60942  0.77887  1.0000
  S   S1536     1.0  0.74241  0.84340  0.89782  1.0000
  C   C5758     1.0  0.73921  0.84887  0.96571  1.0000
  C   C5759     1.0  0.88492  0.70710  0.78551  1.0000
  H   H6908     1.0  0.89621  0.70798  0.78337  1.0000
  H   H6909     1.0  0.74532  0.75526  0.87429  1.0000
  C   C5760     1.0  0.85508  0.71484  0.77991  1.0000
  H   H6910     1.0  0.80819  0.66204  0.78187  1.0000
  H   H6911     1.0  0.74095  0.76018  0.78307  1.0000
  H   H6912     1.0  0.73659  0.85096  0.82329  1.0000
  Fe  Fe768     1.0  0.73655  0.68917  0.79132  1.0000
