data_image0
_chemical_formula_structural       H3C2S2HCFeHC2SHCH2CHNCH3SHCHSH4NHC4H2C2HC3HCHCHC3H2CH2CHC2HCFeS2HFeS2C2FeS2FeHSFeS2CHFeHC6H4C6H6SH3CH2NC4HSH5CHCHNH2C2H2CH2CHCSHFeC2S2HCHFeCH3CHSH2CH4C3SH2C5HCHC3HCHNHC2HSH6CNH4FeH2CH3CHC2H2CH3C2SC2SCH2CHFeSCFeSHSC2FeS2HC3FeC3H2C2HC3HSFeHC3HNH5C2H6C2HSH2C2H3FeCSC2HCHC2HCH2FeSFeS2FeS2FeSFeS3C3H2CHCH3CH2C2H2C6H3NH3C3HCH3SC2HC2HCH3CHC2HCH3CNCNC3H4CSH4CHC2H3CH3CHCHCHC3HCHC3HCS2FeS2FeS2C6H4CNH7C2HCHCH7CHCHCFeHC2H2SC2HCH3CHCHFeCH3C3H2CH2CHCHCH2CNHNCHC2HSH3CS3C2HFeS2C2H2C2FeS2FeS2FeSFeS3HCH3C6H4NCH3C2H2CH2CHC3HCHCHNC8H13CHC3H2CHCHC2H3CHFeH2C3HCHCH3FeH2CHC3H2S2FeS2FeS2FeSFeS3C2NH2C6H4C5H3C5H3C3HNC4HCH5CH5NCH2SH5CNC2HC3H5C2HCH6C2HFeC2HCHCH2C2HCH4FeS2FeSNC6H5C2H2SC3H2SHC2HFeSHCHFeH5SHSHNHC4H3CHCHSC3H2CHCH2C2HC2H2S2FeS2FeS2FeSFeS3FeCH3CH2C7H4CHCH2NFeCHCH2C2H3FeH3CH2NCHSHNC5SCHCH6C3H2CHCH4CHC2H3C2HCHCH4C2HCHC2HCFeC2SHCH2CS2C2FeHCFeH2C4HCSH2FeCSHC4H2SCFeHSCHCHFeH3CHCHC2H2CSFeSHFeS2HCFeS2FeSHC6H6C6H7SHCHNH2CHFeC2H3NCH2C2SHSHN2C7H11NH3CHCH2CH3CH4C2H2CH2CH2C2HCH4C2HSH2C4SH2C2H5C3HSHCH2C2HFeCHNHCS4NSH2C2SHCHFeS2H5C2HC3H2C2H2CH3CH4C2NC4H2C3HCSH3CH3CH2C4HCH2FeHC3HSHSCHFe2SC2
_chemical_formula_sum              "H576 C480 S128 Fe64 N32"
_cell_length_a       43.9475
_cell_length_b       43.5962
_cell_length_c       39.1288
_cell_angle_alpha    87.6405
_cell_angle_beta     88.7648
_cell_angle_gamma    120.897

_space_group_name_H-M_alt    "P 1"
_space_group_IT_number       1

loop_
  _space_group_symop_operation_xyz
  'x, y, z'

loop_
  _atom_site_type_symbol
  _atom_site_label
  _atom_site_symmetry_multiplicity
  _atom_site_fract_x
  _atom_site_fract_y
  _atom_site_fract_z
  _atom_site_occupancy
  H   H1        1.0  0.39181  0.08936  0.24187  1.0000
  H   H2        1.0  0.19806  0.11733  0.31989  1.0000
  H   H3        1.0  0.48340  0.18707  0.18369  1.0000
  C   C1        1.0  0.20432  0.23857  0.31577  1.0000
  C   C2        1.0  0.45401  0.14457  0.26392  1.0000
  S   S1        1.0  0.26780  0.44413  0.30052  1.0000
  S   S2        1.0  0.19808  0.33796  0.31921  1.0000
  H   H4        1.0  0.24290  0.13507  0.25661  1.0000
  C   C3        1.0  0.05334  0.28142  0.33269  1.0000
  Fe  Fe1       1.0  0.22293  0.39596  0.33189  1.0000
  H   H5        1.0  0.28924  0.19811  0.32506  1.0000
  C   C4        1.0  0.23453  0.48148  0.28143  1.0000
  C   C5        1.0  0.48624  0.24828  0.27934  1.0000
  S   S3        1.0  0.37149  0.19553  0.31486  1.0000
  H   H6        1.0  0.49145  0.15334  0.30415  1.0000
  C   C6        1.0  0.39878  0.13778  0.28564  1.0000
  H   H7        1.0  0.45887  0.24122  0.27790  1.0000
  H   H8        1.0  0.29604  0.20820  0.27995  1.0000
  C   C7        1.0  0.45328  0.15506  0.22921  1.0000
  H   H9        1.0  0.42848  0.14563  0.21695  1.0000
  N   N1        1.0  0.24255  0.16669  0.29744  1.0000
  C   C8        1.0  0.26612  0.48105  0.28184  1.0000
  H   H10       1.0  0.50195  0.27514  0.22888  1.0000
  H   H11       1.0  0.23853  0.11729  0.31639  1.0000
  H   H12       1.0  0.29241  0.16795  0.29720  1.0000
  S   S4        1.0  0.29157  0.09452  0.31438  1.0000
  H   H13       1.0  0.41420  0.16458  0.29638  1.0000
  C   C9        1.0  0.22915  0.19100  0.30426  1.0000
  H   H14       1.0  0.44123  0.09875  0.32102  1.0000
  S   S5        1.0  0.09579  0.30007  0.31159  1.0000
  H   H15       1.0  0.04464  0.33857  0.25223  1.0000
  H   H16       1.0  0.37489  0.06704  0.28303  1.0000
  H   H17       1.0  0.24228  0.27286  0.27582  1.0000
  H   H18       1.0  0.21016  0.45856  0.29216  1.0000
  N   N2        1.0  0.42040  0.12061  0.28419  1.0000
  H   H19       1.0  0.20468  0.14004  0.25922  1.0000
  C   C10       1.0  0.02280  0.25934  0.31493  1.0000
  C   C11       1.0  0.04857  0.35165  0.30476  1.0000
  C   C12       1.0  0.39991  0.08605  0.26781  1.0000
  C   C13       1.0  0.25248  0.02072  0.31591  1.0000
  H   H20       1.0  0.37384  0.12136  0.30183  1.0000
  H   H21       1.0  0.02566  0.25292  0.28909  1.0000
  C   C14       1.0  0.28166  0.18603  0.29992  1.0000
  C   C15       1.0  0.28386  0.05109  0.32536  1.0000
  H   H22       1.0  0.24675  0.17649  0.24243  1.0000
  C   C16       1.0  0.48453  0.17866  0.20987  1.0000
  C   C17       1.0  0.24297  0.22400  0.28464  1.0000
  C   C18       1.0  0.23385  0.15406  0.26240  1.0000
  H   H23       1.0  0.41581  0.07290  0.26516  1.0000
  C   C19       1.0  0.20209  0.18278  0.32985  1.0000
  H   H24       1.0  0.23301  0.02405  0.30248  1.0000
  C   C20       1.0  0.22730  0.13458  0.32173  1.0000
  H   H25       1.0  0.39052  0.14181  0.26004  1.0000
  C   C21       1.0  0.42570  0.11241  0.32006  1.0000
  C   C22       1.0  0.23078  0.24740  0.29051  1.0000
  C   C23       1.0  0.48802  0.15878  0.27780  1.0000
  H   H26       1.0  0.43959  0.13717  0.33445  1.0000
  H   H27       1.0  0.32898  0.32008  0.32555  1.0000
  C   C24       1.0  0.49720  0.23791  0.30865  1.0000
  H   H28       1.0  0.26360  0.23219  0.26480  1.0000
  H   H29       1.0  0.07674  0.36116  0.30491  1.0000
  C   C25       1.0  0.03033  0.33870  0.27511  1.0000
  H   H30       1.0  0.19546  0.25714  0.32082  1.0000
  C   C26       1.0  0.03025  0.35062  0.33467  1.0000
  C   C27       1.0  0.19003  0.20638  0.33537  1.0000
  H   H31       1.0  0.39999  0.09438  0.33458  1.0000
  C   C28       1.0  0.51076  0.26754  0.25157  1.0000
  Fe  Fe2       1.0  0.14661  0.33182  0.33972  1.0000
  S   S6        1.0  0.34612  0.26603  0.34087  1.0000
  S   S7        1.0  0.23521  0.38532  0.38527  1.0000
  H   H32       1.0  0.32131  0.29290  0.43846  1.0000
  Fe  Fe3       1.0  0.18150  0.37606  0.40026  1.0000
  S   S8        1.0  0.17283  0.40113  0.44592  1.0000
  S   S9        1.0  0.15308  0.31707  0.39348  1.0000
  C   C29       1.0  0.04941  0.28955  0.36610  1.0000
  C   C30       1.0  0.23034  0.26874  0.53512  1.0000
  Fe  Fe4       1.0  0.35376  0.17035  0.41240  1.0000
  S   S10       1.0  0.33193  0.15059  0.46650  1.0000
  S   S11       1.0  0.31165  0.16640  0.37842  1.0000
  Fe  Fe5       1.0  0.20153  0.36419  0.63539  1.0000
  H   H33       1.0  0.31887  0.32707  0.65719  1.0000
  S   S12       1.0  0.21186  0.35034  0.58313  1.0000
  Fe  Fe6       1.0  0.39509  0.20669  0.64459  1.0000
  S   S13       1.0  0.33623  0.18225  0.65304  1.0000
  S   S14       1.0  0.42565  0.21796  0.59390  1.0000
  C   C31       1.0  0.35592  0.25544  0.51893  1.0000
  H   H34       1.0  0.23091  0.27041  0.47984  1.0000
  Fe  Fe7       1.0  0.35394  0.21956  0.35508  1.0000
  H   H35       1.0  0.40175  0.29026  0.42337  1.0000
  C   C32       1.0  0.35887  0.16948  0.50123  1.0000
  C   C33       1.0  0.34331  0.15866  0.53447  1.0000
  C   C34       1.0  0.36368  0.17339  0.56292  1.0000
  C   C35       1.0  0.39979  0.19912  0.55836  1.0000
  C   C36       1.0  0.41546  0.21001  0.52505  1.0000
  C   C37       1.0  0.39501  0.19525  0.49645  1.0000
  H   H36       1.0  0.31540  0.13860  0.53827  1.0000
  H   H37       1.0  0.35153  0.16424  0.58839  1.0000
  H   H38       1.0  0.44347  0.22973  0.52137  1.0000
  H   H39       1.0  0.40725  0.20352  0.47085  1.0000
  C   C38       1.0  0.18482  0.38836  0.48409  1.0000
  C   C39       1.0  0.18310  0.40277  0.51500  1.0000
  C   C40       1.0  0.19192  0.39185  0.54570  1.0000
  C   C41       1.0  0.20219  0.36634  0.54543  1.0000
  C   C42       1.0  0.20426  0.35239  0.51442  1.0000
  C   C43       1.0  0.19559  0.36331  0.48387  1.0000
  H   H40       1.0  0.17486  0.42227  0.51524  1.0000
  H   H41       1.0  0.19076  0.40311  0.56948  1.0000
  H   H42       1.0  0.21241  0.33291  0.51391  1.0000
  H   H43       1.0  0.19702  0.35210  0.46015  1.0000
  H   H44       1.0  0.22768  0.25288  0.65404  1.0000
  H   H45       1.0  0.02880  0.25743  0.60460  1.0000
  S   S15       1.0  0.37149  0.14234  0.37754  1.0000
  H   H46       1.0  0.18700  0.26523  0.62817  1.0000
  H   H47       1.0  0.24945  0.31302  0.62626  1.0000
  H   H48       1.0  0.22236  0.28839  0.53583  1.0000
  C   C44       1.0  0.05433  0.32725  0.59313  1.0000
  H   H49       1.0  0.12670  0.31872  0.58657  1.0000
  H   H50       1.0  0.19142  0.47165  0.34854  1.0000
  N   N3        1.0  0.22925  0.26446  0.59954  1.0000
  C   C45       1.0  0.19284  0.25857  0.60254  1.0000
  C   C46       1.0  0.23294  0.24437  0.62919  1.0000
  C   C47       1.0  0.25523  0.30305  0.60267  1.0000
  C   C48       1.0  0.23530  0.25364  0.56583  1.0000
  H   H51       1.0  0.17245  0.23022  0.59861  1.0000
  S   S16       1.0  0.17094  0.39049  0.34787  1.0000
  H   H52       1.0  0.18884  0.27586  0.58377  1.0000
  H   H53       1.0  0.02505  0.31011  0.59180  1.0000
  H   H54       1.0  0.07268  0.30663  0.37996  1.0000
  H   H55       1.0  0.07018  0.25874  0.59872  1.0000
  H   H56       1.0  0.25483  0.32011  0.58102  1.0000
  C   C49       1.0  0.05693  0.28391  0.47748  1.0000
  H   H57       1.0  0.28276  0.30832  0.60359  1.0000
  C   C50       1.0  0.28102  0.30549  0.35526  1.0000
  H   H58       1.0  0.29760  0.07803  0.43700  1.0000
  N   N4        1.0  0.07305  0.30826  0.58395  1.0000
  H   H59       1.0  0.33575  0.27893  0.59411  1.0000
  H   H60       1.0  0.17709  0.44946  0.39057  1.0000
  C   C51       1.0  0.28797  0.04966  0.44124  1.0000
  C   C52       1.0  0.25175  0.21890  0.52989  1.0000
  H   H61       1.0  0.40136  0.26843  0.46304  1.0000
  H   H62       1.0  0.27324  0.49114  0.39316  1.0000
  C   C53       1.0  0.25611  0.25027  0.39044  1.0000
  H   H63       1.0  0.36658  0.32927  0.44289  1.0000
  H   H64       1.0  0.36507  0.23811  0.51056  1.0000
  C   C54       1.0  0.31659  0.03050  0.67278  1.0000
  H   H65       1.0  0.25220  0.03437  0.40024  1.0000
  C   C55       1.0  0.30986  0.27013  0.35501  1.0000
  S   S17       1.0  0.21992  0.28594  0.39492  1.0000
  H   H66       1.0  0.32215  0.05738  0.48242  1.0000
  Fe  Fe8       1.0  0.33231  0.14227  0.34190  1.0000
  C   C56       1.0  0.28327  0.24484  0.37827  1.0000
  C   C57       1.0  0.33935  0.27820  0.56672  1.0000
  S   S18       1.0  0.24451  0.38641  0.67300  1.0000
  S   S19       1.0  0.46715  0.21202  0.34371  1.0000
  H   H67       1.0  0.11366  0.31657  0.46972  1.0000
  C   C58       1.0  0.30178  0.03791  0.46685  1.0000
  H   H68       1.0  0.24943  0.22590  0.47535  1.0000
  Fe  Fe9       1.0  0.20635  0.32706  0.37397  1.0000
  C   C59       1.0  0.09124  0.30551  0.48824  1.0000
  H   H69       1.0  0.41272  0.31439  0.46173  1.0000
  H   H70       1.0  0.12420  0.33015  0.52907  1.0000
  H   H71       1.0  0.27450  0.05262  0.62690  1.0000
  C   C60       1.0  0.24567  0.47677  0.38433  1.0000
  H   H72       1.0  0.17534  0.48865  0.38084  1.0000
  S   S20       1.0  0.39512  0.22558  0.39180  1.0000
  H   H73       1.0  0.26036  0.24916  0.63006  1.0000
  H   H74       1.0  0.32264  0.00840  0.36242  1.0000
  C   C61       1.0  0.33765  0.29868  0.50864  1.0000
  H   H75       1.0  0.23561  0.23065  0.40842  1.0000
  H   H76       1.0  0.35602  0.23975  0.57193  1.0000
  H   H77       1.0  0.21425  0.47932  0.44060  1.0000
  H   H78       1.0  0.33821  0.23898  0.41830  1.0000
  C   C62       1.0  0.30887  0.04637  0.34254  1.0000
  C   C63       1.0  0.06813  0.29981  0.54745  1.0000
  C   C64       1.0  0.11085  0.33144  0.59217  1.0000
  S   S21       1.0  0.16311  0.31633  0.66921  1.0000
  H   H79       1.0  0.26033  0.19970  0.52775  1.0000
  H   H80       1.0  0.11363  0.33695  0.61982  1.0000
  C   C65       1.0  0.34988  0.27693  0.49503  1.0000
  C   C66       1.0  0.25477  0.28054  0.37892  1.0000
  C   C67       1.0  0.09694  0.31330  0.52267  1.0000
  C   C68       1.0  0.23542  0.25880  0.50294  1.0000
  C   C69       1.0  0.35075  0.25614  0.55420  1.0000
  H   H81       1.0  0.25171  0.21611  0.58400  1.0000
  C   C70       1.0  0.19152  0.47618  0.37635  1.0000
  H   H82       1.0  0.28361  0.22117  0.38695  1.0000
  C   C71       1.0  0.33438  0.23989  0.44638  1.0000
  C   C72       1.0  0.24658  0.22857  0.56225  1.0000
  C   C73       1.0  0.24592  0.23378  0.50034  1.0000
  H   H83       1.0  0.32381  0.31642  0.55383  1.0000
  C   C74       1.0  0.39479  0.28790  0.45131  1.0000
  H   H84       1.0  0.25943  0.09275  0.65570  1.0000
  N   N5        1.0  0.22836  0.49825  0.38748  1.0000
  H   H85       1.0  0.34051  0.22045  0.45886  1.0000
  C   C75       1.0  0.24017  0.06426  0.65614  1.0000
  C   C76       1.0  0.34981  0.30090  0.43630  1.0000
  H   H86       1.0  0.35599  0.30040  0.40860  1.0000
  S   S22       1.0  0.17919  0.39748  0.65165  1.0000
  H   H87       1.0  0.12332  0.35802  0.57787  1.0000
  H   H88       1.0  0.23117  0.45107  0.40020  1.0000
  H   H89       1.0  0.49032  0.28277  0.60835  1.0000
  H   H90       1.0  0.33300  0.06936  0.35015  1.0000
  H   H91       1.0  0.33393  0.03110  0.65237  1.0000
  H   H92       1.0  0.30576  0.22973  0.45205  1.0000
  C   C77       1.0  0.33273  0.29933  0.54400  1.0000
  N   N6        1.0  0.35695  0.27662  0.45789  1.0000
  H   H93       1.0  0.33178  0.31555  0.49258  1.0000
  H   H94       1.0  0.24620  0.46945  0.35751  1.0000
  H   H95       1.0  0.05271  0.27795  0.45075  1.0000
  H   H96       1.0  0.28024  0.32886  0.34618  1.0000
  Fe  Fe10      1.0  0.40978  0.19761  0.35329  1.0000
  H   H97       1.0  0.01571  0.32007  0.67055  1.0000
  H   H98       1.0  0.05927  0.33606  0.61981  1.0000
  C   C78       1.0  0.24864  0.04159  0.63994  1.0000
  H   H99       1.0  0.04439  0.35946  0.35800  1.0000
  H   H100      1.0  0.34215  0.08825  0.67205  1.0000
  H   H101      1.0  0.21382  0.21508  0.62874  1.0000
  C   C79       1.0  0.02810  0.27011  0.50110  1.0000
  H   H102      1.0  0.50374  0.22883  0.65083  1.0000
  C   C80       1.0  0.03349  0.27788  0.53558  1.0000
  C   C81       1.0  0.05807  0.27469  0.60601  1.0000
  H   H103      1.0  0.06297  0.28026  0.63355  1.0000
  H   H104      1.0  0.06342  0.35159  0.57580  1.0000
  C   C82       1.0  0.26220  0.02501  0.42079  1.0000
  H   H105      1.0  0.16999  0.20023  0.35550  1.0000
  H   H106      1.0  0.19000  0.15853  0.34623  1.0000
  H   H107      1.0  0.23336  0.14228  0.34863  1.0000
  C   C83       1.0  0.01523  0.27643  0.38122  1.0000
  C   C84       1.0  0.30854  0.30037  0.34355  1.0000
  S   S23       1.0  0.33070  0.26909  0.66750  1.0000
  C   C85       1.0  0.30291  0.01172  0.34950  1.0000
  C   C86       1.0  0.49719  0.24770  0.66258  1.0000
  S   S24       1.0  0.40777  0.25626  0.67046  1.0000
  C   C87       1.0  0.22499  0.00460  0.64239  1.0000
  H   H108      1.0  0.48707  0.30443  0.66104  1.0000
  H   H109      1.0  0.46956  0.23937  0.65605  1.0000
  C   C88       1.0  0.20774  0.05007  0.67440  1.0000
  H   H110      1.0  0.01241  0.28356  0.40674  1.0000
  Fe  Fe11      1.0  0.21901  0.41630  0.69289  1.0000
  S   S25       1.0  0.18177  0.37158  0.73118  1.0000
  C   C89       1.0  0.18350  0.01312  0.67644  1.0000
  Fe  Fe12      1.0  0.20489  0.34041  0.70809  1.0000
  S   S26       1.0  0.21966  0.30344  0.73650  1.0000
  H   H111      1.0  0.25485  0.02894  0.74566  1.0000
  S   S27       1.0  0.30258  0.10273  0.72357  1.0000
  C   C90       1.0  0.30042  0.30942  0.67763  1.0000
  C   C91       1.0  0.29185  0.32137  0.79352  1.0000
  Fe  Fe13      1.0  0.41099  0.22871  0.71861  1.0000
  S   S28       1.0  0.35287  0.20559  0.73273  1.0000
  S   S29       1.0  0.45497  0.26797  0.75171  1.0000
  H   H112      1.0  0.40173  0.28965  0.73612  1.0000
  C   C92       1.0  0.04090  0.26895  0.71514  1.0000
  C   C93       1.0  0.04429  0.29858  0.69624  1.0000
  C   C94       1.0  0.32031  0.28783  0.80820  1.0000
  Fe  Fe14      1.0  0.34934  0.23040  0.68252  1.0000
  C   C95       1.0  0.01349  0.29717  0.68481  1.0000
  C   C96       1.0  0.02531  0.33725  0.76686  1.0000
  C   C97       1.0  0.38069  0.29606  0.74158  1.0000
  H   H113      1.0  0.41243  0.34264  0.81262  1.0000
  H   H114      1.0  0.49678  0.24360  0.69082  1.0000
  C   C98       1.0  0.49262  0.26656  0.76545  1.0000
  C   C99       1.0  0.29891  0.06262  0.71001  1.0000
  H   H115      1.0  0.31847  0.26573  0.82351  1.0000
  C   C100      1.0  0.29212  0.29383  0.81258  1.0000
  C   C101      1.0  0.41303  0.33561  0.78568  1.0000
  C   C102      1.0  0.32136  0.06298  0.68391  1.0000
  H   H116      1.0  0.47454  0.21286  0.75136  1.0000
  S   S30       1.0  0.40257  0.18033  0.69185  1.0000
  Fe  Fe15      1.0  0.34404  0.15884  0.70224  1.0000
  H   H117      1.0  0.24590  0.46037  0.77166  1.0000
  C   C103      1.0  0.25137  0.29448  0.71817  1.0000
  C   C104      1.0  0.25286  0.26451  0.73052  1.0000
  C   C105      1.0  0.27773  0.25675  0.71616  1.0000
  H   H118      1.0  0.26990  0.27659  0.83035  1.0000
  N   N7        1.0  0.37900  0.30333  0.77803  1.0000
  H   H119      1.0  0.35489  0.27305  0.73457  1.0000
  H   H120      1.0  0.23446  0.24706  0.75111  1.0000
  H   H121      1.0  0.27808  0.23321  0.72538  1.0000
  H   H122      1.0  0.39840  0.26840  0.79349  1.0000
  H   H123      1.0  0.03381  0.38875  0.75059  1.0000
  C   C106      1.0  0.30135  0.27904  0.68933  1.0000
  C   C107      1.0  0.31981  0.34316  0.77004  1.0000
  H   H124      1.0  0.05338  0.34688  0.76864  1.0000
  H   H125      1.0  0.41916  0.35933  0.76867  1.0000
  H   H126      1.0  0.36877  0.35464  0.74638  1.0000
  H   H127      1.0  0.38651  0.31906  0.72366  1.0000
  H   H128      1.0  0.26941  0.32522  0.79620  1.0000
  H   H129      1.0  0.20188  0.06783  0.68785  1.0000
  C   C108      1.0  0.37578  0.27253  0.79910  1.0000
  C   C109      1.0  0.34920  0.30947  0.78424  1.0000
  H   H130      1.0  0.35128  0.24699  0.79374  1.0000
  S   S31       1.0  0.08590  0.33853  0.68701  1.0000
  H   H131      1.0  0.37577  0.27668  0.82696  1.0000
  H   H132      1.0  0.06433  0.26969  0.72423  1.0000
  C   C110      1.0  0.27212  0.02946  0.72523  1.0000
  C   C111      1.0  0.34812  0.33745  0.76542  1.0000
  H   H133      1.0  0.31884  0.36387  0.75461  1.0000
  H   H134      1.0  0.43583  0.33131  0.78207  1.0000
  H   H135      1.0  0.27533  0.34065  0.68271  1.0000
  Fe  Fe16      1.0  0.14317  0.35089  0.68868  1.0000
  C   C112      1.0  0.25836  0.48907  0.76710  1.0000
  S   S32       1.0  0.25178  0.47719  0.69732  1.0000
  C   C113      1.0  0.27559  0.31709  0.69191  1.0000
  C   C114      1.0  0.49584  0.23654  0.76188  1.0000
  H   H136      1.0  0.26572  0.49979  0.82063  1.0000
  C   C115      1.0  0.01420  0.36071  0.75640  1.0000
  H   H137      1.0  0.15920  0.00394  0.69151  1.0000
  C   C116      1.0  0.26366  0.50383  0.73353  1.0000
  C   C117      1.0  0.31101  0.57577  0.14500  1.0000
  H   H138      1.0  0.07885  0.70337  0.24345  1.0000
  C   C118      1.0  0.09474  0.73270  0.23669  1.0000
  H   H139      1.0  0.09479  0.73672  0.20847  1.0000
  H   H140      1.0  0.48883  0.78572  0.29016  1.0000
  Fe  Fe17      1.0  0.14160  0.82465  0.33058  1.0000
  S   S33       1.0  0.19640  0.84394  0.30670  1.0000
  Fe  Fe18      1.0  0.31642  0.70864  0.20356  1.0000
  S   S34       1.0  0.29411  0.65980  0.17273  1.0000
  S   S35       1.0  0.29049  0.74257  0.20536  1.0000
  Fe  Fe19      1.0  0.38054  0.70289  0.22269  1.0000
  S   S36       1.0  0.36265  0.65293  0.19420  1.0000
  S   S37       1.0  0.42925  0.73652  0.25367  1.0000
  Fe  Fe20      1.0  0.34969  0.68069  0.15157  1.0000
  S   S38       1.0  0.36717  0.67443  0.09754  1.0000
  Fe  Fe21      1.0  0.30801  0.63470  0.21651  1.0000
  S   S39       1.0  0.26369  0.57805  0.23360  1.0000
  S   S40       1.0  0.37139  0.73188  0.17884  1.0000
  S   S41       1.0  0.32653  0.68232  0.24873  1.0000
  C   C119      1.0  0.35727  0.68096  0.05458  1.0000
  C   C120      1.0  0.33425  0.69330  0.04706  1.0000
  C   C121      1.0  0.15579  0.73341  0.19834  1.0000
  H   H141      1.0  0.32169  0.69926  0.06771  1.0000
  H   H142      1.0  0.39097  0.66370  0.03243  1.0000
  C   C122      1.0  0.29135  0.56058  0.08775  1.0000
  H   H143      1.0  0.42049  0.70386  0.14641  1.0000
  C   C123      1.0  0.26572  0.54130  0.25211  1.0000
  H   H144      1.0  0.44168  0.72833  0.18283  1.0000
  H   H145      1.0  0.24326  0.71909  0.32548  1.0000
  H   H146      1.0  0.49370  0.75808  0.08312  1.0000
  C   C124      1.0  0.29487  0.57694  0.32686  1.0000
  H   H147      1.0  0.32164  0.56361  0.24128  1.0000
  H   H148      1.0  0.24164  0.57658  0.10976  1.0000
  C   C125      1.0  0.47116  0.74045  0.25903  1.0000
  C   C126      1.0  0.48057  0.71755  0.24439  1.0000
  H   H149      1.0  0.32245  0.55821  0.14609  1.0000
  H   H150      1.0  0.46177  0.69610  0.22953  1.0000
  C   C127      1.0  0.23774  0.76052  0.29976  1.0000
  C   C128      1.0  0.24455  0.78105  0.26900  1.0000
  C   C129      1.0  0.26120  0.77562  0.24054  1.0000
  C   C130      1.0  0.27168  0.75003  0.24258  1.0000
  C   C131      1.0  0.26550  0.73005  0.27356  1.0000
  C   C132      1.0  0.24843  0.73513  0.30185  1.0000
  H   H151      1.0  0.23652  0.80066  0.26695  1.0000
  H   H152      1.0  0.26575  0.79113  0.21669  1.0000
  H   H153      1.0  0.27327  0.71022  0.27554  1.0000
  N   N8        1.0  0.13111  0.74861  0.24923  1.0000
  H   H154      1.0  0.22200  0.96276  0.31599  1.0000
  H   H155      1.0  0.30383  0.57798  0.17192  1.0000
  H   H156      1.0  0.25506  0.58454  0.15302  1.0000
  C   C133      1.0  0.29734  0.54088  0.25239  1.0000
  C   C134      1.0  0.29345  0.58434  0.06043  1.0000
  C   C135      1.0  0.18716  0.70145  0.20449  1.0000
  H   H157      1.0  0.28486  0.61367  0.11896  1.0000
  C   C136      1.0  0.14918  0.73107  0.23433  1.0000
  H   H158      1.0  0.43073  0.63549  0.32633  1.0000
  H   H159      1.0  0.43304  0.76137  0.11472  1.0000
  H   H160      1.0  0.15441  0.75757  0.29843  1.0000
  S   S42       1.0  0.09372  0.81280  0.29978  1.0000
  C   C137      1.0  0.50665  0.76927  0.15136  1.0000
  C   C138      1.0  0.18006  0.69756  0.23974  1.0000
  H   H161      1.0  0.28688  0.60474  0.06394  1.0000
  C   C139      1.0  0.37325  0.67343  0.02711  1.0000
  C   C140      1.0  0.05027  0.77635  0.31116  1.0000
  H   H162      1.0  0.33249  0.60286  0.13492  1.0000
  C   C141      1.0  0.44659  0.71960  0.15806  1.0000
  H   H163      1.0  0.26276  0.50709  0.14083  1.0000
  H   H164      1.0  0.15847  0.70945  0.28228  1.0000
  H   H165      1.0  0.14704  0.74713  0.18127  1.0000
  C   C142      1.0  0.25243  0.52546  0.13748  1.0000
  H   H166      1.0  0.18058  0.72217  0.15636  1.0000
  C   C143      1.0  0.42064  0.67866  0.32760  1.0000
  C   C144      1.0  0.32766  0.69834  0.01263  1.0000
  H   H167      1.0  0.22952  0.51297  0.12064  1.0000
  C   C145      1.0  0.45805  0.77454  0.12882  1.0000
  H   H168      1.0  0.45098  0.78251  0.15297  1.0000
  H   H169      1.0  0.08026  0.74496  0.24816  1.0000
  H   H170      1.0  0.02471  0.79850  0.28114  1.0000
  C   C146      1.0  0.43943  0.66175  0.33549  1.0000
  N   N9        1.0  0.47215  0.75035  0.13492  1.0000
  C   C147      1.0  0.26468  0.58516  0.12622  1.0000
  N   N10       1.0  0.27993  0.56181  0.12334  1.0000
  C   C148      1.0  0.12785  0.74511  0.28722  1.0000
  C   C149      1.0  0.28020  0.59865  0.32668  1.0000
  C   C150      1.0  0.49584  0.76783  0.27878  1.0000
  H   H171      1.0  0.41745  0.72578  0.33215  1.0000
  H   H172      1.0  0.44784  0.72360  0.08913  1.0000
  H   H173      1.0  0.13997  0.80208  0.25149  1.0000
  H   H174      1.0  0.45651  0.70118  0.16411  1.0000
  C   C151      1.0  0.16153  0.71221  0.25465  1.0000
  S   S43       1.0  0.21416  0.76386  0.33562  1.0000
  H   H175      1.0  0.11436  0.75874  0.29755  1.0000
  H   H176      1.0  0.24206  0.52630  0.16354  1.0000
  H   H177      1.0  0.31841  0.58483  0.31076  1.0000
  H   H178      1.0  0.11177  0.71662  0.29707  1.0000
  C   C152      1.0  0.15137  0.78745  0.23886  1.0000
  H   H179      1.0  0.19038  0.68446  0.25582  1.0000
  C   C153      1.0  0.47396  0.73629  0.10142  1.0000
  C   C154      1.0  0.02069  0.77619  0.29785  1.0000
  H   H180      1.0  0.39774  0.66596  0.31196  1.0000
  H   H181      1.0  0.17957  0.79984  0.24586  1.0000
  H   H182      1.0  0.15140  0.79288  0.21090  1.0000
  C   C155      1.0  0.17477  0.71904  0.18377  1.0000
  H   H183      1.0  0.20303  0.69148  0.19337  1.0000
  H   H184      1.0  0.47770  0.79940  0.11359  1.0000
  H   H185      1.0  0.29231  0.62323  0.31050  1.0000
  C   C156      1.0  0.04467  0.74732  0.33269  1.0000
  H   H186      1.0  0.48794  0.78859  0.19288  1.0000
  C   C157      1.0  0.43179  0.71245  0.33912  1.0000
  H   H187      1.0  0.20974  0.51138  0.26630  1.0000
  C   C158      1.0  0.24614  0.98593  0.32357  1.0000
  H   H188      1.0  0.30303  0.51837  0.09945  1.0000
  C   C159      1.0  0.51013  0.78778  0.18142  1.0000
  C   C160      1.0  0.30257  0.53629  0.07984  1.0000
  C   C161      1.0  0.29747  0.51087  0.26718  1.0000
  H   H189      1.0  0.32201  0.51072  0.26730  1.0000
  C   C162      1.0  0.23436  0.51139  0.26655  1.0000
  H   H190      1.0  0.48058  0.71491  0.10433  1.0000
  C   C163      1.0  0.27158  0.98133  0.34006  1.0000
  C   C164      1.0  0.31406  0.53508  0.04656  1.0000
  C   C165      1.0  0.30505  0.58294  0.02729  1.0000
  H   H191      1.0  0.32242  0.51624  0.04111  1.0000
  C   C166      1.0  0.31519  0.55830  0.02032  1.0000
  S   S44       1.0  0.14120  0.78304  0.36635  1.0000
  S   S45       1.0  0.22098  0.84434  0.38565  1.0000
  Fe  Fe22      1.0  0.16519  0.82659  0.40308  1.0000
  S   S46       1.0  0.14239  0.82034  0.45702  1.0000
  S   S47       1.0  0.16204  0.86728  0.36876  1.0000
  Fe  Fe23      1.0  0.21732  0.83572  0.63177  1.0000
  S   S48       1.0  0.20354  0.87813  0.63501  1.0000
  S   S49       1.0  0.23204  0.82129  0.58189  1.0000
  C   C167      1.0  0.16801  0.82112  0.49124  1.0000
  C   C168      1.0  0.19777  0.81784  0.48601  1.0000
  C   C169      1.0  0.21739  0.81802  0.51398  1.0000
  C   C170      1.0  0.20745  0.82169  0.54717  1.0000
  C   C171      1.0  0.17794  0.82540  0.55229  1.0000
  C   C172      1.0  0.15829  0.82512  0.52437  1.0000
  H   H192      1.0  0.20529  0.81448  0.46056  1.0000
  H   H193      1.0  0.24016  0.81505  0.50991  1.0000
  H   H194      1.0  0.16995  0.82799  0.57782  1.0000
  H   H195      1.0  0.13544  0.82793  0.52851  1.0000
  C   C173      1.0  0.24691  0.53282  0.36688  1.0000
  N   N11       1.0  0.25114  0.93695  0.45796  1.0000
  H   H196      1.0  0.46974  0.75645  0.36510  1.0000
  H   H197      1.0  0.23513  0.71787  0.60932  1.0000
  H   H198      1.0  0.08366  0.81419  0.40771  1.0000
  H   H199      1.0  0.48622  0.71050  0.43384  1.0000
  H   H200      1.0  0.30210  0.99383  0.49170  1.0000
  H   H201      1.0  0.20933  0.54917  0.38167  1.0000
  H   H202      1.0  0.24666  0.76158  0.59188  1.0000
  C   C174      1.0  0.19140  0.98920  0.66026  1.0000
  C   C175      1.0  0.04442  0.77966  0.44695  1.0000
  H   H203      1.0  0.32170  0.75804  0.63883  1.0000
  C   C176      1.0  0.24985  0.98843  0.42599  1.0000
  H   H204      1.0  0.23812  0.60529  0.34629  1.0000
  C   C177      1.0  0.21934  0.91303  0.43895  1.0000
  H   H205      1.0  0.06697  0.74702  0.34337  1.0000
  H   H206      1.0  0.04124  0.70531  0.49808  1.0000
  H   H207      1.0  0.22206  0.93139  0.50508  1.0000
  H   H208      1.0  0.08174  0.77628  0.57978  1.0000
  H   H209      1.0  0.28792  0.94008  0.41886  1.0000
  H   H210      1.0  0.21039  0.88434  0.44457  1.0000
  H   H211      1.0  0.18726  0.93748  0.61790  1.0000
  C   C178      1.0  0.06095  0.75162  0.56989  1.0000
  H   H212      1.0  0.21142  0.51776  0.42949  1.0000
  C   C179      1.0  0.28786  0.79830  0.64278  1.0000
  H   H213      1.0  0.11837  0.95024  0.66323  1.0000
  C   C180      1.0  0.50879  0.71183  0.41896  1.0000
  Fe  Fe24      1.0  0.19715  0.80447  0.34500  1.0000
  H   H214      1.0  0.03931  0.80868  0.36678  1.0000
  C   C181      1.0  0.23317  0.55606  0.36671  1.0000
  C   C182      1.0  0.46228  0.72995  0.35789  1.0000
  H   H215      1.0  0.14262  0.90558  0.63023  1.0000
  H   H216      1.0  0.30446  0.94688  0.46110  1.0000
  S   S50       1.0  0.26632  0.93858  0.34869  1.0000
  C   C183      1.0  0.22704  0.50482  0.42424  1.0000
  C   C184      1.0  0.06463  0.74330  0.53663  1.0000
  H   H217      1.0  0.27226  0.90266  0.44953  1.0000
  C   C185      1.0  0.26298  0.97540  0.45227  1.0000
  H   H218      1.0  0.19651  0.91634  0.44576  1.0000
  H   H219      1.0  0.20350  0.72849  0.65641  1.0000
  H   H220      1.0  0.23061  0.89581  0.49935  1.0000
  C   C186      1.0  0.24204  0.92523  0.49487  1.0000
  H   H221      1.0  0.48328  0.66451  0.36014  1.0000
  C   C187      1.0  0.28024  0.93142  0.44649  1.0000
  H   H222      1.0  0.50244  0.68390  0.41616  1.0000
  Fe  Fe25      1.0  0.21667  0.88287  0.34869  1.0000
  C   C188      1.0  0.24952  0.58834  0.34670  1.0000
  H   H223      1.0  0.31322  0.80402  0.63015  1.0000
  H   H224      1.0  0.26548  0.93783  0.51091  1.0000
  H   H225      1.0  0.06421  0.78235  0.46465  1.0000
  C   C189      1.0  0.25546  0.74692  0.60922  1.0000
  C   C190      1.0  0.03807  0.71162  0.52397  1.0000
  C   C191      1.0  0.05553  0.79779  0.41484  1.0000
  H   H226      1.0  0.21913  0.77272  0.63935  1.0000
  H   H227      1.0  0.23401  0.98811  0.63139  1.0000
  C   C192      1.0  0.22624  0.75650  0.65636  1.0000
  H   H228      1.0  0.15341  0.94828  0.61064  1.0000
  H   H229      1.0  0.27959  0.81488  0.62779  1.0000
  C   C193      1.0  0.48259  0.71381  0.36577  1.0000
  H   H230      1.0  0.22492  0.91762  0.41079  1.0000
  C   C194      1.0  0.46975  0.67882  0.35457  1.0000
  H   H231      1.0  0.08822  0.76135  0.52065  1.0000
  C   C195      1.0  0.03049  0.79461  0.39184  1.0000
  H   H232      1.0  0.23057  0.97105  0.40854  1.0000
  H   H233      1.0  0.25422  0.52228  0.43331  1.0000
  C   C196      1.0  0.16251  0.93485  0.62901  1.0000
  N   N12       1.0  0.16723  0.94982  0.66325  1.0000
  H   H234      1.0  0.28051  0.75091  0.59731  1.0000
  N   N13       1.0  0.26009  0.75969  0.64434  1.0000
  C   C197      1.0  0.03077  0.72821  0.59067  1.0000
  H   H235      1.0  0.50730  0.77145  0.40833  1.0000
  C   C198      1.0  0.30396  0.74128  0.66001  1.0000
  C   C199      1.0  0.27089  0.73892  0.66658  1.0000
  H   H236      1.0  0.02918  0.73598  0.61629  1.0000
  S   S51       1.0  0.28411  0.95740  0.67142  1.0000
  H   H237      1.0  0.29063  0.52830  0.34421  1.0000
  H   H238      1.0  0.29357  0.80845  0.66888  1.0000
  H   H239      1.0  0.03780  0.82144  0.65625  1.0000
  C   C200      1.0  0.03571  0.79768  0.66848  1.0000
  S   S52       1.0  0.10860  0.83758  0.66855  1.0000
  S   S53       1.0  0.17270  0.79646  0.66810  1.0000
  S   S54       1.0  0.25774  0.85787  0.67184  1.0000
  C   C201      1.0  0.27849  0.54435  0.34638  1.0000
  C   C202      1.0  0.28979  0.00141  0.47218  1.0000
  H   H240      1.0  0.43180  0.67342  0.67314  1.0000
  Fe  Fe26      1.0  0.21242  0.82169  0.70896  1.0000
  S   S55       1.0  0.19795  0.86375  0.71868  1.0000
  S   S56       1.0  0.21326  0.78329  0.75008  1.0000
  C   C203      1.0  0.42460  0.58260  0.78406  1.0000
  C   C204      1.0  0.06674  0.79795  0.67720  1.0000
  H   H241      1.0  0.49453  0.82072  0.77778  1.0000
  H   H242      1.0  0.36940  0.57433  0.74856  1.0000
  C   C205      1.0  0.13127  0.93820  0.67825  1.0000
  C   C206      1.0  0.48002  0.68743  0.69783  1.0000
  Fe  Fe27      1.0  0.40633  0.70193  0.83145  1.0000
  S   S57       1.0  0.37243  0.65631  0.87039  1.0000
  S   S58       1.0  0.46519  0.72022  0.82463  1.0000
  Fe  Fe28      1.0  0.34433  0.71182  0.81353  1.0000
  S   S59       1.0  0.30592  0.66637  0.85030  1.0000
  S   S60       1.0  0.33797  0.75253  0.78036  1.0000
  Fe  Fe29      1.0  0.34949  0.68901  0.88814  1.0000
  S   S61       1.0  0.33477  0.69871  0.94212  1.0000
  Fe  Fe30      1.0  0.33144  0.63663  0.83016  1.0000
  S   S62       1.0  0.30178  0.57598  0.82534  1.0000
  S   S63       1.0  0.38654  0.73620  0.85212  1.0000
  S   S64       1.0  0.36678  0.68034  0.79037  1.0000
  H   H243      1.0  0.44536  0.64100  0.81961  1.0000
  C   C207      1.0  0.34378  0.69102  0.98511  1.0000
  H   H244      1.0  0.39999  0.60896  0.83238  1.0000
  H   H245      1.0  0.39312  0.62914  0.71764  1.0000
  H   H246      1.0  0.37922  0.67257  0.97198  1.0000
  C   C208      1.0  0.24789  0.77435  0.75719  1.0000
  C   C209      1.0  0.24084  0.74447  0.77863  1.0000
  C   C210      1.0  0.26783  0.73705  0.78581  1.0000
  C   C211      1.0  0.30239  0.75973  0.77186  1.0000
  C   C212      1.0  0.30933  0.78946  0.75022  1.0000
  C   C213      1.0  0.28230  0.79678  0.74296  1.0000
  H   H247      1.0  0.21428  0.72695  0.78977  1.0000
  H   H248      1.0  0.26167  0.71352  0.80168  1.0000
  H   H249      1.0  0.33593  0.80719  0.73930  1.0000
  H   H250      1.0  0.28832  0.82035  0.72719  1.0000
  N   N14       1.0  0.41348  0.60927  0.77882  1.0000
  C   C214      1.0  0.41775  0.62770  0.81092  1.0000
  H   H251      1.0  0.35906  0.56894  0.79355  1.0000
  H   H252      1.0  0.30997  0.70812  0.00729  1.0000
  H   H253      1.0  0.18701  0.94455  0.71151  1.0000
  C   C215      1.0  0.29081  0.56370  0.75593  1.0000
  C   C216      1.0  0.28600  0.54895  0.78946  1.0000
  H   H254      1.0  0.49170  0.77168  0.70532  1.0000
  H   H255      1.0  0.30305  0.59235  0.75133  1.0000
  C   C217      1.0  0.26626  0.82327  0.82446  1.0000
  H   H256      1.0  0.40729  0.56130  0.80406  1.0000
  H   H257      1.0  0.30662  0.60149  0.00694  1.0000
  C   C218      1.0  0.18297  0.93393  0.68557  1.0000
  H   H258      1.0  0.22380  0.71235  0.70224  1.0000
  C   C219      1.0  0.26963  0.51153  0.79483  1.0000
  C   C220      1.0  0.49246  0.74116  0.78672  1.0000
  C   C221      1.0  0.47939  0.74869  0.75728  1.0000
  H   H259      1.0  0.13214  0.94504  0.70544  1.0000
  C   C222      1.0  0.24913  0.71560  0.69474  1.0000
  H   H260      1.0  0.45185  0.74137  0.75715  1.0000
  C   C223      1.0  0.44331  0.66823  0.69525  1.0000
  H   H261      1.0  0.28407  0.55295  0.70233  1.0000
  N   N15       1.0  0.30557  0.76813  0.88685  1.0000
  C   C224      1.0  0.29799  0.76957  0.92372  1.0000
  C   C225      1.0  0.28706  0.73015  0.87814  1.0000
  C   C226      1.0  0.34432  0.78259  0.88195  1.0000
  C   C227      1.0  0.29276  0.78770  0.86552  1.0000
  C   C228      1.0  0.31507  0.81587  0.84085  1.0000
  C   C229      1.0  0.25659  0.77808  0.86844  1.0000
  C   C230      1.0  0.30186  0.83340  0.82087  1.0000
  C   C231      1.0  0.24365  0.79559  0.84810  1.0000
  H   H262      1.0  0.36420  0.60736  0.77047  1.0000
  H   H263      1.0  0.30895  0.75648  0.94037  1.0000
  H   H264      1.0  0.30988  0.79778  0.93092  1.0000
  H   H265      1.0  0.26909  0.75531  0.93060  1.0000
  H   H266      1.0  0.25774  0.71675  0.88157  1.0000
  H   H267      1.0  0.29509  0.71425  0.89451  1.0000
  H   H268      1.0  0.29348  0.72796  0.85104  1.0000
  H   H269      1.0  0.36007  0.81110  0.88837  1.0000
  H   H270      1.0  0.35306  0.76745  0.89865  1.0000
  H   H271      1.0  0.35166  0.78031  0.85511  1.0000
  H   H272      1.0  0.34260  0.82434  0.83578  1.0000
  H   H273      1.0  0.23782  0.75636  0.88595  1.0000
  H   H274      1.0  0.30218  0.68610  0.72515  1.0000
  C   C232      1.0  0.37503  0.58923  0.77229  1.0000
  H   H275      1.0  0.49699  0.70770  0.67806  1.0000
  C   C233      1.0  0.02989  0.73660  0.70078  1.0000
  C   C234      1.0  0.31503  0.72241  0.68093  1.0000
  C   C235      1.0  0.42132  0.64279  0.72120  1.0000
  H   H276      1.0  0.21572  0.78713  0.84994  1.0000
  H   H277      1.0  0.08731  0.76696  0.70000  1.0000
  C   C236      1.0  0.29321  0.70004  0.70844  1.0000
  H   H278      1.0  0.02780  0.71308  0.71361  1.0000
  C   C237      1.0  0.27997  0.54127  0.72818  1.0000
  H   H279      1.0  0.24748  0.97179  0.72676  1.0000
  C   C238      1.0  0.28944  0.99732  0.68758  1.0000
  C   C239      1.0  0.47323  0.65639  0.75273  1.0000
  H   H280      1.0  0.31903  0.85418  0.80161  1.0000
  H   H281      1.0  0.42315  0.56931  0.75993  1.0000
  H   H282      1.0  0.41115  0.64901  0.80731  1.0000
  C   C240      1.0  0.49493  0.68146  0.72648  1.0000
  H   H283      1.0  0.25586  0.83603  0.80799  1.0000
  Fe  Fe31      1.0  0.16158  0.84069  0.67482  1.0000
  H   H284      1.0  0.45216  0.59484  0.79266  1.0000
  H   H285      1.0  0.48604  0.65370  0.77495  1.0000
  C   C241      1.0  0.26018  0.69629  0.71502  1.0000
  C   C242      1.0  0.43575  0.63594  0.75075  1.0000
  C   C243      1.0  0.36656  0.67836  0.99267  1.0000
  H   H286      1.0  0.22807  0.76627  0.68253  1.0000
  C   C244      1.0  0.50210  0.76597  0.72794  1.0000
  H   H287      1.0  0.11338  0.90849  0.67865  1.0000
  C   C245      1.0  0.26755  0.99697  0.71426  1.0000
  H   H288      1.0  0.34086  0.72545  0.67615  1.0000
  H   H289      1.0  0.50235  0.80497  0.83685  1.0000
  H   H290      1.0  0.24353  0.67923  0.73678  1.0000
  Fe  Fe32      1.0  0.24074  0.89828  0.67798  1.0000
  H   H291      1.0  0.20927  0.93982  0.67503  1.0000
  H   H292      1.0  0.32428  0.55750  0.99457  1.0000
  C   C246      1.0  0.06368  0.76710  0.69305  1.0000
  H   H293      1.0  0.16561  0.90430  0.68887  1.0000
  C   C247      1.0  0.76593  0.04583  0.25031  1.0000
  C   C248      1.0  0.53295  0.24734  0.30996  1.0000
  C   C249      1.0  0.74930  0.00863  0.24922  1.0000
  H   H294      1.0  0.79359  0.05970  0.25635  1.0000
  H   H295      1.0  0.89712  0.31543  0.27871  1.0000
  S   S65       1.0  0.81362  0.21560  0.27618  1.0000
  S   S66       1.0  0.86768  0.17771  0.31522  1.0000
  Fe  Fe33      1.0  0.63396  0.31584  0.20817  1.0000
  S   S67       1.0  0.66475  0.35934  0.16647  1.0000
  S   S68       1.0  0.57588  0.30022  0.21664  1.0000
  Fe  Fe34      1.0  0.69902  0.30985  0.22472  1.0000
  S   S69       1.0  0.73396  0.35300  0.18430  1.0000
  S   S70       1.0  0.71647  0.28571  0.26788  1.0000
  Fe  Fe35      1.0  0.70841  0.38297  0.20372  1.0000
  S   S71       1.0  0.74063  0.44370  0.20850  1.0000
  Fe  Fe36      1.0  0.68757  0.32627  0.14981  1.0000
  S   S72       1.0  0.69477  0.31334  0.09456  1.0000
  S   S73       1.0  0.67631  0.34181  0.24613  1.0000
  S   S74       1.0  0.65394  0.28081  0.18950  1.0000
  C   C250      1.0  0.69076  0.32718  0.05183  1.0000
  C   C251      1.0  0.68285  0.35405  0.04483  1.0000
  N   N16       1.0  0.76299  0.10284  0.24747  1.0000
  H   H296      1.0  0.67868  0.36707  0.06581  1.0000
  H   H297      1.0  0.80285  0.40197  0.24859  1.0000
  C   C252      1.0  0.78659  0.23511  0.27437  1.0000
  C   C253      1.0  0.76948  0.23778  0.30366  1.0000
  C   C254      1.0  0.74821  0.25333  0.30104  1.0000
  C   C255      1.0  0.74364  0.26633  0.26919  1.0000
  C   C256      1.0  0.76093  0.26386  0.23991  1.0000
  C   C257      1.0  0.78227  0.24835  0.24254  1.0000
  H   H298      1.0  0.72591  0.38482  0.30675  1.0000
  H   H299      1.0  0.80193  0.10984  0.28378  1.0000
  H   H300      1.0  0.75773  0.27374  0.21523  1.0000
  H   H301      1.0  0.79538  0.24650  0.21968  1.0000
  C   C258      1.0  0.54643  0.27665  0.25273  1.0000
  C   C259      1.0  0.68170  0.48881  0.21974  1.0000
  C   C260      1.0  0.98859  0.24579  0.33024  1.0000
  C   C261      1.0  0.55749  0.26667  0.28221  1.0000
  C   C262      1.0  0.73958  0.47759  0.30446  1.0000
  H   H302      1.0  0.73585  0.10914  0.20472  1.0000
  H   H303      1.0  0.58480  0.27345  0.28350  1.0000
  H   H304      1.0  0.54169  0.23939  0.33249  1.0000
  C   C263      1.0  0.74212  0.11011  0.27278  1.0000
  C   C264      1.0  0.99353  0.33629  0.33524  1.0000
  C   C265      1.0  0.91829  0.26899  0.29628  1.0000
  C   C266      1.0  0.75203  0.02995  0.33581  1.0000
  C   C267      1.0  0.77595  0.38885  0.26155  1.0000
  H   H305      1.0  0.75535  0.13916  0.27758  1.0000
  H   H306      1.0  0.81111  0.45674  0.25846  1.0000
  H   H307      1.0  0.88879  0.25554  0.29687  1.0000
  C   C268      1.0  0.82770  0.49988  0.33147  1.0000
  C   C269      1.0  0.73247  0.45540  0.27685  1.0000
  C   C270      1.0  0.79668  0.37373  0.31190  1.0000
  H   H308      1.0  0.71449  0.42691  0.28074  1.0000
  N   N17       1.0  0.63309  0.42284  0.22703  1.0000
  C   C271      1.0  0.59492  0.41019  0.23350  1.0000
  C   C272      1.0  0.63910  0.42197  0.18964  1.0000
  C   C273      1.0  0.64087  0.39709  0.24465  1.0000
  C   C274      1.0  0.65547  0.45870  0.24043  1.0000
  H   H309      1.0  0.62485  0.36984  0.23503  1.0000
  C   C275      1.0  0.69605  0.31067  0.02390  1.0000
  H   H310      1.0  0.58820  0.42953  0.22176  1.0000
  H   H311      1.0  0.57756  0.38363  0.22272  1.0000
  H   H312      1.0  0.58718  0.40634  0.26126  1.0000
  H   H313      1.0  0.63346  0.44054  0.17458  1.0000
  H   H314      1.0  0.62159  0.39469  0.18038  1.0000
  C   C276      1.0  0.81153  0.45914  0.28585  1.0000
  H   H315      1.0  0.63502  0.39415  0.27273  1.0000
  H   H316      1.0  0.72561  0.34363  0.30508  1.0000
  H   H317      1.0  0.66930  0.40576  0.24029  1.0000
  H   H318      1.0  0.71534  0.10245  0.26419  1.0000
  H   H319      1.0  0.73850  0.09514  0.29774  1.0000
  N   N18       1.0  0.77764  0.39152  0.29926  1.0000
  C   C277      1.0  0.74674  0.06368  0.24515  1.0000
  H   H320      1.0  0.77246  0.22773  0.32833  1.0000
  H   H321      1.0  0.69428  0.05378  0.23304  1.0000
  S   S75       1.0  0.82534  0.07361  0.33130  1.0000
  H   H322      1.0  0.92530  0.25378  0.31477  1.0000
  H   H323      1.0  0.81806  0.11840  0.23949  1.0000
  H   H324      1.0  0.70220  0.28989  0.02880  1.0000
  H   H325      1.0  0.77556  0.14915  0.21452  1.0000
  H   H326      1.0  0.73494  0.25501  0.32387  1.0000
  C   C278      1.0  0.79567  0.42890  0.30977  1.0000
  N   N19       1.0  0.93507  0.30687  0.30502  1.0000
  C   C279      1.0  0.69396  0.00482  0.23717  1.0000
  C   C280      1.0  0.51910  0.18194  0.25802  1.0000
  H   H327      1.0  0.92674  0.26604  0.27030  1.0000
  C   C281      1.0  0.97407  0.32293  0.30536  1.0000
  C   C282      1.0  0.76310  0.11952  0.21364  1.0000
  C   C283      1.0  0.78481  0.03206  0.33271  1.0000
  H   H328      1.0  0.88931  0.29533  0.33722  1.0000
  H   H329      1.0  0.96538  0.22887  0.31628  1.0000
  H   H330      1.0  0.68717  0.48726  0.19305  1.0000
  H   H331      1.0  0.82478  0.38839  0.30176  1.0000
  H   H332      1.0  0.93473  0.32446  0.25253  1.0000
  C   C284      1.0  0.74061  0.37128  0.31409  1.0000
  C   C285      1.0  0.92632  0.32646  0.27892  1.0000
  H   H333      1.0  0.63350  0.44222  0.29308  1.0000
  C   C286      1.0  0.80020  0.12095  0.25825  1.0000
  H   H334      1.0  0.72701  0.46581  0.32946  1.0000
  H   H335      1.0  0.78398  0.34563  0.30381  1.0000
  H   H336      1.0  0.67181  0.50049  0.31628  1.0000
  H   H337      1.0  0.77820  0.11436  0.19378  1.0000
  H   H338      1.0  0.54474  0.19317  0.26930  1.0000
  H   H339      1.0  0.98069  0.31438  0.25174  1.0000
  C   C287      1.0  0.68037  0.36415  0.01058  1.0000
  C   C288      1.0  0.82741  0.49400  0.29676  1.0000
  H   H340      1.0  0.93949  0.35538  0.28391  1.0000
  Fe  Fe37      1.0  0.82476  0.19104  0.32356  1.0000
  C   C289      1.0  0.71040  0.04206  0.23781  1.0000
  C   C290      1.0  0.65217  0.46402  0.27558  1.0000
  H   H341      1.0  0.76205  0.36049  0.25446  1.0000
  C   C291      1.0  0.74856  0.47028  0.24438  1.0000
  H   H342      1.0  0.66690  0.42903  0.18316  1.0000
  C   C292      1.0  0.91857  0.30740  0.33840  1.0000
  H   H343      1.0  0.76117  0.40099  0.25039  1.0000
  H   H344      1.0  0.81150  0.15020  0.26040  1.0000
  C   C293      1.0  0.51737  0.19215  0.22429  1.0000
  C   C294      1.0  0.99369  0.32470  0.27523  1.0000
  H   H345      1.0  0.54154  0.21123  0.20955  1.0000
  C   C295      1.0  0.67377  0.49729  0.28913  1.0000
  H   H346      1.0  0.75109  0.05401  0.33859  1.0000
  H   H347      1.0  0.79677  0.37210  0.34030  1.0000
  H   H348      1.0  0.80784  0.12212  0.59267  1.0000
  H   H349      1.0  0.76596  0.08035  0.59612  1.0000
  Fe  Fe38      1.0  0.81255  0.16373  0.39848  1.0000
  S   S76       1.0  0.78047  0.15324  0.44794  1.0000
  S   S77       1.0  0.85407  0.14857  0.39554  1.0000
  Fe  Fe39      1.0  0.85448  0.18754  0.63032  1.0000
  S   S78       1.0  0.87680  0.19899  0.57586  1.0000
  N   N20       1.0  0.52268  0.28525  0.65023  1.0000
  C   C296      1.0  0.80719  0.16839  0.48349  1.0000
  C   C297      1.0  0.79167  0.16419  0.51639  1.0000
  C   C298      1.0  0.81284  0.17480  0.54505  1.0000
  C   C299      1.0  0.84950  0.18902  0.54082  1.0000
  C   C300      1.0  0.86494  0.19377  0.50788  1.0000
  C   C301      1.0  0.84393  0.18371  0.47931  1.0000
  H   H350      1.0  0.76329  0.15278  0.51969  1.0000
  H   H351      1.0  0.80079  0.17168  0.57031  1.0000
  H   H352      1.0  0.89331  0.20507  0.50440  1.0000
  H   H353      1.0  0.85631  0.18784  0.45407  1.0000
  H   H354      1.0  0.73339  0.06843  0.46728  1.0000
  C   C302      1.0  0.79226  0.03821  0.58222  1.0000
  C   C303      1.0  0.62019  0.31129  0.64054  1.0000
  H   H355      1.0  0.92962  0.33516  0.34651  1.0000
  H   H356      1.0  0.98092  0.33481  0.35973  1.0000
  S   S79       1.0  0.79974  0.16930  0.65142  1.0000
  C   C304      1.0  0.51770  0.28868  0.61311  1.0000
  C   C305      1.0  0.79790  0.02545  0.61403  1.0000
  C   C306      1.0  0.76882  0.01192  0.56013  1.0000
  H   H357      1.0  0.85564  0.09386  0.60398  1.0000
  H   H358      1.0  0.53360  0.33785  0.66125  1.0000
  S   S80       1.0  0.85997  0.14660  0.66162  1.0000
  H   H359      1.0  0.53632  0.31629  0.60199  1.0000
  C   C307      1.0  0.77357  0.06471  0.43909  1.0000
  C   C308      1.0  0.98470  0.25467  0.36335  1.0000
  H   H360      1.0  0.76233  0.01895  0.53573  1.0000
  Fe  Fe40      1.0  0.88740  0.20139  0.36575  1.0000
  S   S81       1.0  0.94259  0.24120  0.38295  1.0000
  H   H361      1.0  0.58104  0.30200  0.60515  1.0000
  C   C309      1.0  0.78231  0.04238  0.42257  1.0000
  H   H362      1.0  0.77528  0.07702  0.53458  1.0000
  Fe  Fe41      1.0  0.83064  0.12603  0.34572  1.0000
  H   H363      1.0  0.81314  0.07451  0.51886  1.0000
  H   H364      1.0  0.79240  0.09327  0.43869  1.0000
  H   H365      1.0  0.92242  0.29138  0.35895  1.0000
  H   H366      1.0  0.81414  0.04370  0.63282  1.0000
  H   H367      1.0  0.80799  0.05384  0.40892  1.0000
  S   S82       1.0  0.84703  0.21823  0.37209  1.0000
  H   H368      1.0  0.86226  0.12424  0.56920  1.0000
  S   S83       1.0  0.78649  0.13746  0.35052  1.0000
  H   H369      1.0  0.86010  0.08282  0.56105  1.0000
  N   N21       1.0  0.80947  0.07721  0.57367  1.0000
  H   H370      1.0  0.64030  0.31755  0.62048  1.0000
  C   C310      1.0  0.58590  0.30240  0.63209  1.0000
  C   C311      1.0  0.84845  0.09508  0.57712  1.0000
  C   C312      1.0  0.80366  0.08612  0.53823  1.0000
  C   C313      1.0  0.79518  0.09267  0.59772  1.0000
  H   H371      1.0  0.52099  0.26910  0.59847  1.0000
  H   H372      1.0  0.00138  0.25345  0.49255  1.0000
  H   H373      1.0  0.81858  0.11552  0.53199  1.0000
  C   C314      1.0  0.74021  0.05050  0.45540  1.0000
  H   H374      1.0  0.79999  0.08842  0.62477  1.0000
  C   C315      1.0  0.55917  0.29438  0.65797  1.0000
  H   H375      1.0  0.01025  0.26676  0.55286  1.0000
  S   S84       1.0  0.88055  0.23030  0.66749  1.0000
  C   C316      1.0  0.75782  0.00559  0.42249  1.0000
  C   C317      1.0  0.71545  0.01376  0.45546  1.0000
  C   C318      1.0  0.51354  0.30919  0.66790  1.0000
  H   H376      1.0  0.78646  0.41441  0.36471  1.0000
  H   H377      1.0  0.81311  0.47572  0.38257  1.0000
  C   C319      1.0  0.81300  0.47093  0.35559  1.0000
  H   H378      1.0  0.73923  0.36806  0.34245  1.0000
  C   C320      1.0  0.79752  0.43595  0.34503  1.0000
  H   H379      1.0  0.70522  0.00507  0.66644  1.0000
  H   H380      1.0  0.68962  0.00423  0.46770  1.0000
  C   C321      1.0  0.89111  0.25846  0.75679  1.0000
  C   C322      1.0  0.52045  0.29687  0.77971  1.0000
  H   H381      1.0  0.94664  0.25964  0.77558  1.0000
  C   C323      1.0  0.97966  0.26669  0.69235  1.0000
  C   C324      1.0  0.97812  0.34803  0.75266  1.0000
  H   H382      1.0  0.90221  0.30716  0.80275  1.0000
  H   H383      1.0  0.52893  0.21372  0.76908  1.0000
  S   S85       1.0  0.80993  0.24954  0.70292  1.0000
  S   S86       1.0  0.82939  0.16878  0.72811  1.0000
  Fe  Fe42      1.0  0.64441  0.30866  0.82135  1.0000
  S   S87       1.0  0.69500  0.32752  0.78962  1.0000
  S   S88       1.0  0.59351  0.26690  0.79702  1.0000
  Fe  Fe43      1.0  0.68556  0.34424  0.88563  1.0000
  S   S89       1.0  0.73849  0.36461  0.85768  1.0000
  S   S90       1.0  0.68246  0.36197  0.93989  1.0000
  Fe  Fe44      1.0  0.71588  0.38029  0.81373  1.0000
  S   S91       1.0  0.75403  0.43022  0.77975  1.0000
  Fe  Fe45      1.0  0.71393  0.31070  0.83531  1.0000
  S   S92       1.0  0.73937  0.27629  0.83406  1.0000
  S   S93       1.0  0.66385  0.36290  0.84230  1.0000
  S   S94       1.0  0.66237  0.28890  0.86639  1.0000
  Fe  Fe46      1.0  0.82594  0.20846  0.69218  1.0000
  C   C325      1.0  0.68556  0.34754  0.98268  1.0000
  H   H384      1.0  0.72954  0.44037  0.94424  1.0000
  H   H385      1.0  0.87157  0.30420  0.77138  1.0000
  H   H386      1.0  0.69756  0.30755  0.96872  1.0000
  C   C326      1.0  0.55467  0.26746  0.78610  1.0000
  H   H387      1.0  0.59475  0.19080  0.79521  1.0000
  H   H388      1.0  0.57259  0.32095  0.80063  1.0000
  C   C327      1.0  0.56876  0.29502  0.69245  1.0000
  C   C328      1.0  0.79073  0.25647  0.74001  1.0000
  C   C329      1.0  0.78219  0.28347  0.73818  1.0000
  C   C330      1.0  0.76643  0.28982  0.76666  1.0000
  C   C331      1.0  0.75928  0.26937  0.79747  1.0000
  C   C332      1.0  0.76799  0.24247  0.79939  1.0000
  C   C333      1.0  0.78353  0.23592  0.77079  1.0000
  H   H389      1.0  0.78767  0.29954  0.71450  1.0000
  H   H390      1.0  0.76009  0.31075  0.76483  1.0000
  H   H391      1.0  0.76251  0.22647  0.82311  1.0000
  H   H392      1.0  0.78971  0.21490  0.77254  1.0000
  C   C334      1.0  0.97606  0.23755  0.71233  1.0000
  H   H393      1.0  0.66643  0.10848  0.75372  1.0000
  C   C335      1.0  0.96422  0.28813  0.77041  1.0000
  H   H394      1.0  0.92382  0.33794  0.71153  1.0000
  H   H395      1.0  0.91452  0.34371  0.77185  1.0000
  N   N22       1.0  0.91436  0.29802  0.75203  1.0000
  Fe  Fe47      1.0  0.88277  0.18848  0.70046  1.0000
  C   C336      1.0  0.76000  0.47325  0.76996  1.0000
  H   H396      1.0  0.71806  0.46733  0.80411  1.0000
  C   C337      1.0  0.55134  0.29739  0.78991  1.0000
  H   H397      1.0  0.73227  0.48085  0.92903  1.0000
  H   H398      1.0  0.71076  0.41829  0.88951  1.0000
  C   C338      1.0  0.75375  0.03248  0.69304  1.0000
  C   C339      1.0  0.69957  0.15799  0.72429  1.0000
  H   H399      1.0  0.88348  0.29660  0.70913  1.0000
  H   H400      1.0  0.54977  0.28861  0.71345  1.0000
  H   H401      1.0  0.80097  0.05142  0.72136  1.0000
  Fe  Fe48      1.0  0.80657  0.13052  0.68565  1.0000
  H   H402      1.0  0.76195  0.41768  0.91714  1.0000
  H   H403      1.0  0.80347  0.48784  0.73353  1.0000
  H   H404      1.0  0.59572  0.15100  0.78843  1.0000
  C   C340      1.0  0.74791  0.46740  0.93142  1.0000
  H   H405      1.0  0.71787  0.45945  0.86971  1.0000
  H   H406      1.0  0.80377  0.45907  0.91845  1.0000
  N   N23       1.0  0.76190  0.46469  0.89746  1.0000
  C   C341      1.0  0.77829  0.02824  0.71169  1.0000
  H   H407      1.0  0.68210  0.20708  0.82592  1.0000
  S   S95       1.0  0.93357  0.20068  0.72611  1.0000
  H   H408      1.0  0.63604  0.13167  0.78767  1.0000
  N   N24       1.0  0.64731  0.19977  0.78521  1.0000
  C   C342      1.0  0.65327  0.19522  0.82181  1.0000
  C   C343      1.0  0.66045  0.23831  0.77751  1.0000
  C   C344      1.0  0.60857  0.17983  0.78020  1.0000
  C   C345      1.0  0.66503  0.18581  0.76354  1.0000
  C   C346      1.0  0.65606  0.14959  0.76846  1.0000
  S   S96       1.0  0.75728  0.07462  0.68578  1.0000
  C   C347      1.0  0.73106  0.44411  0.87616  1.0000
  H   H409      1.0  0.00441  0.21644  0.73906  1.0000
  C   C348      1.0  0.77995  0.44414  0.90315  1.0000
  H   H410      1.0  0.64358  0.20868  0.83879  1.0000
  H   H411      1.0  0.63962  0.16670  0.83133  1.0000
  H   H412      1.0  0.65532  0.24372  0.75087  1.0000
  H   H413      1.0  0.68932  0.25514  0.78153  1.0000
  H   H414      1.0  0.64709  0.24806  0.79467  1.0000
  H   H415      1.0  0.60313  0.18175  0.75277  1.0000
  C   C349      1.0  0.70858  0.19344  0.71838  1.0000
  C   C350      1.0  0.95205  0.31114  0.75870  1.0000
  C   C351      1.0  0.91161  0.30857  0.71617  1.0000
  H   H416      1.0  0.70080  0.23530  0.73217  1.0000
  H   H417      1.0  0.00913  0.28291  0.78201  1.0000
  C   C352      1.0  0.69175  0.20735  0.73764  1.0000
  H   H418      1.0  0.92486  0.29972  0.69783  1.0000
  C   C353      1.0  0.52671  0.23707  0.77207  1.0000
  H   H419      1.0  0.86318  0.24929  0.75053  1.0000
  H   H420      1.0  0.71333  0.14768  0.70971  1.0000
  H   H421      1.0  0.73868  0.43725  0.85164  1.0000
  H   H422      1.0  0.95633  0.26631  0.68374  1.0000
  C   C354      1.0  0.90014  0.31404  0.77551  1.0000
  H   H423      1.0  0.90038  0.24468  0.73984  1.0000
  C   C355      1.0  0.69343  0.32066  0.98966  1.0000
  C   C356      1.0  0.73940  0.48512  0.78591  1.0000
  H   H424      1.0  0.72946  0.21056  0.69926  1.0000
  H   H425      1.0  0.89006  0.24865  0.78375  1.0000
  H   H426      1.0  0.97084  0.36723  0.74431  1.0000
  C   C357      1.0  0.67323  0.13604  0.74916  1.0000
  C   C358      1.0  0.80208  0.50125  0.84655  1.0000
  H   H427      1.0  0.60966  0.30439  0.72727  1.0000
  C   C359      1.0  0.60304  0.30392  0.70062  1.0000
  H   H428      1.0  0.79660  0.47711  0.83455  1.0000
  C   C360      1.0  0.78738  0.49672  0.74603  1.0000
  H   H429      1.0  0.78879  0.43821  0.87877  1.0000
  H   H430      1.0  0.76964  0.48184  0.94917  1.0000
  H   H431      1.0  0.51185  0.30491  0.69625  1.0000
  H   H432      1.0  0.65539  0.31928  0.68123  1.0000
  C   C361      1.0  0.00689  0.23877  0.72349  1.0000
  C   C362      1.0  0.00033  0.30119  0.77434  1.0000
  H   H433      1.0  0.51826  0.32022  0.78273  1.0000
  C   C363      1.0  0.78670  0.49975  0.87932  1.0000
  H   H434      1.0  0.67420  0.38490  0.00571  1.0000
  C   C364      1.0  0.62877  0.31220  0.67472  1.0000
  C   C365      1.0  0.72113  0.96513  0.33051  1.0000
  H   H435      1.0  0.96339  0.74732  0.29524  1.0000
  C   C366      1.0  0.52960  0.77250  0.28375  1.0000
  Fe  Fe49      1.0  0.67291  0.86808  0.33258  1.0000
  C   C367      1.0  0.77758  0.73018  0.30198  1.0000
  C   C368      1.0  0.75733  0.77781  0.32658  1.0000
  S   S97       1.0  0.83929  0.64359  0.29580  1.0000
  H   H436      1.0  0.59460  0.81320  0.20105  1.0000
  C   C369      1.0  0.98587  0.74730  0.30594  1.0000
  H   H437      1.0  0.76417  0.99547  0.25434  1.0000
  H   H438      1.0  0.70035  0.95916  0.24370  1.0000
  C   C370      1.0  0.73724  0.75347  0.30239  1.0000
  S   S98       1.0  0.58188  0.75541  0.27349  1.0000
  S   S99       1.0  0.67992  0.83579  0.29272  1.0000
  C   C371      1.0  0.53923  0.74993  0.26876  1.0000
  C   C372      1.0  0.78559  0.00050  0.32919  1.0000
  Fe  Fe50      1.0  0.81735  0.67642  0.31743  1.0000
  H   H439      1.0  0.54840  0.79399  0.29860  1.0000
  C   C373      1.0  0.57061  0.80175  0.18682  1.0000
  Fe  Fe51      1.0  0.62388  0.79216  0.30965  1.0000
  H   H440      1.0  0.72345  0.54439  0.21759  1.0000
  H   H441      1.0  0.71657  0.55167  0.27898  1.0000
  C   C374      1.0  0.56816  0.78375  0.15747  1.0000
  C   C375      1.0  0.98044  0.71786  0.32674  1.0000
  C   C376      1.0  0.77886  0.52982  0.26755  1.0000
  C   C377      1.0  0.70291  0.52204  0.23354  1.0000
  H   H442      1.0  0.79672  0.55846  0.26369  1.0000
  C   C378      1.0  0.53677  0.76776  0.13980  1.0000
  S   S100      1.0  0.78861  0.69897  0.28698  1.0000
  H   H443      1.0  0.71396  0.75290  0.29306  1.0000
  H   H444      1.0  0.82130  0.75564  0.33497  1.0000
  Fe  Fe52      1.0  0.88144  0.66907  0.33486  1.0000
  C   C379      1.0  0.74752  0.72999  0.28997  1.0000
  S   S101      1.0  0.77037  0.54154  0.33574  1.0000
  H   H445      1.0  0.73193  0.71135  0.27115  1.0000
  C   C380      1.0  0.76275  0.51492  0.30001  1.0000
  C   C381      1.0  0.75389  0.96709  0.32845  1.0000
  C   C382      1.0  0.54181  0.80414  0.19849  1.0000
  C   C383      1.0  0.72037  0.99668  0.33427  1.0000
  H   H446      1.0  0.81088  0.00195  0.32672  1.0000
  H   H447      1.0  0.59059  0.78166  0.14879  1.0000
  S   S102      1.0  0.93784  0.67912  0.33540  1.0000
  C   C384      1.0  0.77180  0.50758  0.23995  1.0000
  Fe  Fe53      1.0  0.69698  0.81275  0.33615  1.0000
  H   H448      1.0  0.53659  0.75382  0.11759  1.0000
  S   S103      1.0  0.68050  0.92399  0.32882  1.0000
  C   C385      1.0  0.79780  0.75478  0.32592  1.0000
  H   H449      1.0  0.52172  0.70481  0.23744  1.0000
  C   C386      1.0  0.71332  0.98812  0.24318  1.0000
  H   H450      1.0  0.75485  0.94302  0.32555  1.0000
  Fe  Fe54      1.0  0.80604  0.60239  0.33804  1.0000
  H   H451      1.0  0.69515  0.99544  0.33570  1.0000
  H   H452      1.0  0.78440  0.51943  0.21496  1.0000
  H   H453      1.0  0.66595  0.98870  0.23247  1.0000
  C   C387      1.0  0.51452  0.72243  0.24910  1.0000
  H   H454      1.0  0.54359  0.81760  0.22171  1.0000
  C   C388      1.0  0.78768  0.77837  0.33815  1.0000
  H   H455      1.0  0.83836  0.51664  0.27808  1.0000
  C   C389      1.0  0.69903  0.52624  0.26814  1.0000
  C   C390      1.0  0.01002  0.71812  0.34007  1.0000
  H   H456      1.0  0.54988  0.74541  0.34053  1.0000
  H   H457      1.0  0.83869  0.52693  0.33961  1.0000
  C   C391      1.0  0.70411  0.63983  0.39475  1.0000
  S   S104      1.0  0.84901  0.62563  0.37601  1.0000
  Fe  Fe55      1.0  0.82794  0.66042  0.39089  1.0000
  S   S105      1.0  0.82292  0.67934  0.44252  1.0000
  H   H458      1.0  0.78679  0.97975  0.64715  1.0000
  Fe  Fe56      1.0  0.67741  0.84974  0.61597  1.0000
  S   S106      1.0  0.72183  0.85359  0.64624  1.0000
  S   S107      1.0  0.69436  0.87450  0.56211  1.0000
  H   H459      1.0  0.67845  0.68354  0.38922  1.0000
  C   C392      1.0  0.70334  0.69707  0.45613  1.0000
  Fe  Fe57      1.0  0.63825  0.80455  0.38546  1.0000
  S   S108      1.0  0.61098  0.78375  0.43814  1.0000
  S   S109      1.0  0.69436  0.84890  0.37426  1.0000
  Fe  Fe58      1.0  0.85287  0.64932  0.63054  1.0000
  S   S110      1.0  0.85885  0.62755  0.58102  1.0000
  H   H460      1.0  0.64565  0.91799  0.41742  1.0000
  C   C393      1.0  0.67069  0.84840  0.52846  1.0000
  C   C394      1.0  0.68684  0.85788  0.49548  1.0000
  C   C395      1.0  0.66864  0.83805  0.46785  1.0000
  C   C396      1.0  0.63410  0.80875  0.47283  1.0000
  C   C397      1.0  0.61805  0.79888  0.50599  1.0000
  C   C398      1.0  0.63638  0.81863  0.53384  1.0000
  H   H461      1.0  0.71368  0.88040  0.49132  1.0000
  H   H462      1.0  0.68173  0.84502  0.44287  1.0000
  H   H463      1.0  0.59138  0.77608  0.51014  1.0000
  H   H464      1.0  0.62372  0.81118  0.55929  1.0000
  H   H465      1.0  0.74467  0.65566  0.51499  1.0000
  H   H466      1.0  0.67583  0.62553  0.40427  1.0000
  C   C399      1.0  0.83124  0.66314  0.48085  1.0000
  C   C400      1.0  0.83007  0.67828  0.51144  1.0000
  C   C401      1.0  0.83810  0.66724  0.54243  1.0000
  C   C402      1.0  0.84740  0.64103  0.54288  1.0000
  C   C403      1.0  0.84849  0.62580  0.51229  1.0000
  C   C404      1.0  0.84025  0.63670  0.48129  1.0000
  H   H467      1.0  0.82320  0.69882  0.51115  1.0000
  H   H468      1.0  0.83730  0.67912  0.56592  1.0000
  H   H469      1.0  0.85552  0.60537  0.51261  1.0000
  H   H470      1.0  0.84104  0.62478  0.45783  1.0000
  H   H471      1.0  0.93964  0.77721  0.45570  1.0000
  H   H472      1.0  0.71042  0.69407  0.35501  1.0000
  H   H473      1.0  0.71810  0.93845  0.39552  1.0000
  S   S111      1.0  0.88988  0.70700  0.64068  1.0000
  H   H474      1.0  0.92891  0.67160  0.62793  1.0000
  C   C405      1.0  0.70994  0.92997  0.42297  1.0000
  H   H475      1.0  0.93949  0.68670  0.41745  1.0000
  N   N25       1.0  0.72279  0.67797  0.40320  1.0000
  H   H476      1.0  0.70603  0.93974  0.49033  1.0000
  H   H477      1.0  0.68813  0.71120  0.50297  1.0000
  C   C406      1.0  0.72560  0.78931  0.44393  1.0000
  H   H478      1.0  0.74642  0.93539  0.60776  1.0000
  Fe  Fe59      1.0  0.68237  0.79763  0.66654  1.0000
  C   C407      1.0  0.66603  0.94679  0.41948  1.0000
  C   C408      1.0  0.54497  0.73186  0.36643  1.0000
  H   H479      1.0  0.57008  0.74619  0.38004  1.0000
  H   H480      1.0  0.68901  0.90114  0.42322  1.0000
  H   H481      1.0  0.53213  0.78572  0.36731  1.0000
  N   N26       1.0  0.94328  0.73183  0.44209  1.0000
  C   C409      1.0  0.79405  0.74867  0.66864  1.0000
  H   H482      1.0  0.66406  0.90661  0.47514  1.0000
  H   H483      1.0  0.93461  0.64271  0.56279  1.0000
  C   C410      1.0  0.76202  0.78070  0.67432  1.0000
  C   C411      1.0  0.71621  0.68372  0.51292  1.0000
  S   S112      1.0  0.65798  0.87171  0.65601  1.0000
  H   H484      1.0  0.94336  0.69735  0.58776  1.0000
  S   S113      1.0  0.63889  0.79266  0.63338  1.0000
  H   H485      1.0  0.92840  0.76480  0.41250  1.0000
  N   N27       1.0  0.69654  0.95139  0.43897  1.0000
  N   N28       1.0  0.73534  0.80008  0.55315  1.0000
  C   C412      1.0  0.75866  0.83871  0.55864  1.0000
  C   C413      1.0  0.70127  0.78722  0.57293  1.0000
  C   C414      1.0  0.75174  0.78032  0.56786  1.0000
  C   C415      1.0  0.73121  0.79519  0.51592  1.0000
  C   C416      1.0  0.69817  0.78242  0.50034  1.0000
  C   C417      1.0  0.76118  0.80460  0.49377  1.0000
  C   C418      1.0  0.75829  0.80167  0.45835  1.0000
  H   H486      1.0  0.74753  0.85457  0.54736  1.0000
  H   H487      1.0  0.76167  0.84376  0.58640  1.0000
  H   H488      1.0  0.78585  0.84996  0.54692  1.0000
  H   H489      1.0  0.70531  0.79078  0.60080  1.0000
  H   H490      1.0  0.68236  0.75816  0.57039  1.0000
  H   H491      1.0  0.68842  0.80253  0.56508  1.0000
  H   H492      1.0  0.77914  0.79063  0.55721  1.0000
  H   H493      1.0  0.75395  0.78256  0.59611  1.0000
  H   H494      1.0  0.73560  0.75130  0.56332  1.0000
  H   H495      1.0  0.67398  0.77531  0.51479  1.0000
  H   H496      1.0  0.78728  0.81506  0.50360  1.0000
  N   N29       1.0  0.97185  0.67096  0.60148  1.0000
  H   H497      1.0  0.95826  0.62138  0.57879  1.0000
  H   H498      1.0  0.77393  0.68212  0.40364  1.0000
  H   H499      1.0  0.94618  0.73515  0.49695  1.0000
  C   C419      1.0  0.68369  0.93594  0.47453  1.0000
  H   H500      1.0  0.89767  0.68434  0.42484  1.0000
  C   C420      1.0  0.73462  0.66507  0.46315  1.0000
  H   H501      1.0  0.67027  0.77022  0.45343  1.0000
  H   H502      1.0  0.67482  0.95880  0.39284  1.0000
  C   C421      1.0  0.92670  0.75407  0.43920  1.0000
  H   H503      1.0  0.89782  0.73828  0.44691  1.0000
  H   H504      1.0  0.92804  0.71344  0.39130  1.0000
  H   H505      1.0  0.76621  0.99018  0.40842  1.0000
  C   C422      1.0  0.98189  0.75421  0.43324  1.0000
  H   H506      1.0  0.73279  0.93182  0.43651  1.0000
  H   H507      1.0  0.80360  0.79732  0.35660  1.0000
  H   H508      1.0  0.78160  0.80962  0.44178  1.0000
  H   H509      1.0  0.94458  0.69583  0.48079  1.0000
  C   C423      1.0  0.93488  0.71480  0.47741  1.0000
  C   C424      1.0  0.94604  0.63730  0.58578  1.0000
  H   H510      1.0  0.99861  0.64769  0.62751  1.0000
  H   H511      1.0  0.90577  0.69892  0.48348  1.0000
  C   C425      1.0  0.00334  0.69543  0.57877  1.0000
  H   H512      1.0  0.00163  0.74502  0.48155  1.0000
  H   H513      1.0  0.74764  0.65162  0.45342  1.0000
  C   C426      1.0  0.52704  0.76944  0.39178  1.0000
  H   H514      1.0  0.65251  0.95963  0.43138  1.0000
  H   H515      1.0  0.53263  0.72495  0.43472  1.0000
  C   C427      1.0  0.76056  0.69499  0.39139  1.0000
  C   C428      1.0  0.92644  0.70286  0.41801  1.0000
  H   H516      1.0  0.97821  0.76727  0.66938  1.0000
  C   C429      1.0  0.76315  0.71921  0.65765  1.0000
  H   H517      1.0  0.76338  0.69547  0.65102  1.0000
  H   H518      1.0  0.92275  0.61969  0.60372  1.0000
  H   H519      1.0  0.55230  0.78254  0.40541  1.0000
  H   H520      1.0  0.72362  0.78788  0.41637  1.0000
  C   C430      1.0  0.69559  0.77941  0.46489  1.0000
  C   C431      1.0  0.73290  0.66710  0.49862  1.0000
  H   H521      1.0  0.67000  0.94791  0.48769  1.0000
  S   S114      1.0  0.80512  0.64526  0.65798  1.0000
  H   H522      1.0  0.71469  0.68491  0.54048  1.0000
  H   H523      1.0  0.97591  0.77050  0.38141  1.0000
  C   C432      1.0  0.73081  0.75074  0.66468  1.0000
  C   C433      1.0  0.72020  0.68027  0.44072  1.0000
  C   C434      1.0  0.99422  0.77288  0.40062  1.0000
  C   C435      1.0  0.70737  0.69595  0.38309  1.0000
  S   S115      1.0  0.64178  0.76719  0.35012  1.0000
  H   H524      1.0  0.70482  0.63714  0.36655  1.0000
  H   H525      1.0  0.54032  0.70468  0.36301  1.0000
  C   C436      1.0  0.75926  0.96379  0.60057  1.0000
  C   C437      1.0  0.72356  0.99006  0.43920  1.0000
  H   H526      1.0  0.71657  0.62533  0.40605  1.0000
  H   H527      1.0  0.77584  0.72385  0.39678  1.0000
  H   H528      1.0  0.98835  0.66380  0.53320  1.0000
  H   H529      1.0  0.69144  0.70922  0.44125  1.0000
  H   H530      1.0  0.76336  0.69262  0.36349  1.0000
  C   C438      1.0  0.70136  0.69855  0.49175  1.0000
  C   C439      1.0  0.78199  0.98881  0.62273  1.0000
  C   C440      1.0  0.95268  0.68935  0.61081  1.0000
  H   H531      1.0  0.73461  0.95551  0.55251  1.0000
  S   S116      1.0  0.78178  0.63347  0.35721  1.0000
  H   H532      1.0  0.00611  0.69547  0.35615  1.0000
  C   C441      1.0  0.00777  0.68792  0.54456  1.0000
  H   H533      1.0  0.95999  0.64203  0.65086  1.0000
  H   H534      1.0  0.96918  0.71368  0.62497  1.0000
  C   C442      1.0  0.98317  0.66075  0.63330  1.0000
  C   C443      1.0  0.73161  0.72015  0.65603  1.0000
  H   H535      1.0  0.70759  0.69686  0.64845  1.0000
  Fe  Fe60      1.0  0.84347  0.70143  0.67225  1.0000
  C   C444      1.0  0.75264  0.97529  0.56939  1.0000
  H   H536      1.0  0.72111  0.72514  0.38728  1.0000
  N   N30       1.0  0.51520  0.73163  0.38533  1.0000
  H   H537      1.0  0.99989  0.68410  0.64857  1.0000
  C   C445      1.0  0.00820  0.75820  0.45626  1.0000
  S   S117      1.0  0.74553  0.80751  0.34396  1.0000
  S   S118      1.0  0.86248  0.70535  0.35229  1.0000
  S   S119      1.0  0.68999  0.74973  0.66416  1.0000
  S   S120      1.0  0.61594  0.82570  0.34645  1.0000
  N   N31       1.0  0.76330  0.67372  0.76621  1.0000
  S   S121      1.0  0.66378  0.81565  0.71169  1.0000
  H   H538      1.0  0.84787  0.59094  0.82652  1.0000
  H   H539      1.0  0.69472  0.72341  0.73627  1.0000
  C   C446      1.0  0.76145  0.65861  0.73258  1.0000
  C   C447      1.0  0.52110  0.83189  0.78692  1.0000
  S   S122      1.0  0.73657  0.92013  0.71721  1.0000
  H   H540      1.0  0.81722  0.80257  0.68477  1.0000
  C   C448      1.0  0.52838  0.75091  0.78636  1.0000
  H   H541      1.0  0.61961  0.84371  0.73826  1.0000
  Fe  Fe61      1.0  0.82304  0.62801  0.70491  1.0000
  S   S123      1.0  0.85943  0.68426  0.72049  1.0000
  S   S124      1.0  0.78245  0.58788  0.74581  1.0000
  H   H542      1.0  0.76713  0.65932  0.81872  1.0000
  H   H543      1.0  0.82342  0.59056  0.88425  1.0000
  H   H544      1.0  0.52345  0.69720  0.72876  1.0000
  H   H545      1.0  0.76180  0.80441  0.68106  1.0000
  H   H546      1.0  0.59374  0.87275  0.70431  1.0000
  C   C449      1.0  0.63711  0.87032  0.74870  1.0000
  C   C450      1.0  0.77402  0.54369  0.75431  1.0000
  H   H547      1.0  0.76311  0.67675  0.71099  1.0000
  C   C451      1.0  0.74655  0.52024  0.77825  1.0000
  C   C452      1.0  0.79644  0.70931  0.76634  1.0000
  C   C453      1.0  0.67180  0.68512  0.77949  1.0000
  H   H548      1.0  0.79745  0.72287  0.79013  1.0000
  H   H549      1.0  0.63434  0.91479  0.70166  1.0000
  C   C454      1.0  0.76582  0.64970  0.79260  1.0000
  C   C455      1.0  0.53795  0.77553  0.72749  1.0000
  H   H550      1.0  0.65240  0.92108  0.79225  1.0000
  H   H551      1.0  0.57852  0.77511  0.75699  1.0000
  C   C456      1.0  0.74315  0.96324  0.70696  1.0000
  H   H552      1.0  0.74323  0.62160  0.79198  1.0000
  H   H553      1.0  0.66558  0.94200  0.75037  1.0000
  H   H554      1.0  0.73064  0.52923  0.79085  1.0000
  C   C457      1.0  0.83136  0.56584  0.84140  1.0000
  H   H555      1.0  0.83447  0.53404  0.80251  1.0000
  H   H556      1.0  0.66099  0.88564  0.73099  1.0000
  H   H557      1.0  0.78367  0.65387  0.72802  1.0000
  H   H558      1.0  0.62783  0.93915  0.77267  1.0000
  C   C458      1.0  0.79430  0.53165  0.73814  1.0000
  C   C459      1.0  0.55946  0.83624  0.83192  1.0000
  N   N32       1.0  0.61782  0.88965  0.75283  1.0000
  C   C460      1.0  0.67542  0.66131  0.80147  1.0000
  C   C461      1.0  0.73200  0.67758  0.77163  1.0000
  C   C462      1.0  0.79531  0.53300  0.89267  1.0000
  C   C463      1.0  0.77272  0.99369  0.71899  1.0000
  H   H559      1.0  0.73640  0.63238  0.73092  1.0000
  H   H560      1.0  0.59522  0.91236  0.71919  1.0000
  C   C464      1.0  0.58581  0.86758  0.77580  1.0000
  C   C465      1.0  0.58925  0.85830  0.81014  1.0000
  C   C466      1.0  0.55068  0.85360  0.76477  1.0000
  H   H561      1.0  0.78511  0.53463  0.91742  1.0000
  C   C467      1.0  0.00189  0.76702  0.67589  1.0000
  S   S125      1.0  0.56490  0.79646  0.68940  1.0000
  H   H562      1.0  0.81549  0.54929  0.71968  1.0000
  H   H563      1.0  0.79011  0.64811  0.78796  1.0000
  H   H564      1.0  0.82057  0.70716  0.76449  1.0000
  C   C468      1.0  0.69768  0.70510  0.75363  1.0000
  H   H565      1.0  0.61505  0.86739  0.82016  1.0000
  H   H566      1.0  0.54518  0.85809  0.73890  1.0000
  H   H567      1.0  0.56265  0.82875  0.85777  1.0000
  C   C469      1.0  0.52545  0.82300  0.82030  1.0000
  H   H568      1.0  0.79937  0.72759  0.74418  1.0000
  H   H569      1.0  0.64687  0.86569  0.77319  1.0000
  C   C470      1.0  0.64180  0.92438  0.76775  1.0000
  C   C471      1.0  0.70497  0.65735  0.79766  1.0000
  C   C472      1.0  0.72733  0.70147  0.74973  1.0000
  C   C473      1.0  0.55105  0.76798  0.75692  1.0000
  H   H570      1.0  0.70593  0.63819  0.81527  1.0000
  C   C474      1.0  0.60972  0.89768  0.71806  1.0000
  H   H571      1.0  0.65510  0.64568  0.82147  1.0000
  H   H572      1.0  0.74650  0.71738  0.72914  1.0000
  Fe  Fe62      1.0  0.69970  0.87181  0.68779  1.0000
  H   H573      1.0  0.64883  0.68802  0.78235  1.0000
  C   C475      1.0  0.82390  0.53380  0.82792  1.0000
  C   C476      1.0  0.71921  0.96769  0.68749  1.0000
  C   C477      1.0  0.81737  0.56549  0.87382  1.0000
  H   H574      1.0  0.53876  0.74533  0.80906  1.0000
  S   S126      1.0  0.95712  0.69713  0.70271  1.0000
  H   H575      1.0  0.69664  0.94472  0.67770  1.0000
  S   S127      1.0  0.86717  0.62720  0.67616  1.0000
  C   C478      1.0  0.99885  0.73643  0.69243  1.0000
  H   H576      1.0  0.79142  0.99057  0.73407  1.0000
  Fe  Fe63      1.0  0.62302  0.81458  0.67704  1.0000
  Fe  Fe64      1.0  0.90240  0.68496  0.68758  1.0000
  S   S128      1.0  0.83355  0.74786  0.67465  1.0000
  C   C479      1.0  0.79341  0.77956  0.67641  1.0000
  C   C480      1.0  0.72426  0.00203  0.68098  1.0000
