data_image0
_chemical_formula_structural       FeS2FeS2FeNFeS3FeSFeS2FeS2FeSFeS3FeSHC5H2C6H5C6H4C3H2C6H4NC5H10NHC4HCNH9C2H2C3H3CH5CHC2H3CH3C3H6C2H4NH2CHNH2C3H2CH2C4SHC2H2CHSCHC2HC3HCHC2H3C2H2CHCH2FeS3HCSH2C3H4C6H4FeSCFeS2C6H5C5H4NC9H14SH2CH2CH2CHCHCHC2NC3H2C2H2CH4C4FeCHSC3H3CHC3HCHCH3NCFeS2FeS2FeSFeHS2Fe2SHFeS2FeS2FeSFeS2H2SC4H3C6H4C6H4C2SH2C6H4NC9H14NC7H11C2SH2CHC2HCHNHC2H3C2SH4C2HCH2CH2CH4SCHFeS2FeS2FeSFeCS2HSHFeHSHSH3C2HCNH3C3H2CHC6H4CFeHC3HCHCHCH3FeCNH2CHCH2CHCH2C3NC4HCH5CH2SHCHSHC2HSHCH5C3H2SH4C2HFeH5C2H3SC3H5FeS2FeS2Fe2S2H2SC3H2C2H2C4H2C6H4FeS2FeS4CSC4H2C4H2C2H3C6H4CHCH5CSH2C3H2CNC6H12NCHCH4CHCHC2H5CFeHNHCHC2H6NCHC2H3C2FeCHCHCH3CH2SFeS2FeS2FeSFeS3CHSCSC2FeSH4CSC2H2CHCSCFeCHC7H4CHC4H2NC9H4CH9C2SH6CHC2H3CH7CH3CHC2H2CH2CHCNCHC4HNCH3CS2FeH2CNFeS2FeS2FeSFeS2H3SCFeSH4CH2CH2CH3C2H2C6H4C2SHCH2C2S2NH5CH3CHC2SHSH2CH2CH3C2H5CH5CHCFeHCHNC9HCH2SHCHC2H3CH2C2HFeCHCHFeSFeS2FeS3CH2C6H2C3H2C5H5S2FeS2FeSFeS3C5H4C3H2C6H4C5H4CH2CNC7NCH12CHCHC2H2C2H2CHFeHCSHC2HCHCNH3CH6NHCHCSCHFeH5CHC2HCH2C4HCH4C3H2CH2CNHFeS2FeS2FeSFeS3HCFeSHFeS2H2FeHC3H4C4H2C7H4C2HC2H3C3H2CSHC2HC2HC3H2C2HSH3NH2NC6NCH16C3HFeHC2HSC2H2C3H3CSHSHCH3C3HCH2CHNSFeH2CH2FeS2FeS2FeCFeS3FeS2FeSCFeSFeS3FeHSCHFeS2C6H4CHC2H4C6H4C6H6CHNC9H15NSH2C3HCHC3HCHCH3C3H2CHC4HCHCH3C2HCH2NH2SH2CHCSH2C2H3C5H7N2H2CSH2FeS2FeS2HC5H3C8H2NFeS2CHFeS2HC6H2C7H4CHC2H3C3H3CHCHCHCH2CH2CH2C2H2C2HCHC2HNC9H14CH3CHCH4NCHCH2CHCH7NCHC2FeS2FeS2FeSFeCS2FeSHFeS2FeSFeS3HFe2SHFeSHC6H4C2HCH4C6H4C6H8CHC2HCH3CH3CSCH5C2NC9H14NHC2HCHSNH3CNSC4H5CHC2H2SCHCH3N
_chemical_formula_sum              "Fe96 S192 N48 H864 C720"
_cell_length_a       48.8836
_cell_length_b       48.596
_cell_length_c       46.9878
_cell_angle_alpha    90.3096
_cell_angle_beta     88.8326
_cell_angle_gamma    120.165

_space_group_name_H-M_alt    "P 1"
_space_group_IT_number       1

loop_
  _space_group_symop_operation_xyz
  'x, y, z'

loop_
  _atom_site_type_symbol
  _atom_site_label
  _atom_site_symmetry_multiplicity
  _atom_site_fract_x
  _atom_site_fract_y
  _atom_site_fract_z
  _atom_site_occupancy
  Fe  Fe1       1.0  0.12911  0.32515  0.24439  1.0000
  S   S1        1.0  0.16464  0.37720  0.25201  1.0000
  S   S2        1.0  0.07638  0.30784  0.25295  1.0000
  Fe  Fe2       1.0  0.18174  0.30865  0.23459  1.0000
  S   S3        1.0  0.22025  0.35888  0.24179  1.0000
  S   S4        1.0  0.18810  0.26672  0.22126  1.0000
  Fe  Fe3       1.0  0.19042  0.35968  0.27879  1.0000
  N   N1        1.0  0.47868  0.16798  0.06446  1.0000
  Fe  Fe4       1.0  0.19178  0.37283  0.21442  1.0000
  S   S5        1.0  0.22125  0.41417  0.18373  1.0000
  S   S6        1.0  0.15365  0.30795  0.27346  1.0000
  S   S7        1.0  0.15457  0.32236  0.20481  1.0000
  Fe  Fe5       1.0  0.48246  0.25329  0.00898  1.0000
  S   S8        1.0  0.47018  0.26221  0.05432  1.0000
  Fe  Fe6       1.0  0.31532  0.20442  0.23071  1.0000
  S   S9        1.0  0.36618  0.22041  0.21846  1.0000
  S   S10       1.0  0.30580  0.24543  0.24047  1.0000
  Fe  Fe7       1.0  0.29891  0.13406  0.23549  1.0000
  S   S11       1.0  0.34855  0.14618  0.22411  1.0000
  S   S12       1.0  0.25975  0.08468  0.25060  1.0000
  Fe  Fe8       1.0  0.36385  0.18790  0.25369  1.0000
  S   S13       1.0  0.40549  0.20314  0.28363  1.0000
  Fe  Fe9       1.0  0.34672  0.17768  0.18986  1.0000
  S   S14       1.0  0.36054  0.17224  0.14395  1.0000
  S   S15       1.0  0.31442  0.17405  0.26728  1.0000
  S   S16       1.0  0.29564  0.16332  0.19987  1.0000
  Fe  Fe10      1.0  0.24428  0.47416  0.01860  1.0000
  S   S17       1.0  0.22017  0.43092  0.04883  1.0000
  H   H1        1.0  0.26198  0.39971  0.07262  1.0000
  C   C1        1.0  0.01700  0.31670  0.15599  1.0000
  C   C2        1.0  0.04065  0.21349  0.26761  1.0000
  C   C3        1.0  0.25445  0.04636  0.24292  1.0000
  C   C4        1.0  0.27411  0.04206  0.22359  1.0000
  C   C5        1.0  0.16136  0.01589  0.20211  1.0000
  H   H2        1.0  0.21451  0.02246  0.27195  1.0000
  H   H3        1.0  0.29286  0.06237  0.21234  1.0000
  C   C6        1.0  0.43922  0.23687  0.07878  1.0000
  C   C7        1.0  0.43920  0.24762  0.10670  1.0000
  C   C8        1.0  0.41524  0.22848  0.12682  1.0000
  C   C9        1.0  0.39082  0.19824  0.11925  1.0000
  C   C10       1.0  0.39082  0.18754  0.09130  1.0000
  C   C11       1.0  0.41484  0.20660  0.07123  1.0000
  H   H4        1.0  0.45785  0.27099  0.11280  1.0000
  H   H5        1.0  0.41572  0.23709  0.14817  1.0000
  H   H6        1.0  0.37208  0.16424  0.08515  1.0000
  H   H7        1.0  0.41426  0.19801  0.04985  1.0000
  H   H8        1.0  0.29309  0.33161  0.06666  1.0000
  C   C12       1.0  0.21995  0.41835  0.14628  1.0000
  C   C13       1.0  0.19675  0.39449  0.12948  1.0000
  C   C14       1.0  0.19720  0.39886  0.09975  1.0000
  C   C15       1.0  0.22061  0.42710  0.08648  1.0000
  C   C16       1.0  0.24385  0.45085  0.10331  1.0000
  C   C17       1.0  0.24339  0.44652  0.13301  1.0000
  H   H9        1.0  0.17854  0.37269  0.13933  1.0000
  H   H10       1.0  0.17929  0.38019  0.08691  1.0000
  H   H11       1.0  0.26249  0.47238  0.09343  1.0000
  H   H12       1.0  0.26152  0.46508  0.14577  1.0000
  C   C18       1.0  0.03844  0.27851  0.24054  1.0000
  C   C19       1.0  0.03462  0.25977  0.21656  1.0000
  C   C20       1.0  0.35918  0.24879  0.30178  1.0000
  H   H13       1.0  0.05516  0.26339  0.20441  1.0000
  H   H14       1.0  0.16535  0.47499  0.04811  1.0000
  C   C21       1.0  0.22081  0.26095  0.22736  1.0000
  C   C22       1.0  0.24757  0.28318  0.24198  1.0000
  C   C23       1.0  0.27322  0.27796  0.24571  1.0000
  C   C24       1.0  0.27244  0.25037  0.23517  1.0000
  C   C25       1.0  0.24560  0.22807  0.22067  1.0000
  C   C26       1.0  0.22004  0.23341  0.21674  1.0000
  H   H15       1.0  0.24856  0.30441  0.25041  1.0000
  H   H16       1.0  0.29379  0.29539  0.25698  1.0000
  H   H17       1.0  0.24461  0.20678  0.21236  1.0000
  H   H18       1.0  0.19955  0.21603  0.20535  1.0000
  N   N2        1.0  0.25805  0.34647  0.15648  1.0000
  C   C27       1.0  0.27619  0.37631  0.17287  1.0000
  C   C28       1.0  0.22377  0.33396  0.16172  1.0000
  C   C29       1.0  0.26572  0.32275  0.16799  1.0000
  C   C30       1.0  0.26545  0.35308  0.12567  1.0000
  C   C31       1.0  0.26020  0.37586  0.11182  1.0000
  H   H19       1.0  0.26902  0.39419  0.16812  1.0000
  H   H20       1.0  0.27240  0.37195  0.19625  1.0000
  H   H21       1.0  0.30203  0.38759  0.16815  1.0000
  H   H22       1.0  0.21669  0.35188  0.15689  1.0000
  H   H23       1.0  0.21692  0.32684  0.18438  1.0000
  H   H24       1.0  0.20922  0.31256  0.14853  1.0000
  H   H25       1.0  0.26021  0.31869  0.19123  1.0000
  H   H26       1.0  0.25145  0.29902  0.15788  1.0000
  H   H27       1.0  0.29133  0.33078  0.16523  1.0000
  H   H28       1.0  0.25115  0.38887  0.12343  1.0000
  N   N3        1.0  0.08766  0.21288  0.24545  1.0000
  H   H29       1.0  0.36452  0.10431  0.26473  1.0000
  C   C32       1.0  0.09883  0.24249  0.22872  1.0000
  C   C33       1.0  0.10443  0.22096  0.27292  1.0000
  C   C34       1.0  0.05306  0.19796  0.25049  1.0000
  C   C35       1.0  0.41285  0.14070  0.12141  1.0000
  H   H30       1.0  0.28738  0.44081  0.31398  1.0000
  C   C36       1.0  0.39806  0.28465  0.26820  1.0000
  N   N4        1.0  0.38635  0.28151  0.29812  1.0000
  H   H31       1.0  0.19042  0.45866  0.19722  1.0000
  H   H32       1.0  0.15375  0.43196  0.11403  1.0000
  H   H33       1.0  0.35221  0.13914  0.29413  1.0000
  H   H34       1.0  0.12341  0.20406  0.22694  1.0000
  H   H35       1.0  0.08656  0.23753  0.20804  1.0000
  H   H36       1.0  0.12467  0.25435  0.22400  1.0000
  H   H37       1.0  0.09448  0.26006  0.24017  1.0000
  H   H38       1.0  0.32303  0.08444  0.25741  1.0000
  H   H39       1.0  0.41824  0.30895  0.26365  1.0000
  C   C37       1.0  0.00401  0.23640  0.20810  1.0000
  C   C38       1.0  0.26918  0.01128  0.21838  1.0000
  H   H40       1.0  0.09543  0.19954  0.28682  1.0000
  H   H41       1.0  0.40560  0.26693  0.26329  1.0000
  C   C39       1.0  0.19237  0.02844  0.19199  1.0000
  C   C40       1.0  0.16831  0.45122  0.12813  1.0000
  C   C41       1.0  0.26644  0.38230  0.08271  1.0000
  H   H42       1.0  0.35754  0.30128  0.28539  1.0000
  H   H43       1.0  0.14003  0.45502  0.07808  1.0000
  H   H44       1.0  0.28219  0.31938  0.11700  1.0000
  C   C42       1.0  0.18650  0.48338  0.11870  1.0000
  H   H45       1.0  0.04258  0.32813  0.15632  1.0000
  H   H46       1.0  0.36666  0.23099  0.29771  1.0000
  H   H47       1.0  0.34833  0.04224  0.31274  1.0000
  H   H48       1.0  0.15282  0.03190  0.20796  1.0000
  H   H49       1.0  0.15611  0.41799  0.16295  1.0000
  C   C43       1.0  0.03073  0.16899  0.23739  1.0000
  H   H50       1.0  0.24902  0.45218  0.29156  1.0000
  C   C44       1.0  0.46125  0.16505  0.09150  1.0000
  C   C45       1.0  0.26257  0.46639  0.30943  1.0000
  H   H51       1.0  0.03776  0.15564  0.22370  1.0000
  H   H52       1.0  0.01570  0.32666  0.11174  1.0000
  H   H53       1.0  0.47239  0.20585  0.04922  1.0000
  C   C46       1.0  0.37485  0.30436  0.30202  1.0000
  H   H54       1.0  0.44914  0.12016  0.04896  1.0000
  H   H55       1.0  0.39484  0.32936  0.30078  1.0000
  H   H56       1.0  0.34048  0.06180  0.26858  1.0000
  C   C47       1.0  0.22989  0.01946  0.25697  1.0000
  C   C48       1.0  0.44153  0.29355  0.31191  1.0000
  C   C49       1.0  0.34084  0.08465  0.27190  1.0000
  H   H57       1.0  0.08785  0.18765  0.20747  1.0000
  H   H58       1.0  0.28305  0.06086  0.29889  1.0000
  H   H59       1.0  0.47258  0.14854  0.02198  1.0000
  H   H60       1.0  0.37922  0.28013  0.25273  1.0000
  H   H61       1.0  0.05597  0.23635  0.27722  1.0000
  H   H62       1.0  0.41461  0.12546  0.07961  1.0000
  C   C50       1.0  0.28384  0.34391  0.07939  1.0000
  C   C51       1.0  0.45877  0.14531  0.04215  1.0000
  H   H63       1.0  0.47269  0.20155  0.15658  1.0000
  H   H64       1.0  0.45899  0.22475  0.31973  1.0000
  H   H65       1.0  0.13046  0.23111  0.26966  1.0000
  H   H66       1.0  0.08893  0.16936  0.24070  1.0000
  N   N5        1.0  0.18645  0.49329  0.08895  1.0000
  H   H67       1.0  0.20790  0.05401  0.19024  1.0000
  H   H68       1.0  0.43885  0.14906  0.03649  1.0000
  C   C52       1.0  0.18881  0.46570  0.17572  1.0000
  H   H69       1.0  0.10188  0.23929  0.28499  1.0000
  N   N6        1.0  0.33399  0.08905  0.30191  1.0000
  H   H70       1.0  0.01114  0.30313  0.20008  1.0000
  H   H71       1.0  0.41588  0.16167  0.16245  1.0000
  C   C53       1.0  0.16500  0.46665  0.07023  1.0000
  C   C54       1.0  0.20690  0.49740  0.16720  1.0000
  C   C55       1.0  0.27748  0.33716  0.10851  1.0000
  H   H72       1.0  0.28438  0.00825  0.20317  1.0000
  H   H73       1.0  0.28315  0.37152  0.04395  1.0000
  C   C56       1.0  0.27829  0.36639  0.06652  1.0000
  H   H74       1.0  0.38768  0.12402  0.12396  1.0000
  H   H75       1.0  0.44907  0.29384  0.29011  1.0000
  C   C57       1.0  0.33084  0.11790  0.30316  1.0000
  C   C58       1.0  0.42869  0.14207  0.09584  1.0000
  C   C59       1.0  0.42873  0.16200  0.14322  1.0000
  C   C60       1.0  0.09713  0.19238  0.22947  1.0000
  S   S18       1.0  0.21446  0.37788  0.32175  1.0000
  H   H76       1.0  0.31061  0.11499  0.29041  1.0000
  C   C61       1.0  0.16938  0.44275  0.15632  1.0000
  C   C62       1.0  0.36358  0.06448  0.32329  1.0000
  H   H77       1.0  0.22741  0.49025  0.07671  1.0000
  H   H78       1.0  0.30124  0.03823  0.30640  1.0000
  C   C63       1.0  0.01117  0.27402  0.25542  1.0000
  H   H79       1.0  0.17242  0.44842  0.06832  1.0000
  S   S19       1.0  0.21017  0.48628  0.99842  1.0000
  C   C64       1.0  0.35945  0.09118  0.31999  1.0000
  H   H80       1.0  0.34002  0.24377  0.28666  1.0000
  C   C65       1.0  0.30290  0.06151  0.31075  1.0000
  C   C66       1.0  0.00806  0.20076  0.27152  1.0000
  H   H81       1.0  0.01373  0.28847  0.27389  1.0000
  C   C67       1.0  0.46067  0.18455  0.13978  1.0000
  C   C68       1.0  0.40889  0.20781  0.32132  1.0000
  C   C69       1.0  0.00178  0.31582  0.13096  1.0000
  H   H82       1.0  0.23937  0.49389  0.31124  1.0000
  C   C70       1.0  0.49166  0.20048  0.05264  1.0000
  H   H83       1.0  0.18076  0.41397  0.32498  1.0000
  C   C71       1.0  0.28431  0.46006  0.32210  1.0000
  C   C72       1.0  0.47683  0.18599  0.11442  1.0000
  H   H84       1.0  0.34832  0.24428  0.32346  1.0000
  H   H85       1.0  0.00138  0.22188  0.18969  1.0000
  H   H86       1.0  0.36232  0.30114  0.32279  1.0000
  C   C73       1.0  0.25712  0.48984  0.32063  1.0000
  C   C74       1.0  0.41059  0.28737  0.31947  1.0000
  H   H87       1.0  0.32653  0.12313  0.32534  1.0000
  H   H88       1.0  0.22809  0.01800  0.17759  1.0000
  C   C75       1.0  0.20374  0.00812  0.18489  1.0000
  H   H89       1.0  0.49663  0.13861  0.07976  1.0000
  C   C76       1.0  0.99926  0.30259  0.18065  1.0000
  H   H90       1.0  0.99918  0.21349  0.28411  1.0000
  H   H91       1.0  0.48695  0.30289  0.32654  1.0000
  Fe  Fe11      1.0  0.46700  0.24422  0.44372  1.0000
  S   S20       1.0  0.47370  0.27895  0.47882  1.0000
  S   S21       1.0  0.42104  0.22290  0.41858  1.0000
  S   S22       1.0  0.47457  0.21217  0.47279  1.0000
  H   H92       1.0  0.40086  0.18111  0.47241  1.0000
  C   C77       1.0  0.39618  0.22600  0.50047  1.0000
  S   S23       1.0  0.20997  0.47138  0.41616  1.0000
  H   H93       1.0  0.32980  0.15653  0.48497  1.0000
  H   H94       1.0  0.20440  0.33574  0.64265  1.0000
  C   C78       1.0  0.38703  0.20480  0.36908  1.0000
  C   C79       1.0  0.41705  0.21672  0.38110  1.0000
  C   C80       1.0  0.44285  0.22352  0.36309  1.0000
  H   H95       1.0  0.23474  0.30939  0.63082  1.0000
  H   H96       1.0  0.36685  0.19922  0.38280  1.0000
  H   H97       1.0  0.46607  0.23258  0.37195  1.0000
  H   H98       1.0  0.35708  0.18654  0.46028  1.0000
  C   C81       1.0  0.21128  0.40261  0.34824  1.0000
  C   C82       1.0  0.22791  0.40792  0.37368  1.0000
  C   C83       1.0  0.22744  0.42842  0.39482  1.0000
  C   C84       1.0  0.21069  0.44440  0.39061  1.0000
  C   C85       1.0  0.19354  0.43862  0.36542  1.0000
  C   C86       1.0  0.19372  0.41781  0.34438  1.0000
  H   H99       1.0  0.24138  0.39613  0.37699  1.0000
  H   H100      1.0  0.23998  0.43167  0.41436  1.0000
  H   H101      1.0  0.18026  0.45058  0.36195  1.0000
  H   H102      1.0  0.38012  0.28104  0.35646  1.0000
  Fe  Fe12      1.0  0.48367  0.24791  0.50731  1.0000
  S   S24       1.0  0.46332  0.22309  0.55039  1.0000
  C   C87       1.0  0.26630  0.37603  0.63701  1.0000
  Fe  Fe13      1.0  0.24771  0.47645  0.51914  1.0000
  S   S25       1.0  0.23088  0.43238  0.54747  1.0000
  S   S26       1.0  0.26921  0.47566  0.47620  1.0000
  C   C88       1.0  0.43866  0.22548  0.57761  1.0000
  C   C89       1.0  0.42746  0.24686  0.57629  1.0000
  C   C90       1.0  0.40723  0.24706  0.59806  1.0000
  C   C91       1.0  0.39817  0.22621  0.62157  1.0000
  C   C92       1.0  0.40980  0.20519  0.62313  1.0000
  C   C93       1.0  0.42984  0.20480  0.60124  1.0000
  H   H103      1.0  0.43447  0.26340  0.55867  1.0000
  H   H104      1.0  0.39847  0.26349  0.59669  1.0000
  H   H105      1.0  0.40302  0.18900  0.64102  1.0000
  H   H106      1.0  0.43838  0.18821  0.60258  1.0000
  H   H107      1.0  0.41932  0.28957  0.39208  1.0000
  C   C94       1.0  0.19615  0.39208  0.62558  1.0000
  C   C95       1.0  0.20364  0.39690  0.59618  1.0000
  C   C96       1.0  0.22070  0.42778  0.58447  1.0000
  C   C97       1.0  0.22979  0.45384  0.60251  1.0000
  C   C98       1.0  0.22297  0.44899  0.63203  1.0000
  H   H108      1.0  0.42755  0.09562  0.36618  1.0000
  H   H109      1.0  0.19617  0.37655  0.58242  1.0000
  H   H110      1.0  0.24282  0.47774  0.59388  1.0000
  H   H111      1.0  0.29804  0.06255  0.33385  1.0000
  N   N7        1.0  0.14154  0.39288  0.46416  1.0000
  C   C99       1.0  0.13796  0.41586  0.44622  1.0000
  C   C100      1.0  0.17494  0.40042  0.46112  1.0000
  C   C101      1.0  0.12125  0.36034  0.45286  1.0000
  C   C102      1.0  0.13181  0.39456  0.49390  1.0000
  C   C103      1.0  0.10039  0.38742  0.50041  1.0000
  C   C104      1.0  0.15282  0.40336  0.51704  1.0000
  C   C105      1.0  0.09069  0.38888  0.52833  1.0000
  C   C106      1.0  0.14292  0.40484  0.54484  1.0000
  C   C107      1.0  0.11194  0.39758  0.55051  1.0000
  H   H112      1.0  0.15247  0.44059  0.45441  1.0000
  H   H113      1.0  0.14597  0.41602  0.42380  1.0000
  H   H114      1.0  0.11309  0.41051  0.44534  1.0000
  H   H115      1.0  0.19178  0.42527  0.46774  1.0000
  H   H116      1.0  0.18136  0.39859  0.43860  1.0000
  H   H117      1.0  0.17940  0.38382  0.47380  1.0000
  H   H118      1.0  0.09605  0.35385  0.45156  1.0000
  H   H119      1.0  0.12882  0.35795  0.43087  1.0000
  H   H120      1.0  0.12231  0.34227  0.46656  1.0000
  H   H121      1.0  0.08314  0.38078  0.48391  1.0000
  H   H122      1.0  0.17717  0.40942  0.51431  1.0000
  H   H123      1.0  0.06660  0.38335  0.53283  1.0000
  H   H124      1.0  0.15955  0.41183  0.56210  1.0000
  H   H125      1.0  0.10450  0.39880  0.57216  1.0000
  S   S27       1.0  0.21251  0.48808  0.50048  1.0000
  H   H126      1.0  0.29320  0.39113  0.56745  1.0000
  H   H127      1.0  0.40621  0.23253  0.47842  1.0000
  C   C108      1.0  0.29176  0.42538  0.59543  1.0000
  H   H128      1.0  0.23090  0.46936  0.64588  1.0000
  H   H129      1.0  0.38500  0.24054  0.50532  1.0000
  C   C109      1.0  0.38776  0.06608  0.33992  1.0000
  H   H130      1.0  0.35594  0.14133  0.59270  1.0000
  H   H131      1.0  0.38093  0.14156  0.33193  1.0000
  C   C110      1.0  0.39119  0.17480  0.49464  1.0000
  H   H132      1.0  0.49391  0.18807  0.57699  1.0000
  C   C111      1.0  0.28399  0.43112  0.62260  1.0000
  H   H133      1.0  0.33930  0.21403  0.53148  1.0000
  C   C112      1.0  0.36464  0.16298  0.55103  1.0000
  H   H134      1.0  0.41190  0.18172  0.50848  1.0000
  C   C113      1.0  0.38151  0.11976  0.33378  1.0000
  C   C114      1.0  0.38290  0.20027  0.33942  1.0000
  N   N8        1.0  0.37375  0.19135  0.50324  1.0000
  C   C115      1.0  0.27122  0.40685  0.64306  1.0000
  C   C116      1.0  0.40870  0.09435  0.35344  1.0000
  C   C117      1.0  0.42560  0.29136  0.36962  1.0000
  H   H135      1.0  0.41626  0.23365  0.51521  1.0000
  H   H136      1.0  0.27180  0.34842  0.60244  1.0000
  C   C118      1.0  0.30303  0.49574  0.40781  1.0000
  C   C119      1.0  0.46370  0.29879  0.33272  1.0000
  H   H137      1.0  0.33570  0.19613  0.48575  1.0000
  H   H138      1.0  0.37826  0.15197  0.54481  1.0000
  C   C120      1.0  0.35186  0.15654  0.57873  1.0000
  H   H139      1.0  0.47275  0.30093  0.37756  1.0000
  H   H140      1.0  0.32630  0.16667  0.61099  1.0000
  H   H141      1.0  0.31842  0.20297  0.58036  1.0000
  H   H142      1.0  0.27759  0.48617  0.41317  1.0000
  C   C121      1.0  0.34304  0.19765  0.54393  1.0000
  C   C122      1.0  0.33072  0.19130  0.57178  1.0000
  C   C123      1.0  0.30086  0.47728  0.34593  1.0000
  C   C124      1.0  0.27499  0.37109  0.60918  1.0000
  Fe  Fe14      1.0  0.23629  0.49009  0.45805  1.0000
  C   C125      1.0  0.40332  0.28634  0.34902  1.0000
  H   H143      1.0  0.18236  0.36825  0.63409  1.0000
  S   S28       1.0  0.37134  0.22666  0.64757  1.0000
  C   C126      1.0  0.33505  0.17072  0.58911  1.0000
  C   C127      1.0  0.36051  0.18377  0.53268  1.0000
  C   C128      1.0  0.24946  0.32007  0.64991  1.0000
  H   H144      1.0  0.30043  0.44394  0.57931  1.0000
  H   H145      1.0  0.37559  0.14849  0.49538  1.0000
  H   H146      1.0  0.27362  0.32387  0.64577  1.0000
  C   C129      1.0  0.40562  0.12114  0.35030  1.0000
  H   H147      1.0  0.31680  0.47080  0.35541  1.0000
  C   C130      1.0  0.45577  0.29771  0.36149  1.0000
  C   C131      1.0  0.34791  0.18221  0.48274  1.0000
  C   C132      1.0  0.28745  0.39551  0.58877  1.0000
  H   H148      1.0  0.30642  0.47520  0.40321  1.0000
  C   C133      1.0  0.20657  0.41813  0.64387  1.0000
  H   H149      1.0  0.35961  0.19082  0.33068  1.0000
  C   C134      1.0  0.43874  0.21908  0.33343  1.0000
  H   H150      1.0  0.28664  0.45416  0.62753  1.0000
  H   H151      1.0  0.39042  0.04535  0.34215  1.0000
  H   H152      1.0  0.42219  0.14332  0.36052  1.0000
  N   N9        1.0  0.25061  0.35015  0.65840  1.0000
  C   C135      1.0  0.29600  0.50143  0.35791  1.0000
  Fe  Fe15      1.0  0.12023  0.32019  0.74530  1.0000
  S   S29       1.0  0.15365  0.37280  0.75190  1.0000
  S   S30       1.0  0.06876  0.30597  0.75738  1.0000
  Fe  Fe16      1.0  0.17641  0.30929  0.73167  1.0000
  S   S31       1.0  0.21252  0.36083  0.73828  1.0000
  S   S32       1.0  0.19092  0.27416  0.71378  1.0000
  Fe  Fe17      1.0  0.18311  0.35845  0.77689  1.0000
  S   S33       1.0  0.20386  0.37484  0.82141  1.0000
  Fe  Fe18      1.0  0.18014  0.37122  0.71263  1.0000
  H   H153      1.0  0.35290  0.21734  0.80861  1.0000
  S   S34       1.0  0.14894  0.30577  0.77194  1.0000
  S   S35       1.0  0.14489  0.31977  0.70415  1.0000
  Fe  Fe19      1.0  0.46494  0.23253  0.94663  1.0000
  Fe  Fe20      1.0  0.23623  0.49052  0.95694  1.0000
  S   S36       1.0  0.42121  0.20993  0.91829  1.0000
  H   H154      1.0  0.32525  0.24197  0.86622  1.0000
  Fe  Fe21      1.0  0.30485  0.19771  0.73724  1.0000
  S   S37       1.0  0.35733  0.22850  0.72948  1.0000
  S   S38       1.0  0.28064  0.22303  0.75837  1.0000
  Fe  Fe22      1.0  0.30705  0.13688  0.72124  1.0000
  S   S39       1.0  0.35980  0.16471  0.71265  1.0000
  S   S40       1.0  0.28242  0.08406  0.70859  1.0000
  Fe  Fe23      1.0  0.36193  0.19098  0.75314  1.0000
  S   S41       1.0  0.40356  0.20648  0.78318  1.0000
  Fe  Fe24      1.0  0.35086  0.19986  0.68980  1.0000
  S   S42       1.0  0.30979  0.16116  0.76316  1.0000
  S   S43       1.0  0.29780  0.17099  0.69613  1.0000
  H   H155      1.0  0.34270  0.24029  0.91423  1.0000
  H   H156      1.0  0.40426  0.30489  0.80101  1.0000
  S   S44       1.0  0.20956  0.47409  0.91494  1.0000
  C   C136      1.0  0.40470  0.27604  0.85244  1.0000
  C   C137      1.0  0.25524  0.01884  0.70697  1.0000
  C   C138      1.0  0.26502  0.04557  0.72462  1.0000
  C   C139      1.0  0.26059  0.04081  0.75408  1.0000
  H   H157      1.0  0.43873  0.28309  0.88439  1.0000
  H   H158      1.0  0.25834  0.02217  0.68413  1.0000
  H   H159      1.0  0.26734  0.06095  0.76795  1.0000
  C   C140      1.0  0.40769  0.20736  0.82091  1.0000
  C   C141      1.0  0.38182  0.19088  0.83965  1.0000
  C   C142      1.0  0.38651  0.19184  0.86927  1.0000
  C   C143      1.0  0.41705  0.20892  0.88063  1.0000
  C   C144      1.0  0.44295  0.22494  0.86186  1.0000
  C   C145      1.0  0.43825  0.22412  0.83223  1.0000
  H   H160      1.0  0.35822  0.17704  0.83143  1.0000
  H   H161      1.0  0.36631  0.17927  0.88357  1.0000
  H   H162      1.0  0.46658  0.23812  0.87021  1.0000
  H   H163      1.0  0.45851  0.23662  0.81799  1.0000
  C   C146      1.0  0.20795  0.40499  0.84584  1.0000
  C   C147      1.0  0.22238  0.40747  0.87213  1.0000
  C   C148      1.0  0.22440  0.42943  0.89301  1.0000
  C   C149      1.0  0.21150  0.44894  0.88807  1.0000
  C   C150      1.0  0.19775  0.44702  0.86153  1.0000
  C   C151      1.0  0.19640  0.42559  0.84041  1.0000
  H   H164      1.0  0.23173  0.39198  0.87654  1.0000
  H   H165      1.0  0.23510  0.43059  0.91323  1.0000
  H   H166      1.0  0.18800  0.46220  0.85733  1.0000
  H   H167      1.0  0.18638  0.42508  0.82001  1.0000
  C   C152      1.0  0.03091  0.27480  0.74657  1.0000
  C   C153      1.0  0.02659  0.24687  0.73375  1.0000
  S   S45       1.0  0.26824  0.47533  0.97636  1.0000
  H   H168      1.0  0.04690  0.24417  0.72916  1.0000
  H   H169      1.0  0.39925  0.26052  0.92351  1.0000
  C   C154      1.0  0.21712  0.26150  0.72627  1.0000
  C   C155      1.0  0.22461  0.24276  0.70836  1.0000
  C   C156      1.0  0.24454  0.23139  0.71748  1.0000
  C   C157      1.0  0.25695  0.23829  0.74486  1.0000
  C   C158      1.0  0.24969  0.25728  0.76267  1.0000
  C   C159      1.0  0.23011  0.26902  0.75340  1.0000
  H   H170      1.0  0.21461  0.23662  0.68738  1.0000
  H   H171      1.0  0.24973  0.21673  0.70355  1.0000
  H   H172      1.0  0.25901  0.26274  0.78392  1.0000
  H   H173      1.0  0.22456  0.28331  0.76749  1.0000
  N   N10       1.0  0.10508  0.34220  0.84129  1.0000
  C   C160      1.0  0.07044  0.32938  0.84364  1.0000
  C   C161      1.0  0.11806  0.36597  0.81790  1.0000
  C   C162      1.0  0.11006  0.31549  0.83292  1.0000
  C   C163      1.0  0.12032  0.35754  0.86835  1.0000
  C   C164      1.0  0.11685  0.38280  0.87968  1.0000
  C   C165      1.0  0.13934  0.34855  0.88388  1.0000
  C   C166      1.0  0.13151  0.39811  0.90485  1.0000
  C   C167      1.0  0.15357  0.36380  0.90922  1.0000
  C   C168      1.0  0.14973  0.38856  0.91963  1.0000
  H   H174      1.0  0.05827  0.31645  0.82392  1.0000
  H   H175      1.0  0.05998  0.31259  0.86194  1.0000
  H   H176      1.0  0.06449  0.34850  0.84652  1.0000
  H   H177      1.0  0.11563  0.38713  0.82216  1.0000
  H   H178      1.0  0.10599  0.35566  0.79749  1.0000
  H   H179      1.0  0.14365  0.37460  0.81429  1.0000
  H   H180      1.0  0.10043  0.29630  0.84930  1.0000
  H   H181      1.0  0.09828  0.30450  0.81251  1.0000
  H   H182      1.0  0.13569  0.32386  0.82929  1.0000
  H   H183      1.0  0.10364  0.39166  0.86866  1.0000
  H   H184      1.0  0.14463  0.33066  0.87643  1.0000
  H   H185      1.0  0.13000  0.41846  0.91237  1.0000
  H   H186      1.0  0.16898  0.35748  0.92014  1.0000
  H   H187      1.0  0.16222  0.40147  0.93843  1.0000
  N   N11       1.0  0.35951  0.09663  0.77563  1.0000
  C   C169      1.0  0.38482  0.11522  0.75408  1.0000
  C   C170      1.0  0.34014  0.06377  0.76453  1.0000
  C   C171      1.0  0.33876  0.11062  0.77828  1.0000
  C   C172      1.0  0.37349  0.09807  0.80367  1.0000
  C   C173      1.0  0.36547  0.07049  0.82023  1.0000
  C   C174      1.0  0.39470  0.12793  0.81589  1.0000
  C   C175      1.0  0.37807  0.07301  0.84726  1.0000
  H   H188      1.0  0.40267  0.10742  0.75327  1.0000
  H   H189      1.0  0.37508  0.11261  0.73235  1.0000
  H   H190      1.0  0.39751  0.14127  0.75835  1.0000
  H   H191      1.0  0.35430  0.05171  0.76224  1.0000
  H   H192      1.0  0.33057  0.06364  0.74312  1.0000
  H   H193      1.0  0.31902  0.04901  0.77842  1.0000
  H   H194      1.0  0.35221  0.13621  0.78427  1.0000
  H   H195      1.0  0.32685  0.10911  0.75789  1.0000
  H   H196      1.0  0.31994  0.09805  0.79489  1.0000
  H   H197      1.0  0.34934  0.04673  0.81292  1.0000
  H   H198      1.0  0.37158  0.05175  0.85964  1.0000
  C   C176      1.0  0.34034  0.23101  0.80815  1.0000
  C   C177      1.0  0.34306  0.28125  0.81644  1.0000
  S   S46       1.0  0.20089  0.41370  0.68158  1.0000
  H   H199      1.0  0.31857  0.21834  0.82169  1.0000
  H   H200      1.0  0.40160  0.14989  0.80478  1.0000
  C   C178      1.0  0.40695  0.13021  0.84297  1.0000
  H   H201      1.0  0.37828  0.27991  0.77400  1.0000
  C   C179      1.0  0.35028  0.25179  0.86938  1.0000
  C   C180      1.0  0.38737  0.27968  0.79551  1.0000
  H   H202      1.0  0.40055  0.26655  0.79311  1.0000
  C   C181      1.0  0.35998  0.25069  0.89695  1.0000
  H   H203      1.0  0.21647  0.36385  0.67128  1.0000
  N   N12       1.0  0.36128  0.26434  0.81708  1.0000
  H   H204      1.0  0.15852  0.04886  0.70822  1.0000
  C   C182      1.0  0.24695  0.00979  0.76563  1.0000
  C   C183      1.0  0.41411  0.27507  0.88015  1.0000
  H   H205      1.0  0.42266  0.15344  0.85199  1.0000
  H   H206      1.0  0.33512  0.28206  0.79449  1.0000
  H   H207      1.0  0.29262  0.36721  0.68315  1.0000
  C   C184      1.0  0.39865  0.10280  0.85864  1.0000
  C   C185      1.0  0.17336  0.01760  0.72524  1.0000
  S   S47       1.0  0.48339  0.27983  0.96904  1.0000
  H   H208      1.0  0.32101  0.26927  0.82967  1.0000
  H   H209      1.0  0.40807  0.10476  0.87974  1.0000
  H   H210      1.0  0.20448  0.32341  0.67838  1.0000
  H   H211      1.0  0.33228  0.22984  0.78608  1.0000
  C   C186      1.0  0.37235  0.26453  0.84624  1.0000
  C   C187      1.0  0.39183  0.26227  0.90230  1.0000
  H   H212      1.0  0.19822  0.03589  0.72548  1.0000
  C   C188      1.0  0.26725  0.36009  0.68591  1.0000
  H   H213      1.0  0.42314  0.28516  0.83622  1.0000
  H   H214      1.0  0.35751  0.30614  0.82411  1.0000
  C   C189      1.0  0.00405  0.27765  0.75246  1.0000
  H   H215      1.0  0.26617  0.38040  0.69568  1.0000
  H   H216      1.0  0.25639  0.34050  0.70206  1.0000
  C   C190      1.0  0.15105  0.02489  0.71545  1.0000
  H   H217      1.0  0.10197  0.00715  0.70709  1.0000
  H   H218      1.0  0.23836  0.30155  0.66698  1.0000
  H   H219      1.0  0.00706  0.29920  0.76216  1.0000
  H   H220      1.0  0.24346  0.00639  0.78843  1.0000
  S   S48       1.0  0.46125  0.20586  0.98720  1.0000
  C   C191      1.0  0.21762  0.34303  0.66286  1.0000
  H   H221      1.0  0.26393  0.41215  0.66327  1.0000
  Fe  Fe25      1.0  0.13549  0.83759  0.23288  1.0000
  S   S49       1.0  0.15049  0.80182  0.24202  1.0000
  S   S50       1.0  0.08648  0.82794  0.21957  1.0000
  Fe  Fe26      1.0  0.20376  0.89390  0.23500  1.0000
  S   S51       1.0  0.22340  0.86181  0.24482  1.0000
  S   S52       1.0  0.23883  0.94613  0.22351  1.0000
  Fe  Fe27      1.0  0.19105  0.82921  0.21098  1.0000
  S   S53       1.0  0.20887  0.80233  0.18283  1.0000
  Fe  Fe28      1.0  0.18202  0.83640  0.27533  1.0000
  C   C192      1.0  0.02109  0.79497  0.21973  1.0000
  S   S54       1.0  0.17403  0.86270  0.19927  1.0000
  S   S55       1.0  0.16440  0.87086  0.26809  1.0000
  H   H222      1.0  0.09619  0.92503  0.23082  1.0000
  S   S56       1.0  0.27980  0.52506  0.02877  1.0000
  H   H223      1.0  0.25747  0.63838  0.04377  1.0000
  Fe  Fe29      1.0  0.24057  0.77849  0.01730  1.0000
  H   H224      1.0  0.23629  0.52936  0.08754  1.0000
  S   S57       1.0  0.21640  0.79842  0.04639  1.0000
  H   H225      1.0  0.32488  0.69029  0.02118  1.0000
  S   S58       1.0  0.25248  0.74049  0.02620  1.0000
  H   H226      1.0  0.22055  0.53103  0.13345  1.0000
  H   H227      1.0  0.35357  0.58276  0.02846  1.0000
  H   H228      1.0  0.11596  0.74040  0.11052  1.0000
  C   C193      1.0  0.20574  0.50623  0.13916  1.0000
  C   C194      1.0  0.37430  0.59992  0.01652  1.0000
  H   H229      1.0  0.10736  0.66509  0.04739  1.0000
  C   C195      1.0  0.13050  0.72936  0.11064  1.0000
  N   N13       1.0  0.22175  0.76935  0.27174  1.0000
  H   H230      1.0  0.17476  0.73734  0.31459  1.0000
  H   H231      1.0  0.19347  0.53989  0.09920  1.0000
  H   H232      1.0  0.36483  0.69934  0.02494  1.0000
  C   C196      1.0  0.19877  0.74522  0.32063  1.0000
  C   C197      1.0  0.22491  0.98864  0.25170  1.0000
  C   C198      1.0  0.15313  0.70062  0.08552  1.0000
  H   H233      1.0  0.38750  0.75835  0.03932  1.0000
  H   H234      1.0  0.18153  0.66338  0.04087  1.0000
  C   C199      1.0  0.16747  0.70886  0.03533  1.0000
  H   H235      1.0  0.17960  0.71981  0.15405  1.0000
  C   C200      1.0  0.21216  0.80309  0.14485  1.0000
  C   C201      1.0  0.22844  0.78935  0.13142  1.0000
  C   C202      1.0  0.23013  0.78780  0.10142  1.0000
  C   C203      1.0  0.21552  0.80004  0.08438  1.0000
  C   C204      1.0  0.19938  0.81392  0.09780  1.0000
  C   C205      1.0  0.19775  0.81552  0.12778  1.0000
  H   H236      1.0  0.23969  0.77964  0.14431  1.0000
  H   H237      1.0  0.24272  0.77714  0.09153  1.0000
  H   H238      1.0  0.18795  0.82345  0.08493  1.0000
  H   H239      1.0  0.18501  0.82602  0.13769  1.0000
  C   C206      1.0  0.24445  0.98434  0.23219  1.0000
  Fe  Fe30      1.0  0.49116  0.72912  0.00933  1.0000
  H   H240      1.0  0.19518  0.96079  0.18436  1.0000
  C   C207      1.0  0.04443  0.78264  0.25889  1.0000
  C   C208      1.0  0.04832  0.79972  0.23379  1.0000
  C   C209      1.0  0.23154  0.60080  0.01377  1.0000
  H   H241      1.0  0.06502  0.78605  0.27007  1.0000
  C   C210      1.0  0.23311  0.65177  0.01409  1.0000
  H   H242      1.0  0.23188  0.75891  0.22943  1.0000
  C   C211      1.0  0.14162  0.98295  0.20534  1.0000
  H   H243      1.0  0.12027  0.71382  0.06785  1.0000
  C   C212      1.0  0.14697  0.73107  0.13502  1.0000
  H   H244      1.0  0.34535  0.64326  0.03129  1.0000
  H   H245      1.0  0.18963  0.73094  0.04101  1.0000
  H   H246      1.0  0.39368  0.63264  0.05155  1.0000
  Fe  Fe31      1.0  0.24700  0.53727  0.00629  1.0000
  C   C213      1.0  0.01375  0.76140  0.26985  1.0000
  N   N14       1.0  0.15634  0.68554  0.05912  1.0000
  H   H247      1.0  0.08842  0.92232  0.19294  1.0000
  H   H248      1.0  0.44231  0.77757  0.02177  1.0000
  C   C214      1.0  0.17913  0.67389  0.06130  1.0000
  H   H249      1.0  0.17381  0.73118  0.26556  1.0000
  C   C215      1.0  0.13331  0.71423  0.08628  1.0000
  H   H250      1.0  0.26509  0.81522  0.27070  1.0000
  H   H251      1.0  0.24171  0.67504  0.02327  1.0000
  C   C216      1.0  0.12520  0.65796  0.05178  1.0000
  H   H252      1.0  0.14547  0.74362  0.15363  1.0000
  C   C217      1.0  0.23937  0.80425  0.26698  1.0000
  H   H253      1.0  0.27672  0.78585  0.29979  1.0000
  H   H254      1.0  0.20329  0.69364  0.06627  1.0000
  C   C218      1.0  0.22510  0.76218  0.30167  1.0000
  C   C219      1.0  0.24218  0.63100  0.02559  1.0000
  C   C220      1.0  0.18445  0.97524  0.18848  1.0000
  N   N15       1.0  0.13321  0.92678  0.20350  1.0000
  C   C221      1.0  0.14614  0.91822  0.22792  1.0000
  C   C222      1.0  0.09932  0.91561  0.21012  1.0000
  C   C223      1.0  0.13427  0.90902  0.17805  1.0000
  C   C224      1.0  0.15265  0.96155  0.19855  1.0000
  H   H255      1.0  0.47751  0.66984  0.08860  1.0000
  C   C225      1.0  0.23494  0.75467  0.25218  1.0000
  H   H256      1.0  0.14671  0.93169  0.24735  1.0000
  H   H257      1.0  0.13157  0.89242  0.23311  1.0000
  H   H258      1.0  0.17074  0.92340  0.22358  1.0000
  H   H259      1.0  0.12700  0.64572  0.03226  1.0000
  H   H260      1.0  0.08518  0.88914  0.21241  1.0000
  C   C226      1.0  0.16945  0.70258  0.11087  1.0000
  H   H261      1.0  0.11827  0.88282  0.18071  1.0000
  H   H262      1.0  0.11807  0.97490  0.21370  1.0000
  S   S59       1.0  0.24125  0.57459  0.03064  1.0000
  H   H263      1.0  0.18683  0.76375  0.24111  1.0000
  C   C227      1.0  0.42727  0.78407  0.01054  1.0000
  H   H264      1.0  0.18536  0.69337  0.11236  1.0000
  S   S60       1.0  0.45298  0.68486  0.03220  1.0000
  H   H265      1.0  0.01111  0.74862  0.28943  1.0000
  C   C228      1.0  0.39712  0.62815  0.02958  1.0000
  C   C229      1.0  0.37624  0.78133  0.00619  1.0000
  H   H266      1.0  0.22301  0.72850  0.25573  1.0000
  S   S61       1.0  0.17936  0.81361  0.31883  1.0000
  H   H267      1.0  0.17736  0.76843  0.27700  1.0000
  C   C230      1.0  0.39616  0.77316  0.02043  1.0000
  H   H268      1.0  0.17225  0.69910  0.01552  1.0000
  H   H269      1.0  0.23023  0.81610  0.28152  1.0000
  H   H270      1.0  0.11560  0.64019  0.06944  1.0000
  H   H271      1.0  0.15005  0.71611  0.02966  1.0000
  H   H272      1.0  0.15812  0.91213  0.17388  1.0000
  C   C231      1.0  0.25557  0.77251  0.31275  1.0000
  C   C232      1.0  0.18845  0.75751  0.26361  1.0000
  C   C233      1.0  0.42450  0.65035  0.01449  1.0000
  H   H273      1.0  0.20595  0.96826  0.26265  1.0000
  H   H274      1.0  0.17148  0.65494  0.07777  1.0000
  S   S62       1.0  0.33716  0.76612  0.01955  1.0000
  H   H275      1.0  0.02372  0.80798  0.20031  1.0000
  H   H276      1.0  0.23709  0.81043  0.24467  1.0000
  H   H277      1.0  0.26073  0.76463  0.25499  1.0000
  H   H278      1.0  0.12705  0.91660  0.15867  1.0000
  C   C234      1.0  0.16622  0.71756  0.13518  1.0000
  C   C235      1.0  0.32786  0.63739  0.01418  1.0000
  H   H279      1.0  0.24429  0.86525  0.01495  1.0000
  Fe  Fe32      1.0  0.29698  0.76970  0.99988  1.0000
  H   H280      1.0  0.15278  0.50841  0.09841  1.0000
  H   H281      1.0  0.23902  0.89688  0.00216  1.0000
  H   H282      1.0  0.38823  0.67774  0.99496  1.0000
  H   H283      1.0  0.30493  0.63196  0.02439  1.0000
  H   H284      1.0  0.17567  0.52492  0.06595  1.0000
  C   C236      1.0  0.17656  0.51758  0.08823  1.0000
  C   C237      1.0  0.49577  0.68051  0.10541  1.0000
  H   H285      1.0  0.22233  0.51509  0.18229  1.0000
  H   H286      1.0  0.32414  0.61493  0.00428  1.0000
  H   H287      1.0  0.48429  0.68596  0.12347  1.0000
  S   S63       1.0  0.28687  0.80987  0.99415  1.0000
  C   C238      1.0  0.21879  0.50745  0.07645  1.0000
  C   C239      1.0  0.22946  0.87075  0.00092  1.0000
  C   C240      1.0  0.34597  0.69303  0.00909  1.0000
  H   H288      1.0  0.20522  0.85796  0.01068  1.0000
  H   H289      1.0  0.24902  0.85109  0.32356  1.0000
  H   H290      1.0  0.21940  0.51450  0.05396  1.0000
  H   H291      1.0  0.49753  0.72505  0.07196  1.0000
  H   H292      1.0  0.35461  0.71387  0.99449  1.0000
  Fe  Fe33      1.0  0.25071  0.53943  0.50573  1.0000
  S   S64       1.0  0.25049  0.58147  0.52673  1.0000
  S   S65       1.0  0.27074  0.54258  0.46188  1.0000
  Fe  Fe34      1.0  0.23758  0.72624  0.48305  1.0000
  S   S66       1.0  0.28373  0.75912  0.46092  1.0000
  S   S67       1.0  0.21036  0.67416  0.47108  1.0000
  Fe  Fe35      1.0  0.29947  0.78012  0.50425  1.0000
  Fe  Fe36      1.0  0.26404  0.79218  0.45674  1.0000
  S   S68       1.0  0.27389  0.82043  0.41510  1.0000
  S   S69       1.0  0.21672  0.75779  0.47634  1.0000
  H   H293      1.0  0.34015  0.63092  0.51649  1.0000
  H   H294      1.0  0.24154  0.87975  0.60533  1.0000
  S   S70       1.0  0.46847  0.80560  0.46763  1.0000
  C   C241      1.0  0.38154  0.79574  0.48080  1.0000
  C   C242      1.0  0.40956  0.79966  0.46793  1.0000
  C   C243      1.0  0.43281  0.79870  0.48432  1.0000
  H   H295      1.0  0.36390  0.79675  0.46802  1.0000
  H   H296      1.0  0.41332  0.80370  0.44522  1.0000
  C   C244      1.0  0.39724  0.62159  0.52646  1.0000
  C   C245      1.0  0.37461  0.59468  0.51181  1.0000
  H   H297      1.0  0.39329  0.62445  0.54875  1.0000
  H   H298      1.0  0.35354  0.57691  0.52291  1.0000
  C   C246      1.0  0.24129  0.60758  0.50896  1.0000
  C   C247      1.0  0.22009  0.59736  0.48650  1.0000
  C   C248      1.0  0.21080  0.61801  0.47491  1.0000
  C   C249      1.0  0.22316  0.64911  0.48531  1.0000
  H   H299      1.0  0.21015  0.57330  0.47868  1.0000
  H   H300      1.0  0.19391  0.60984  0.45793  1.0000
  C   C250      1.0  0.48619  0.82030  0.38231  1.0000
  C   C251      1.0  0.19406  0.79919  0.37094  1.0000
  C   C252      1.0  0.21426  0.80011  0.39249  1.0000
  C   C253      1.0  0.24711  0.81915  0.38910  1.0000
  C   C254      1.0  0.25935  0.83754  0.36405  1.0000
  C   C255      1.0  0.23914  0.83669  0.34254  1.0000
  H   H301      1.0  0.23634  0.74651  0.38128  1.0000
  H   H302      1.0  0.20441  0.78591  0.41160  1.0000
  H   H303      1.0  0.28469  0.85249  0.36125  1.0000
  H   H304      1.0  0.17904  0.82404  0.64010  1.0000
  Fe  Fe37      1.0  0.30245  0.52818  0.48264  1.0000
  S   S71       1.0  0.28442  0.52758  0.52704  1.0000
  S   S72       1.0  0.35255  0.55593  0.46471  1.0000
  Fe  Fe38      1.0  0.23774  0.77924  0.51896  1.0000
  S   S73       1.0  0.28391  0.81626  0.49879  1.0000
  S   S74       1.0  0.20873  0.79060  0.55108  1.0000
  S   S75       1.0  0.34326  0.78884  0.52769  1.0000
  S   S76       1.0  0.25442  0.74465  0.52692  1.0000
  C   C256      1.0  0.16859  0.70817  0.56675  1.0000
  S   S77       1.0  0.45223  0.67843  0.53172  1.0000
  C   C257      1.0  0.38447  0.68008  0.48639  1.0000
  C   C258      1.0  0.37699  0.79169  0.51030  1.0000
  C   C259      1.0  0.42782  0.79371  0.51370  1.0000
  C   C260      1.0  0.40019  0.79064  0.52666  1.0000
  H   H305      1.0  0.44568  0.79320  0.52656  1.0000
  H   H306      1.0  0.39688  0.78758  0.54950  1.0000
  C   C261      1.0  0.37986  0.59031  0.48322  1.0000
  C   C262      1.0  0.40757  0.61346  0.46920  1.0000
  C   C263      1.0  0.42989  0.64081  0.48370  1.0000
  C   C264      1.0  0.42491  0.64474  0.51250  1.0000
  H   H307      1.0  0.41187  0.61019  0.44711  1.0000
  H   H308      1.0  0.45120  0.65851  0.47278  1.0000
  C   C265      1.0  0.24497  0.65952  0.50725  1.0000
  C   C266      1.0  0.25377  0.63873  0.51917  1.0000
  H   H309      1.0  0.25462  0.68337  0.51543  1.0000
  H   H310      1.0  0.26987  0.64665  0.53675  1.0000
  H   H311      1.0  0.23860  0.89034  0.55442  1.0000
  C   C267      1.0  0.19304  0.81455  0.63089  1.0000
  C   C268      1.0  0.19210  0.80865  0.60132  1.0000
  C   C269      1.0  0.21049  0.79682  0.58867  1.0000
  C   C270      1.0  0.22920  0.79004  0.60622  1.0000
  C   C271      1.0  0.22996  0.79573  0.63583  1.0000
  C   C272      1.0  0.36830  0.71051  0.51499  1.0000
  H   H312      1.0  0.17733  0.81375  0.58806  1.0000
  H   H313      1.0  0.24292  0.78029  0.59702  1.0000
  H   H314      1.0  0.28165  0.53508  0.39834  1.0000
  H   H315      1.0  0.18842  0.70170  0.51380  1.0000
  C   C273      1.0  0.33152  0.67082  0.48068  1.0000
  H   H316      1.0  0.26329  0.64666  0.42642  1.0000
  C   C274      1.0  0.16218  0.63118  0.53958  1.0000
  H   H317      1.0  0.32374  0.65177  0.53489  1.0000
  H   H318      1.0  0.20242  0.68856  0.58942  1.0000
  H   H319      1.0  0.27918  0.86526  0.62148  1.0000
  H   H320      1.0  0.27562  0.88775  0.51931  1.0000
  H   H321      1.0  0.16873  0.78416  0.37375  1.0000
  C   C275      1.0  0.31673  0.64060  0.46725  1.0000
  S   S78       1.0  0.48444  0.73766  0.46566  1.0000
  H   H322      1.0  0.15426  0.70629  0.51361  1.0000
  H   H323      1.0  0.28877  0.69990  0.44812  1.0000
  C   C276      1.0  0.29708  0.68362  0.45316  1.0000
  C   C277      1.0  0.17524  0.61199  0.54522  1.0000
  C   C278      1.0  0.12169  0.65999  0.55398  1.0000
  H   H324      1.0  0.38705  0.71585  0.53076  1.0000
  H   H325      1.0  0.34875  0.71160  0.52657  1.0000
  C   C279      1.0  0.17093  0.65940  0.55524  1.0000
  N   N16       1.0  0.32403  0.85818  0.58778  1.0000
  C   C280      1.0  0.31884  0.83013  0.57084  1.0000
  C   C281      1.0  0.35676  0.88458  0.58215  1.0000
  C   C282      1.0  0.32139  0.84929  0.61834  1.0000
  C   C283      1.0  0.30119  0.86810  0.57937  1.0000
  C   C284      1.0  0.28003  0.87055  0.59909  1.0000
  C   C285      1.0  0.29957  0.87553  0.55051  1.0000
  H   H326      1.0  0.14568  0.62405  0.52237  1.0000
  H   H327      1.0  0.36118  0.54738  0.39784  1.0000
  H   H328      1.0  0.35603  0.54889  0.36011  1.0000
  H   H329      1.0  0.32567  0.83610  0.54804  1.0000
  H   H330      1.0  0.33327  0.81981  0.57834  1.0000
  H   H331      1.0  0.29354  0.81096  0.57166  1.0000
  H   H332      1.0  0.36138  0.89097  0.55916  1.0000
  H   H333      1.0  0.37465  0.87810  0.58854  1.0000
  H   H334      1.0  0.36140  0.90640  0.59395  1.0000
  H   H335      1.0  0.29739  0.82907  0.62375  1.0000
  H   H336      1.0  0.33854  0.84153  0.62389  1.0000
  H   H337      1.0  0.32642  0.86971  0.63246  1.0000
  N   N17       1.0  0.15640  0.67908  0.54899  1.0000
  C   C286      1.0  0.25810  0.87896  0.59008  1.0000
  H   H338      1.0  0.31515  0.87459  0.53437  1.0000
  C   C287      1.0  0.20293  0.73911  0.34880  1.0000
  H   H339      1.0  0.11030  0.63914  0.53955  1.0000
  H   H340      1.0  0.24448  0.79038  0.64916  1.0000
  H   H341      1.0  0.47090  0.80224  0.36647  1.0000
  H   H342      1.0  0.26716  0.52411  0.35264  1.0000
  C   C288      1.0  0.28269  0.65357  0.44084  1.0000
  H   H343      1.0  0.22457  0.65462  0.59822  1.0000
  C   C289      1.0  0.32115  0.69231  0.47282  1.0000
  H   H344      1.0  0.32346  0.62308  0.47201  1.0000
  C   C290      1.0  0.20629  0.81726  0.34574  1.0000
  C   C291      1.0  0.34776  0.53297  0.37913  1.0000
  H   H345      1.0  0.15759  0.72273  0.56128  1.0000
  H   H346      1.0  0.37913  0.73019  0.49904  1.0000
  H   H347      1.0  0.20808  0.60573  0.57019  1.0000
  H   H348      1.0  0.15126  0.66934  0.50362  1.0000
  H   H349      1.0  0.11600  0.65082  0.57625  1.0000
  C   C292      1.0  0.27723  0.88343  0.54168  1.0000
  Fe  Fe39      1.0  0.48938  0.72337  0.50955  1.0000
  H   H350      1.0  0.31411  0.56266  0.37531  1.0000
  N   N18       1.0  0.35698  0.67908  0.50131  1.0000
  H   H351      1.0  0.32066  0.55715  0.41171  1.0000
  C   C293      1.0  0.34569  0.65475  0.52434  1.0000
  H   H352      1.0  0.37879  0.65638  0.47798  1.0000
  C   C294      1.0  0.21216  0.80832  0.64837  1.0000
  C   C295      1.0  0.30705  0.54451  0.39246  1.0000
  H   H353      1.0  0.49036  0.78365  0.42174  1.0000
  H   H354      1.0  0.40482  0.68780  0.50085  1.0000
  H   H355      1.0  0.19452  0.72419  0.56336  1.0000
  H   H356      1.0  0.11008  0.67433  0.55023  1.0000
  H   H357      1.0  0.36388  0.66110  0.54091  1.0000
  H   H358      1.0  0.16896  0.59106  0.53242  1.0000
  N   N19       1.0  0.31308  0.51855  0.38376  1.0000
  C   C296      1.0  0.20677  0.64796  0.58211  1.0000
  H   H359      1.0  0.28079  0.60852  0.43867  1.0000
  C   C297      1.0  0.29252  0.63213  0.44781  1.0000
  C   C298      1.0  0.16268  0.68946  0.51878  1.0000
  H   H360      1.0  0.33083  0.71583  0.48182  1.0000
  H   H361      1.0  0.39288  0.69713  0.46817  1.0000
  H   H362      1.0  0.16358  0.70234  0.58981  1.0000
  C   C299      1.0  0.19742  0.62031  0.56648  1.0000
  C   C300      1.0  0.19381  0.66734  0.57672  1.0000
  Fe  Fe40      1.0  0.49632  0.78419  0.48589  1.0000
  C   C301      1.0  0.23317  0.75000  0.35906  1.0000
  H   H363      1.0  0.47164  0.81639  0.40213  1.0000
  C   C302      1.0  0.25640  0.88495  0.56141  1.0000
  H   H364      1.0  0.18264  0.72711  0.36318  1.0000
  C   C303      1.0  0.25944  0.76670  0.34109  1.0000
  H   H365      1.0  0.28294  0.77598  0.34952  1.0000
  H   H366      1.0  0.48751  0.76646  0.38773  1.0000
  H   H367      1.0  0.31655  0.50718  0.42731  1.0000
  C   C304      1.0  0.27337  0.50709  0.34459  1.0000
  H   H368      1.0  0.49235  0.84410  0.37390  1.0000
  H   H369      1.0  0.35499  0.51482  0.37615  1.0000
  S   S79       1.0  0.49856  0.76899  0.53052  1.0000
  Fe  Fe41      1.0  0.12951  0.83464  0.73563  1.0000
  S   S80       1.0  0.14680  0.79985  0.74079  1.0000
  S   S81       1.0  0.08053  0.82716  0.72449  1.0000
  Fe  Fe42      1.0  0.19514  0.89250  0.74874  1.0000
  S   S82       1.0  0.21695  0.86154  0.75465  1.0000
  S   S83       1.0  0.21878  0.94447  0.76387  1.0000
  Fe  Fe43      1.0  0.19011  0.83497  0.71543  1.0000
  S   S84       1.0  0.19866  0.66679  0.97809  1.0000
  Fe  Fe44      1.0  0.17278  0.82836  0.77940  1.0000
  S   S85       1.0  0.16883  0.80175  0.82093  1.0000
  S   S86       1.0  0.17158  0.86854  0.70775  1.0000
  S   S87       1.0  0.15223  0.86047  0.77593  1.0000
  C   C305      1.0  0.36869  0.66915  0.97945  1.0000
  H   H370      1.0  0.27857  0.87291  0.97529  1.0000
  S   S88       1.0  0.26987  0.54297  0.96336  1.0000
  C   C306      1.0  0.43917  0.80422  0.98683  1.0000
  S   S89       1.0  0.27554  0.74665  0.95830  1.0000
  C   C307      1.0  0.13845  0.91690  0.72505  1.0000
  C   C308      1.0  0.40636  0.61562  0.97332  1.0000
  Fe  Fe45      1.0  0.26132  0.78410  0.95426  1.0000
  S   S90       1.0  0.26832  0.81371  0.91398  1.0000
  H   H371      1.0  0.24234  0.75370  0.74275  1.0000
  H   H372      1.0  0.12523  0.90604  0.78167  1.0000
  H   H373      1.0  0.27272  0.90288  0.95864  1.0000
  H   H374      1.0  0.15711  0.88064  0.89861  1.0000
  C   C309      1.0  0.41940  0.81270  0.97265  1.0000
  S   S91       1.0  0.47885  0.81970  0.97504  1.0000
  C   C310      1.0  0.17338  0.88603  0.94167  1.0000
  C   C311      1.0  0.00357  0.74165  0.74906  1.0000
  H   H375      1.0  0.42848  0.82841  0.95437  1.0000
  H   H376      1.0  0.20312  0.56805  0.98126  1.0000
  C   C312      1.0  0.26594  0.63556  0.93066  1.0000
  H   H377      1.0  0.26188  0.67549  0.94478  1.0000
  C   C313      1.0  0.38786  0.80098  0.98208  1.0000
  S   S92       1.0  0.21470  0.75477  0.97704  1.0000
  C   C314      1.0  0.30533  0.62795  0.95398  1.0000
  Fe  Fe46      1.0  0.30055  0.52782  0.98515  1.0000
  C   C315      1.0  0.26309  0.87679  0.96071  1.0000
  H   H378      1.0  0.13126  0.89201  0.73094  1.0000
  C   C316      1.0  0.31423  0.65496  0.97145  1.0000
  C   C317      1.0  0.19710  0.80563  0.84640  1.0000
  C   C318      1.0  0.18734  0.78315  0.86867  1.0000
  C   C319      1.0  0.20875  0.78509  0.88940  1.0000
  C   C320      1.0  0.24034  0.80962  0.88813  1.0000
  C   C321      1.0  0.25012  0.83219  0.86591  1.0000
  C   C322      1.0  0.22867  0.83027  0.84519  1.0000
  H   H379      1.0  0.16298  0.76402  0.86988  1.0000
  H   H380      1.0  0.20079  0.76752  0.90628  1.0000
  H   H381      1.0  0.27446  0.85137  0.86476  1.0000
  H   H382      1.0  0.23656  0.84790  0.82837  1.0000
  C   C323      1.0  0.23728  0.98306  0.74795  1.0000
  H   H383      1.0  0.23393  0.96756  0.70455  1.0000
  C   C324      1.0  0.28146  0.61840  0.93399  1.0000
  C   C325      1.0  0.03509  0.76645  0.74421  1.0000
  C   C326      1.0  0.04120  0.79510  0.73166  1.0000
  C   C327      1.0  0.01524  0.79850  0.72417  1.0000
  H   H384      1.0  0.05463  0.76333  0.75012  1.0000
  H   H385      1.0  0.01955  0.82047  0.71442  1.0000
  N   N20       1.0  0.20805  0.75692  0.76972  1.0000
  C   C328      1.0  0.22199  0.79172  0.76531  1.0000
  C   C329      1.0  0.21635  0.74426  0.74425  1.0000
  C   C330      1.0  0.17313  0.74259  0.77146  1.0000
  C   C331      1.0  0.21922  0.74871  0.79569  1.0000
  C   C332      1.0  0.20711  0.71634  0.80343  1.0000
  C   C333      1.0  0.24206  0.77206  0.81394  1.0000
  C   C334      1.0  0.21665  0.70793  0.82820  1.0000
  C   C335      1.0  0.25153  0.76336  0.83858  1.0000
  C   C336      1.0  0.23869  0.73143  0.84582  1.0000
  H   H386      1.0  0.24814  0.80404  0.76235  1.0000
  H   H387      1.0  0.21274  0.79706  0.74589  1.0000
  H   H388      1.0  0.21611  0.80277  0.78346  1.0000
  H   H389      1.0  0.20444  0.71786  0.74452  1.0000
  C   C337      1.0  0.18923  0.86308  0.90371  1.0000
  H   H390      1.0  0.20929  0.75111  0.72422  1.0000
  H   H391      1.0  0.16405  0.74994  0.75319  1.0000
  H   H392      1.0  0.16037  0.71619  0.77141  1.0000
  H   H393      1.0  0.16582  0.75004  0.79131  1.0000
  H   H394      1.0  0.18988  0.69726  0.79051  1.0000
  H   H395      1.0  0.25261  0.79727  0.81002  1.0000
  H   H396      1.0  0.20672  0.68308  0.83394  1.0000
  H   H397      1.0  0.26856  0.78156  0.85252  1.0000
  H   H398      1.0  0.24577  0.72495  0.86524  1.0000
  C   C338      1.0  0.21773  0.82567  0.97201  1.0000
  C   C339      1.0  0.21015  0.86683  0.95163  1.0000
  S   S93       1.0  0.21517  0.81613  0.68574  1.0000
  H   H399      1.0  0.36651  0.64707  0.97010  1.0000
  H   H400      1.0  0.26587  0.86791  0.93960  1.0000
  H   H401      1.0  0.19205  0.88836  0.98244  1.0000
  H   H402      1.0  0.37653  0.68729  0.96218  1.0000
  H   H403      1.0  0.18550  0.60405  0.96192  1.0000
  H   H404      1.0  0.27465  0.59724  0.92135  1.0000
  C   C340      1.0  0.08804  0.90671  0.74315  1.0000
  H   H405      1.0  0.30297  0.69293  0.97964  1.0000
  C   C341      1.0  0.27442  0.66251  0.94710  1.0000
  C   C342      1.0  0.24142  0.98779  0.71849  1.0000
  H   H406      1.0  0.47966  0.83325  0.87650  1.0000
  H   H407      1.0  0.15914  0.94389  0.77531  1.0000
  H   H408      1.0  0.18787  0.85578  0.88163  1.0000
  C   C343      1.0  0.19217  0.88105  0.96072  1.0000
  H   H409      1.0  0.15973  0.89679  0.94900  1.0000
  H   H410      1.0  0.31645  0.61364  0.95600  1.0000
  H   H411      1.0  0.16469  0.93090  0.72635  1.0000
  H   H412      1.0  0.41030  0.61056  0.95165  1.0000
  H   H413      1.0  0.08211  0.88260  0.75086  1.0000
  H   H414      1.0  0.07456  0.91452  0.75708  1.0000
  H   H415      1.0  0.23128  0.81989  0.98718  1.0000
  C   C344      1.0  0.37907  0.59331  0.98845  1.0000
  H   H416      1.0  0.07895  0.90309  0.72110  1.0000
  H   H417      1.0  0.45835  0.77353  0.88297  1.0000
  H   H418      1.0  0.46566  0.78309  0.92018  1.0000
  C   C345      1.0  0.49720  0.83685  0.89294  1.0000
  H   H419      1.0  0.22109  0.84726  0.91411  1.0000
  C   C346      1.0  0.47646  0.78097  0.89972  1.0000
  C   C347      1.0  0.13295  0.93039  0.77345  1.0000
  H   H420      1.0  0.08458  0.95321  0.72274  1.0000
  H   H421      1.0  0.19241  0.81216  0.97898  1.0000
  C   C348      1.0  0.13172  0.96214  0.73427  1.0000
  H   H422      1.0  0.18203  0.98223  0.74183  1.0000
  H   H423      1.0  0.12310  0.94152  0.78802  1.0000
  C   C349      1.0  0.29814  0.67219  0.96728  1.0000
  H   H424      1.0  0.21984  0.81618  0.95101  1.0000
  C   C350      1.0  0.10952  0.97032  0.72402  1.0000
  N   N21       1.0  0.12266  0.92958  0.74379  1.0000
  C   C351      1.0  0.17186  0.87699  0.91327  1.0000
  H   H425      1.0  0.24698  0.62772  0.91560  1.0000
  C   C352      1.0  0.42881  0.64424  0.98614  1.0000
  C   C353      1.0  0.20153  0.61173  0.97957  1.0000
  C   C354      1.0  0.16389  0.98676  0.73456  1.0000
  C   C355      1.0  0.20817  0.85820  0.92252  1.0000
  H   H426      1.0  0.37275  0.80753  0.97104  1.0000
  N   N22       1.0  0.22970  0.86035  0.97114  1.0000
  C   C356      1.0  0.11922  0.00134  0.71485  1.0000
  H   H427      1.0  0.13219  0.91675  0.70238  1.0000
  H   H428      1.0  0.44986  0.66107  0.97434  1.0000
  H   H429      1.0  0.48120  0.76116  0.90317  1.0000
  C   C357      1.0  0.21157  0.59136  0.99042  1.0000
  S   S94       1.0  0.48889  0.74766  0.96640  1.0000
  S   S95       1.0  0.35243  0.55688  0.97209  1.0000
  Fe  Fe47      1.0  0.23086  0.71956  0.98438  1.0000
  H   H430      1.0  0.48646  0.83732  0.91401  1.0000
  H   H431      1.0  0.99927  0.71964  0.75874  1.0000
  C   C358      1.0  0.21232  0.64200  0.99135  1.0000
  N   N23       1.0  0.33873  0.66371  0.99319  1.0000
  Fe  Fe48      1.0  0.88919  0.18822  0.22876  1.0000
  S   S96       1.0  0.87574  0.22512  0.23893  1.0000
  S   S97       1.0  0.93876  0.20137  0.21187  1.0000
  Fe  Fe49      1.0  0.82096  0.13236  0.23976  1.0000
  S   S98       1.0  0.80353  0.16664  0.24980  1.0000
  S   S99       1.0  0.78206  0.08039  0.24869  1.0000
  Fe  Fe50      1.0  0.83303  0.19535  0.21203  1.0000
  S   S100      1.0  0.81555  0.22133  0.18351  1.0000
  Fe  Fe51      1.0  0.84717  0.19340  0.27576  1.0000
  S   S101      1.0  0.84747  0.15952  0.19993  1.0000
  S   S102      1.0  0.86369  0.15821  0.26740  1.0000
  H   H432      1.0  0.59161  0.41776  0.99764  1.0000
  H   H433      1.0  0.77557  0.35381  0.02456  1.0000
  H   H434      1.0  0.77550  0.39918  0.04915  1.0000
  S   S103      1.0  0.75269  0.27606  0.02906  1.0000
  C   C359      1.0  0.62860  0.21758  0.01714  1.0000
  Fe  Fe52      1.0  0.77363  0.24470  0.02007  1.0000
  S   S104      1.0  0.80004  0.22814  0.04901  1.0000
  H   H435      1.0  0.70005  0.31966  0.00261  1.0000
  H   H436      1.0  0.95992  0.24756  0.25874  1.0000
  H   H437      1.0  0.76986  0.11491  0.29168  1.0000
  H   H438      1.0  0.91058  0.29831  0.12245  1.0000
  C   C360      1.0  0.90134  0.23627  0.16246  1.0000
  H   H439      1.0  0.73889  0.18972  0.18377  1.0000
  H   H440      1.0  0.65531  0.18780  0.08928  1.0000
  C   C361      1.0  0.65871  0.34202  0.99979  1.0000
  H   H441      1.0  0.50899  0.21938  0.06670  1.0000
  H   H442      1.0  0.74133  0.22022  0.07521  1.0000
  C   C362      1.0  0.77763  0.42390  0.01045  1.0000
  H   H443      1.0  0.75472  0.46265  0.08334  1.0000
  H   H444      1.0  0.61280  0.36984  0.03034  1.0000
  H   H445      1.0  0.71372  0.20595  0.14851  1.0000
  C   C363      1.0  0.60726  0.22400  0.03203  1.0000
  C   C364      1.0  0.57778  0.21570  0.02052  1.0000
  H   H446      1.0  0.61345  0.23524  0.05267  1.0000
  H   H447      1.0  0.56151  0.22059  0.03232  1.0000
  C   C365      1.0  0.81104  0.22235  0.14606  1.0000
  C   C366      1.0  0.81683  0.20351  0.12704  1.0000
  C   C367      1.0  0.81323  0.20558  0.09751  1.0000
  C   C368      1.0  0.80348  0.22616  0.08659  1.0000
  C   C369      1.0  0.79785  0.24509  0.10564  1.0000
  C   C370      1.0  0.80158  0.24314  0.13514  1.0000
  H   H448      1.0  0.82392  0.18725  0.13504  1.0000
  H   H449      1.0  0.81784  0.19096  0.08299  1.0000
  H   H450      1.0  0.79119  0.26168  0.09763  1.0000
  H   H451      1.0  0.79720  0.25795  0.14962  1.0000
  C   C371      1.0  0.77606  0.04162  0.24124  1.0000
  C   C372      1.0  0.74834  0.01476  0.25180  1.0000
  S   S105      1.0  0.66424  0.22628  0.03355  1.0000
  H   H452      1.0  0.67242  0.19876  0.12335  1.0000
  C   C373      1.0  0.79773  0.03675  0.22525  1.0000
  H   H453      1.0  0.73132  0.01810  0.26413  1.0000
  H   H454      1.0  0.81913  0.05703  0.21692  1.0000
  C   C374      1.0  0.90150  0.27305  0.12861  1.0000
  C   C375      1.0  0.97676  0.23162  0.22325  1.0000
  S   S106      1.0  0.72881  0.20468  0.00192  1.0000
  S   S107      1.0  0.73161  0.49756  0.03268  1.0000
  N   N24       1.0  0.91493  0.27057  0.15594  1.0000
  H   H455      1.0  0.75727  0.06484  0.31668  1.0000
  H   H456      1.0  0.70900  0.22722  0.07105  1.0000
  H   H457      1.0  0.74810  0.46393  0.12102  1.0000
  H   H458      1.0  0.87526  0.26170  0.13010  1.0000
  H   H459      1.0  0.67216  0.13959  0.07149  1.0000
  C   C376      1.0  0.68848  0.36974  0.00438  1.0000
  H   H460      1.0  0.74620  0.12261  0.31606  1.0000
  H   H461      1.0  0.73998  0.48695  0.09623  1.0000
  H   H462      1.0  0.87814  0.27460  0.17860  1.0000
  C   C377      1.0  0.96625  0.28739  0.18041  1.0000
  H   H463      1.0  0.98141  0.13500  0.23051  1.0000
  C   C378      1.0  0.79173  0.00551  0.22003  1.0000
  C   C379      1.0  0.77614  0.39861  0.02614  1.0000
  S   S108      1.0  0.53287  0.26431  0.00191  1.0000
  H   H464      1.0  0.75348  0.14919  0.17237  1.0000
  S   S109      1.0  0.85189  0.21116  0.32174  1.0000
  H   H465      1.0  0.50146  0.20422  0.11264  1.0000
  H   H466      1.0  0.95851  0.30105  0.11041  1.0000
  C   C380      1.0  0.81064  0.49121  0.10466  1.0000
  H   H467      1.0  0.66455  0.29508  0.02314  1.0000
  H   H468      1.0  0.90877  0.23224  0.18347  1.0000
  C   C381      1.0  0.96873  0.30095  0.13052  1.0000
  H   H469      1.0  0.71358  0.41777  0.02022  1.0000
  H   H470      1.0  0.65121  0.15737  0.11364  1.0000
  H   H471      1.0  0.87499  0.22344  0.16308  1.0000
  C   C382      1.0  0.67438  0.30196  0.00106  1.0000
  C   C383      1.0  0.90432  0.28505  0.17832  1.0000
  H   H472      1.0  0.72749  0.23376  0.10472  1.0000
  H   H473      1.0  0.74305  0.12463  0.12468  1.0000
  H   H474      1.0  0.90903  0.22451  0.14638  1.0000
  H   H475      1.0  0.78672  0.19968  0.31785  1.0000
  H   H476      1.0  0.95360  0.27607  0.19999  1.0000
  C   C384      1.0  0.98684  0.17263  0.25808  1.0000
  H   H477      1.0  0.81031  0.10443  0.30695  1.0000
  H   H478      1.0  0.51809  0.16314  0.04951  1.0000
  H   H479      1.0  0.96158  0.16360  0.26023  1.0000
  H   H480      1.0  0.71817  0.13958  0.08863  1.0000
  H   H481      1.0  0.90652  0.26065  0.11106  1.0000
  C   C385      1.0  0.69069  0.39660  0.01763  1.0000
  H   H482      1.0  0.80674  0.47565  0.08583  1.0000
  C   C386      1.0  0.94993  0.28641  0.15542  1.0000
  Fe  Fe53      1.0  0.70888  0.23708  0.00877  1.0000
  H   H483      1.0  0.71030  0.16781  0.05579  1.0000
  C   C387      1.0  0.98055  0.25081  0.24685  1.0000
  H   H484      1.0  0.67733  0.17342  0.05176  1.0000
  N   N25       1.0  0.69734  0.18420  0.09377  1.0000
  C   C388      1.0  0.66784  0.18186  0.10563  1.0000
  C   C389      1.0  0.71973  0.21779  0.08595  1.0000
  C   C390      1.0  0.68891  0.16526  0.06714  1.0000
  C   C391      1.0  0.71205  0.17363  0.11516  1.0000
  C   C392      1.0  0.72124  0.15063  0.10919  1.0000
  C   C393      1.0  0.71871  0.18736  0.14273  1.0000
  C   C394      1.0  0.73563  0.14171  0.12980  1.0000
  C   C395      1.0  0.73305  0.17821  0.16315  1.0000
  C   C396      1.0  0.74143  0.15539  0.15672  1.0000
  H   H485      1.0  0.78716  0.15175  0.31093  1.0000
  C   C397      1.0  0.77607  0.37281  0.01225  1.0000
  H   H486      1.0  0.91027  0.28120  0.20007  1.0000
  H   H487      1.0  0.61166  0.27869  0.00207  1.0000
  S   S110      1.0  0.77985  0.45684  0.02880  1.0000
  H   H488      1.0  0.52319  0.18061  0.08390  1.0000
  C   C398      1.0  0.66350  0.39654  0.02711  1.0000
  H   H489      1.0  0.66522  0.41773  0.03661  1.0000
  C   C399      1.0  0.63397  0.36953  0.02352  1.0000
  C   C400      1.0  0.63140  0.34268  0.00991  1.0000
  H   H490      1.0  0.60763  0.32320  0.00685  1.0000
  H   H491      1.0  0.91528  0.31116  0.17496  1.0000
  H   H492      1.0  0.71032  0.37104  0.99741  1.0000
  C   C401      1.0  0.77013  0.12575  0.31267  1.0000
  H   H493      1.0  0.82889  0.14152  0.32521  1.0000
  H   H494      1.0  0.80613  0.47632  0.12402  1.0000
  C   C402      1.0  0.75676  0.47864  0.10127  1.0000
  C   C403      1.0  0.99813  0.15671  0.24117  1.0000
  H   H495      1.0  0.50408  0.20321  0.03187  1.0000
  Fe  Fe54      1.0  0.76763  0.49118  0.00767  1.0000
  C   C404      1.0  0.50529  0.16234  0.06972  1.0000
  H   H496      1.0  0.80875  0.00214  0.20771  1.0000
  C   C405      1.0  0.56897  0.19995  0.99441  1.0000
  H   H497      1.0  0.66776  0.46515  0.57971  1.0000
  Fe  Fe55      1.0  0.52631  0.24193  0.46163  1.0000
  S   S111      1.0  0.55609  0.21950  0.45028  1.0000
  Fe  Fe56      1.0  0.52568  0.30334  0.46658  1.0000
  S   S112      1.0  0.55756  0.35550  0.45525  1.0000
  S   S113      1.0  0.51805  0.27087  0.42947  1.0000
  Fe  Fe57      1.0  0.76563  0.24661  0.45666  1.0000
  S   S114      1.0  0.75972  0.22577  0.41173  1.0000
  S   S115      1.0  0.75369  0.28541  0.46497  1.0000
  S   S116      1.0  0.68050  0.45628  0.52003  1.0000
  C   C406      1.0  0.80001  0.40349  0.45198  1.0000
  H   H498      1.0  0.80274  0.36047  0.45148  1.0000
  H   H499      1.0  0.79336  0.40141  0.42991  1.0000
  C   C407      1.0  0.59321  0.38134  0.47271  1.0000
  C   C408      1.0  0.61683  0.40830  0.45811  1.0000
  C   C409      1.0  0.64454  0.43066  0.47191  1.0000
  C   C410      1.0  0.64839  0.42669  0.50070  1.0000
  C   C411      1.0  0.62510  0.39939  0.51516  1.0000
  C   C412      1.0  0.59783  0.37655  0.50113  1.0000
  H   H500      1.0  0.61341  0.41218  0.43614  1.0000
  H   H501      1.0  0.66218  0.45166  0.46059  1.0000
  C   C413      1.0  0.59243  0.23242  0.46737  1.0000
  C   C414      1.0  0.61185  0.22006  0.45896  1.0000
  C   C415      1.0  0.64020  0.22896  0.47319  1.0000
  H   H502      1.0  0.60491  0.20346  0.44146  1.0000
  H   H503      1.0  0.65487  0.21908  0.46678  1.0000
  C   C416      1.0  0.82645  0.21707  0.34564  1.0000
  C   C417      1.0  0.83755  0.22977  0.37279  1.0000
  C   C418      1.0  0.81788  0.23348  0.39303  1.0000
  C   C419      1.0  0.78661  0.22417  0.38646  1.0000
  C   C420      1.0  0.77567  0.21193  0.35917  1.0000
  H   H504      1.0  0.77611  0.08943  0.64115  1.0000
  H   H505      1.0  0.86149  0.23652  0.37831  1.0000
  H   H506      1.0  0.82668  0.24293  0.41387  1.0000
  H   H507      1.0  0.75162  0.20487  0.35377  1.0000
  H   H508      1.0  0.76181  0.06531  0.35466  1.0000
  S   S117      1.0  0.53639  0.27553  0.49798  1.0000
  S   S118      1.0  0.73245  0.21439  0.49152  1.0000
  Fe  Fe58      1.0  0.79324  0.30446  0.49595  1.0000
  S   S119      1.0  0.76274  0.27606  0.53300  1.0000
  S   S120      1.0  0.82520  0.35629  0.50700  1.0000
  Fe  Fe59      1.0  0.77455  0.23884  0.52024  1.0000
  S   S121      1.0  0.79007  0.21204  0.54987  1.0000
  Fe  Fe60      1.0  0.72373  0.25484  0.50138  1.0000
  S   S122      1.0  0.68139  0.25795  0.51757  1.0000
  S   S123      1.0  0.80825  0.26868  0.48481  1.0000
  S   S124      1.0  0.79848  0.45897  0.45128  1.0000
  C   C421      1.0  0.81513  0.38334  0.49231  1.0000
  C   C422      1.0  0.80522  0.38020  0.46419  1.0000
  C   C423      1.0  0.80371  0.42954  0.46802  1.0000
  C   C424      1.0  0.81241  0.43207  0.49651  1.0000
  C   C425      1.0  0.81865  0.40930  0.50846  1.0000
  H   H509      1.0  0.81548  0.45216  0.50901  1.0000
  H   H510      1.0  0.82643  0.41194  0.53020  1.0000
  H   H511      1.0  0.62781  0.39619  0.53748  1.0000
  H   H512      1.0  0.57973  0.35598  0.51261  1.0000
  C   C426      1.0  0.64864  0.24945  0.49651  1.0000
  C   C427      1.0  0.62937  0.26199  0.50471  1.0000
  C   C428      1.0  0.60177  0.25404  0.48984  1.0000
  H   H513      1.0  0.63575  0.27780  0.52274  1.0000
  H   H514      1.0  0.58764  0.26445  0.49591  1.0000
  C   C429      1.0  0.65035  0.35009  0.46098  1.0000
  C   C430      1.0  0.81464  0.20088  0.62974  1.0000
  C   C431      1.0  0.80922  0.19872  0.60019  1.0000
  C   C432      1.0  0.79644  0.21574  0.58724  1.0000
  C   C433      1.0  0.78883  0.23473  0.60430  1.0000
  C   C434      1.0  0.79416  0.23679  0.63385  1.0000
  H   H515      1.0  0.82489  0.18804  0.63928  1.0000
  H   H516      1.0  0.81501  0.18381  0.58724  1.0000
  H   H517      1.0  0.77844  0.24749  0.59484  1.0000
  H   H518      1.0  0.60246  0.29007  0.41675  1.0000
  C   C435      1.0  0.77669  0.15624  0.41468  1.0000
  C   C436      1.0  0.73133  0.10969  0.58098  1.0000
  C   C437      1.0  0.61224  0.20507  0.57862  1.0000
  C   C438      1.0  0.62277  0.30508  0.42965  1.0000
  C   C439      1.0  0.72728  0.13601  0.57930  1.0000
  H   H519      1.0  0.91123  0.26698  0.63501  1.0000
  H   H520      1.0  0.77617  0.16883  0.43364  1.0000
  H   H521      1.0  0.73572  0.35207  0.46584  1.0000
  H   H522      1.0  0.72628  0.17376  0.60224  1.0000
  C   C440      1.0  0.80495  0.15853  0.40524  1.0000
  H   H523      1.0  0.82635  0.17286  0.41706  1.0000
  H   H524      1.0  0.50678  0.15930  0.57411  1.0000
  C   C441      1.0  0.88498  0.26199  0.59728  1.0000
  N   N26       1.0  0.86978  0.32351  0.56256  1.0000
  C   C442      1.0  0.83496  0.30705  0.56651  1.0000
  C   C443      1.0  0.88231  0.35801  0.56757  1.0000
  C   C444      1.0  0.87732  0.31993  0.53246  1.0000
  C   C445      1.0  0.88259  0.30899  0.58195  1.0000
  C   C446      1.0  0.90192  0.32554  0.60543  1.0000
  C   C447      1.0  0.87437  0.27670  0.57855  1.0000
  C   C448      1.0  0.80622  0.14406  0.37981  1.0000
  N   N27       1.0  0.53813  0.20436  0.55409  1.0000
  C   C449      1.0  0.75647  0.07675  0.33683  1.0000
  H   H525      1.0  0.82810  0.30681  0.58929  1.0000
  H   H526      1.0  0.82449  0.31883  0.55415  1.0000
  H   H527      1.0  0.82336  0.28190  0.55929  1.0000
  H   H528      1.0  0.87509  0.36235  0.58897  1.0000
  H   H529      1.0  0.87285  0.36825  0.55196  1.0000
  H   H530      1.0  0.90855  0.37182  0.56523  1.0000
  H   H531      1.0  0.86566  0.29464  0.52569  1.0000
  H   H532      1.0  0.86890  0.33171  0.51748  1.0000
  H   H533      1.0  0.90326  0.33054  0.52889  1.0000
  H   H534      1.0  0.90903  0.34997  0.61008  1.0000
  H   H535      1.0  0.85886  0.26221  0.56181  1.0000
  H   H536      1.0  0.60721  0.17360  0.51308  1.0000
  C   C450      1.0  0.73541  0.14421  0.63002  1.0000
  H   H537      1.0  0.64151  0.19125  0.55489  1.0000
  C   C451      1.0  0.68861  0.36257  0.51322  1.0000
  H   H538      1.0  0.68950  0.30856  0.45210  1.0000
  C   C452      1.0  0.67238  0.31626  0.45016  1.0000
  C   C453      1.0  0.58532  0.20820  0.57839  1.0000
  H   H539      1.0  0.64497  0.27720  0.42191  1.0000
  H   H540      1.0  0.72857  0.11158  0.36208  1.0000
  C   C454      1.0  0.52108  0.19542  0.52676  1.0000
  C   C455      1.0  0.72445  0.35163  0.48678  1.0000
  H   H541      1.0  0.67356  0.37376  0.51381  1.0000
  H   H542      1.0  0.73924  0.41161  0.48711  1.0000
  C   C456      1.0  0.77877  0.12634  0.36321  1.0000
  H   H543      1.0  0.62765  0.21309  0.59679  1.0000
  Fe  Fe61      1.0  0.78602  0.49118  0.47644  1.0000
  H   H544      1.0  0.52929  0.24365  0.55723  1.0000
  C   C457      1.0  0.62464  0.33125  0.44368  1.0000
  S   S125      1.0  0.74794  0.49698  0.45610  1.0000
  H   H545      1.0  0.67405  0.33775  0.52142  1.0000
  C   C458      1.0  0.74018  0.11774  0.63243  1.0000
  C   C459      1.0  0.74941  0.13910  0.39895  1.0000
  H   H546      1.0  0.65070  0.37017  0.47134  1.0000
  C   C460      1.0  0.80703  0.21987  0.64678  1.0000
  H   H547      1.0  0.72832  0.39733  0.45152  1.0000
  C   C461      1.0  0.90368  0.27875  0.62015  1.0000
  N   N28       1.0  0.70131  0.36280  0.48422  1.0000
  H   H548      1.0  0.72779  0.13843  0.40593  1.0000
  H   H549      1.0  0.73164  0.07130  0.33967  1.0000
  H   H550      1.0  0.81903  0.10502  0.34383  1.0000
  C   C462      1.0  0.71876  0.39609  0.47351  1.0000
  H   H551      1.0  0.56079  0.17898  0.51140  1.0000
  H   H552      1.0  0.53678  0.20982  0.50875  1.0000
  H   H553      1.0  0.70371  0.40725  0.47306  1.0000
  H   H554      1.0  0.73017  0.09668  0.56179  1.0000
  H   H555      1.0  0.70795  0.37609  0.52852  1.0000
  H   H556      1.0  0.82922  0.14809  0.37319  1.0000
  N   N29       1.0  0.77928  0.11148  0.33573  1.0000
  H   H557      1.0  0.60592  0.33683  0.44126  1.0000
  C   C463      1.0  0.67468  0.48049  0.59903  1.0000
  H   H558      1.0  0.79741  0.13112  0.64930  1.0000
  C   C464      1.0  0.56558  0.19927  0.55431  1.0000
  S   S126      1.0  0.76492  0.48305  0.52029  1.0000
  C   C465      1.0  0.72884  0.15290  0.60381  1.0000
  H   H559      1.0  0.67413  0.46579  0.61736  1.0000
  Fe  Fe62      1.0  0.72850  0.49188  0.50076  1.0000
  H   H560      1.0  0.74036  0.07985  0.60736  1.0000
  H   H561      1.0  0.74417  0.36705  0.50115  1.0000
  H   H562      1.0  0.71310  0.32701  0.49572  1.0000
  H   H563      1.0  0.56796  0.25397  0.54375  1.0000
  H   H564      1.0  0.87797  0.23715  0.59444  1.0000
  C   C466      1.0  0.79548  0.20869  0.33879  1.0000
  H   H565      1.0  0.55829  0.24625  0.58093  1.0000
  C   C467      1.0  0.67487  0.34299  0.46505  1.0000
  C   C468      1.0  0.64676  0.29785  0.43261  1.0000
  H   H566      1.0  0.58045  0.21830  0.59700  1.0000
  C   C469      1.0  0.73741  0.10044  0.60714  1.0000
  H   H567      1.0  0.71940  0.05740  0.65194  1.0000
  H   H568      1.0  0.73754  0.15927  0.64783  1.0000
  C   C470      1.0  0.54893  0.23846  0.55924  1.0000
  C   C471      1.0  0.60060  0.18260  0.53157  1.0000
  C   C472      1.0  0.61997  0.19251  0.55517  1.0000
  C   C473      1.0  0.57385  0.18596  0.53093  1.0000
  H   H569      1.0  0.52532  0.19196  0.59846  1.0000
  C   C474      1.0  0.75026  0.12412  0.37373  1.0000
  H   H570      1.0  0.50071  0.19959  0.52712  1.0000
  H   H571      1.0  0.72356  0.14382  0.55888  1.0000
  H   H572      1.0  0.78805  0.25145  0.64684  1.0000
  H   H573      1.0  0.73004  0.48252  0.60347  1.0000
  C   C475      1.0  0.51510  0.18506  0.57693  1.0000
  C   C476      1.0  0.72892  0.49823  0.58697  1.0000
  C   C477      1.0  0.77771  0.10755  0.65656  1.0000
  H   H574      1.0  0.72184  0.48415  0.56699  1.0000
  H   H575      1.0  0.92651  0.32328  0.64222  1.0000
  C   C478      1.0  0.91221  0.31047  0.62417  1.0000
  H   H576      1.0  0.51123  0.16977  0.52188  1.0000
  H   H577      1.0  0.65585  0.48659  0.60279  1.0000
  C   C479      1.0  0.81080  0.11583  0.32776  1.0000
  N   N30       1.0  0.74766  0.10802  0.65968  1.0000
  H   H578      1.0  0.83849  0.49957  0.37402  1.0000
  Fe  Fe63      1.0  0.88096  0.18478  0.73437  1.0000
  S   S127      1.0  0.86972  0.22336  0.74388  1.0000
  S   S128      1.0  0.93059  0.19189  0.72638  1.0000
  Fe  Fe64      1.0  0.81086  0.13182  0.73915  1.0000
  S   S129      1.0  0.79539  0.16751  0.74964  1.0000
  S   S130      1.0  0.76939  0.08054  0.73623  1.0000
  Fe  Fe65      1.0  0.82887  0.19708  0.71407  1.0000
  S   S131      1.0  0.81253  0.22294  0.68426  1.0000
  Fe  Fe66      1.0  0.83699  0.19055  0.77850  1.0000
  S   S132      1.0  0.84234  0.21137  0.82336  1.0000
  S   S133      1.0  0.84215  0.16043  0.70205  1.0000
  S   S134      1.0  0.85036  0.15297  0.77044  1.0000
  H   H579      1.0  0.72622  0.02520  0.88288  1.0000
  C   C480      1.0  0.74553  0.04315  0.84115  1.0000
  Fe  Fe67      1.0  0.53203  0.28641  0.96044  1.0000
  S   S135      1.0  0.57840  0.32607  0.94164  1.0000
  H   H580      1.0  0.74911  0.06671  0.84530  1.0000
  Fe  Fe68      1.0  0.74729  0.22905  0.95930  1.0000
  S   S136      1.0  0.74103  0.20364  0.91657  1.0000
  S   S137      1.0  0.72252  0.25735  0.96483  1.0000
  H   H581      1.0  0.94900  0.18501  0.78231  1.0000
  H   H582      1.0  0.62346  0.26685  0.97034  1.0000
  Fe  Fe69      1.0  0.51164  0.21876  0.97772  1.0000
  H   H583      1.0  0.74710  0.22593  0.81069  1.0000
  C   C481      1.0  0.59995  0.36443  0.95649  1.0000
  C   C482      1.0  0.63224  0.38347  0.94932  1.0000
  C   C483      1.0  0.65008  0.41447  0.96011  1.0000
  H   H584      1.0  0.71691  0.01739  0.72957  1.0000
  H   H585      1.0  0.57957  0.38348  0.89145  1.0000
  H   H586      1.0  0.61004  0.29484  0.96802  1.0000
  H   H587      1.0  0.64345  0.37427  0.93522  1.0000
  C   C484      1.0  0.77839  0.42289  0.98072  1.0000
  C   C485      1.0  0.75346  0.03616  0.81453  1.0000
  C   C486      1.0  0.63543  0.42705  0.97738  1.0000
  C   C487      1.0  0.67176  0.32408  0.95604  1.0000
  H   H588      1.0  0.58357  0.18114  0.95939  1.0000
  H   H589      1.0  0.99283  0.20040  0.71778  1.0000
  C   C488      1.0  0.95710  0.19504  0.80390  1.0000
  C   C489      1.0  0.81355  0.20746  0.84943  1.0000
  C   C490      1.0  0.82394  0.22364  0.87543  1.0000
  C   C491      1.0  0.80218  0.22214  0.89647  1.0000
  C   C492      1.0  0.76963  0.20475  0.89161  1.0000
  C   C493      1.0  0.75922  0.18805  0.86583  1.0000
  C   C494      1.0  0.78099  0.18927  0.84490  1.0000
  H   H590      1.0  0.84903  0.23756  0.87932  1.0000
  H   H591      1.0  0.81066  0.23443  0.91642  1.0000
  H   H592      1.0  0.73412  0.17434  0.86188  1.0000
  H   H593      1.0  0.77257  0.17660  0.82509  1.0000
  C   C495      1.0  0.76760  0.04309  0.73410  1.0000
  C   C496      1.0  0.71906  0.47867  0.89321  1.0000
  H   H594      1.0  0.90552  0.22155  0.81590  1.0000
  C   C497      1.0  0.76741  0.24591  0.82027  1.0000
  C   C498      1.0  0.79448  0.04006  0.73607  1.0000
  H   H595      1.0  0.56058  0.36229  0.97982  1.0000
  H   H596      1.0  0.81749  0.06110  0.73839  1.0000
  H   H597      1.0  0.73943  0.25045  0.85272  1.0000
  C   C499      1.0  0.96899  0.22489  0.73323  1.0000
  C   C500      1.0  0.90284  0.16538  0.82516  1.0000
  C   C501      1.0  0.60310  0.40809  0.98441  1.0000
  H   H598      1.0  0.95314  0.25603  0.74960  1.0000
  H   H599      1.0  0.78084  0.39748  0.94387  1.0000
  C   C502      1.0  0.60848  0.42935  0.91036  1.0000
  S   S138      1.0  0.51343  0.24092  0.93553  1.0000
  H   H600      1.0  0.71322  0.46103  0.91064  1.0000
  C   C503      1.0  0.84604  0.10622  0.83371  1.0000
  C   C504      1.0  0.92367  0.21795  0.80462  1.0000
  H   H601      1.0  0.62047  0.39062  0.85569  1.0000
  C   C505      1.0  0.87107  0.10755  0.81784  1.0000
  C   C506      1.0  0.63825  0.45696  0.91076  1.0000
  H   H602      1.0  0.64151  0.47401  0.92712  1.0000
  C   C507      1.0  0.58549  0.37670  0.97434  1.0000
  C   C508      1.0  0.84897  0.13392  0.84548  1.0000
  C   C509      1.0  0.62551  0.40934  0.87092  1.0000
  H   H603      1.0  0.67249  0.43899  0.85508  1.0000
  H   H604      1.0  0.92898  0.21741  0.86058  1.0000
  C   C510      1.0  0.79758  0.25599  0.80902  1.0000
  C   C511      1.0  0.60229  0.40537  0.89083  1.0000
  H   H605      1.0  0.96518  0.18028  0.81495  1.0000
  S   S139      1.0  0.79320  0.26723  0.97675  1.0000
  H   H606      1.0  0.86849  0.08604  0.80824  1.0000
  H   H607      1.0  0.75717  0.12182  0.70376  1.0000
  H   H608      1.0  0.91417  0.20795  0.78334  1.0000
  N   N31       1.0  0.65700  0.31428  0.98484  1.0000
  H   H609      1.0  0.72645  0.06787  0.68854  1.0000
  H   H610      1.0  0.59047  0.42600  0.92608  1.0000
  N   N32       1.0  0.78650  0.30185  0.88391  1.0000
  C   C512      1.0  0.80328  0.29728  0.90769  1.0000
  C   C513      1.0  0.80070  0.33649  0.87855  1.0000
  C   C514      1.0  0.75316  0.28942  0.89352  1.0000
  C   C515      1.0  0.78972  0.28597  0.85809  1.0000
  C   C516      1.0  0.76336  0.26037  0.84457  1.0000
  C   C517      1.0  0.82012  0.29572  0.84594  1.0000
  N   N33       1.0  0.93176  0.19676  0.82046  1.0000
  C   C518      1.0  0.82388  0.28077  0.82188  1.0000
  H   H611      1.0  0.72076  0.46768  0.87300  1.0000
  H   H612      1.0  0.82873  0.30649  0.90281  1.0000
  H   H613      1.0  0.80217  0.30969  0.92727  1.0000
  H   H614      1.0  0.78970  0.34097  0.85995  1.0000
  H   H615      1.0  0.82662  0.34848  0.87434  1.0000
  H   H616      1.0  0.79746  0.34883  0.89734  1.0000
  H   H617      1.0  0.74149  0.26372  0.89951  1.0000
  H   H618      1.0  0.75167  0.30204  0.91286  1.0000
  H   H619      1.0  0.73909  0.29251  0.87685  1.0000
  H   H620      1.0  0.79242  0.27161  0.91306  1.0000
  H   H621      1.0  0.84131  0.31455  0.85531  1.0000
  H   H622      1.0  0.69743  0.34198  0.95677  1.0000
  H   H623      1.0  0.84734  0.28780  0.81351  1.0000
  H   H624      1.0  0.67487  0.42891  0.95444  1.0000
  H   H625      1.0  0.96784  0.23442  0.84547  1.0000
  H   H626      1.0  0.94953  0.19544  0.86158  1.0000
  C   C519      1.0  0.97337  0.25310  0.74549  1.0000
  C   C520      1.0  0.77905  0.39747  0.96685  1.0000
  C   C521      1.0  0.65530  0.43697  0.87097  1.0000
  H   H627      1.0  0.63656  0.19770  0.97895  1.0000
  Fe  Fe70      1.0  0.76752  0.29456  0.98433  1.0000
  H   H628      1.0  0.80070  0.24391  0.79083  1.0000
  C   C522      1.0  0.73261  0.01970  0.86225  1.0000
  C   C523      1.0  0.89913  0.13660  0.81353  1.0000
  H   H629      1.0  0.94469  0.24200  0.80110  1.0000
  S   S140      1.0  0.78174  0.34245  0.96427  1.0000
  C   C524      1.0  0.87691  0.16303  0.84141  1.0000
  C   C525      1.0  0.66294  0.46121  0.89151  1.0000
  H   H630      1.0  0.77969  0.44229  0.96843  1.0000
  H   H631      1.0  0.66976  0.30349  0.94378  1.0000
  C   C526      1.0  0.99583  0.22204  0.72733  1.0000
  C   C527      1.0  0.94507  0.21160  0.84825  1.0000
  C   C528      1.0  0.59040  0.19368  0.97943  1.0000
  H   H632      1.0  0.82926  0.13312  0.85727  1.0000
  H   H633      1.0  0.97828  0.21903  0.80018  1.0000
  H   H634      1.0  0.72926  0.13016  0.68825  1.0000
  C   C529      1.0  0.73789  0.01538  0.73104  1.0000
  S   S141      1.0  0.53012  0.18464  0.98199  1.0000
  H   H635      1.0  0.87760  0.18391  0.85037  1.0000
  S   S142      1.0  0.74329  0.48419  0.96615  1.0000
  H   H636      1.0  0.76310  0.05426  0.79790  1.0000
  C   C530      1.0  0.75139  0.12961  0.68367  1.0000
  H   H637      1.0  0.82415  0.08378  0.83649  1.0000
  H   H638      1.0  0.66001  0.33460  0.94364  1.0000
  H   H639      1.0  0.91720  0.13593  0.80045  1.0000
  C   C531      1.0  0.77826  0.37252  0.98254  1.0000
  C   C532      1.0  0.62411  0.28760  0.98121  1.0000
  C   C533      1.0  0.79155  0.00963  0.73525  1.0000
  H   H640      1.0  0.77104  0.15431  0.67937  1.0000
  C   C534      1.0  0.62040  0.20303  0.99048  1.0000
  H   H641      1.0  0.78470  0.10164  0.67706  1.0000
  H   H642      1.0  0.69877  0.07474  0.66963  1.0000
  C   C535      1.0  0.72193  0.07562  0.66771  1.0000
  H   H643      1.0  0.81248  0.00756  0.73697  1.0000
  N   N34       1.0  0.69533  0.48923  0.89236  1.0000
  S   S143      1.0  0.65618  0.46692  0.98896  1.0000
  Fe  Fe71      1.0  0.70960  0.49437  0.99072  1.0000
  H   H644      1.0  0.67282  0.28045  0.99091  1.0000
  H   H645      1.0  0.69514  0.49588  0.93769  1.0000
  C   C536      1.0  0.74851  0.00573  0.80896  1.0000
  H   H646      1.0  0.69969  0.49569  0.84669  1.0000
  H   H647      1.0  0.74342  0.49894  0.89685  1.0000
  Fe  Fe72      1.0  0.89811  0.71030  0.25480  1.0000
  S   S144      1.0  0.86873  0.65731  0.24798  1.0000
  S   S145      1.0  0.94842  0.72999  0.27121  1.0000
  Fe  Fe73      1.0  0.84161  0.71958  0.24143  1.0000
  S   S146      1.0  0.80895  0.66731  0.23336  1.0000
  S   S147      1.0  0.83138  0.76052  0.23616  1.0000
  Fe  Fe74      1.0  0.83011  0.65950  0.27288  1.0000
  C   C537      1.0  0.53486  0.70010  0.06783  1.0000
  Fe  Fe75      1.0  0.85017  0.66928  0.20925  1.0000
  S   S148      1.0  0.85234  0.64703  0.16679  1.0000
  S   S149      1.0  0.86028  0.71171  0.28234  1.0000
  S   S150      1.0  0.88188  0.72220  0.21472  1.0000
  Fe  Fe76      1.0  0.65318  0.83708  0.21858  1.0000
  S   S151      1.0  0.70286  0.84961  0.20644  1.0000
  S   S152      1.0  0.61182  0.82575  0.18928  1.0000
  Fe  Fe77      1.0  0.66839  0.84734  0.28284  1.0000
  S   S153      1.0  0.71950  0.86128  0.27470  1.0000
  C   C538      1.0  0.77717  0.68789  0.29224  1.0000
  Fe  Fe78      1.0  0.71805  0.89024  0.23775  1.0000
  S   S154      1.0  0.75780  0.93981  0.22325  1.0000
  Fe  Fe79      1.0  0.70035  0.81982  0.24425  1.0000
  S   S155      1.0  0.70967  0.77779  0.24337  1.0000
  S   S156      1.0  0.66846  0.87899  0.24788  1.0000
  S   S157      1.0  0.64908  0.80453  0.25450  1.0000
  Fe  Fe80      1.0  0.76235  0.54990  0.02396  1.0000
  H   H648      1.0  0.82331  0.54667  0.08064  1.0000
  S   S158      1.0  0.76414  0.58362  0.05930  1.0000
  C   C539      1.0  0.56985  0.83407  0.31043  1.0000
  H   H649      1.0  0.80032  0.57794  0.19565  1.0000
  Fe  Fe81      1.0  0.55409  0.78863  0.02393  1.0000
  S   S159      1.0  0.54201  0.74219  0.00289  1.0000
  S   S160      1.0  0.59613  0.80802  0.05419  1.0000
  C   C540      1.0  0.60818  0.82108  0.15164  1.0000
  C   C541      1.0  0.57996  0.81562  0.13912  1.0000
  C   C542      1.0  0.57563  0.81117  0.10949  1.0000
  C   C543      1.0  0.59949  0.81197  0.09193  1.0000
  C   C544      1.0  0.62776  0.81753  0.10445  1.0000
  C   C545      1.0  0.63213  0.82208  0.13408  1.0000
  H   H650      1.0  0.56131  0.81490  0.15247  1.0000
  H   H651      1.0  0.55407  0.80773  0.10021  1.0000
  H   H652      1.0  0.64647  0.81842  0.09109  1.0000
  H   H653      1.0  0.65386  0.82595  0.14332  1.0000
  C   C546      1.0  0.79772  0.56246  0.17792  1.0000
  H   H654      1.0  0.72108  0.96326  0.25513  1.0000
  C   C547      1.0  0.82021  0.55335  0.17293  1.0000
  C   C548      1.0  0.99039  0.77344  0.23053  1.0000
  H   H655      1.0  0.79746  0.51342  0.05917  1.0000
  H   H656      1.0  0.72166  0.96662  0.17751  1.0000
  H   H657      1.0  0.51571  0.69069  0.05181  1.0000
  H   H658      1.0  0.96976  0.77012  0.21948  1.0000
  C   C549      1.0  0.78876  0.60060  0.08927  1.0000
  C   C550      1.0  0.77790  0.61155  0.11225  1.0000
  C   C551      1.0  0.79682  0.62564  0.13626  1.0000
  C   C552      1.0  0.82699  0.62915  0.13745  1.0000
  C   C553      1.0  0.83790  0.61842  0.11438  1.0000
  C   C554      1.0  0.81904  0.60444  0.09037  1.0000
  H   H659      1.0  0.75466  0.60906  0.11146  1.0000
  H   H660      1.0  0.78800  0.63360  0.15383  1.0000
  H   H661      1.0  0.86132  0.62131  0.11495  1.0000
  H   H662      1.0  0.82824  0.59741  0.07241  1.0000
  C   C555      1.0  0.79705  0.76455  0.23736  1.0000
  C   C556      1.0  0.80094  0.79530  0.23674  1.0000
  C   C557      1.0  0.77460  0.79990  0.23818  1.0000
  C   C558      1.0  0.74390  0.77369  0.24020  1.0000
  C   C559      1.0  0.74000  0.74290  0.24029  1.0000
  C   C560      1.0  0.76633  0.73831  0.23878  1.0000
  H   H663      1.0  0.82455  0.81581  0.23547  1.0000
  H   H664      1.0  0.77807  0.82371  0.23802  1.0000
  H   H665      1.0  0.71637  0.72246  0.24180  1.0000
  H   H666      1.0  0.76278  0.71451  0.23879  1.0000
  H   H667      1.0  0.75193  0.52997  0.12065  1.0000
  H   H668      1.0  0.75603  0.56119  0.16264  1.0000
  C   C561      1.0  0.72689  0.92552  0.14516  1.0000
  H   H669      1.0  0.74305  0.93423  0.16364  1.0000
  N   N35       1.0  0.82200  0.72923  0.14865  1.0000
  C   C562      1.0  0.81183  0.70419  0.17072  1.0000
  C   C563      1.0  0.85524  0.75428  0.15396  1.0000
  C   C564      1.0  0.80207  0.74422  0.15218  1.0000
  C   C565      1.0  0.81945  0.71456  0.12039  1.0000
  C   C566      1.0  0.79563  0.70960  0.10075  1.0000
  C   C567      1.0  0.83960  0.70239  0.11272  1.0000
  C   C568      1.0  0.79230  0.69332  0.07520  1.0000
  C   C569      1.0  0.83630  0.68656  0.08698  1.0000
  C   C570      1.0  0.81249  0.68171  0.06841  1.0000
  H   H670      1.0  0.82719  0.69334  0.17073  1.0000
  H   H671      1.0  0.81260  0.71391  0.19235  1.0000
  H   H672      1.0  0.78718  0.68456  0.16726  1.0000
  H   H673      1.0  0.87142  0.74455  0.15567  1.0000
  H   H674      1.0  0.85737  0.76670  0.17456  1.0000
  H   H675      1.0  0.86457  0.77251  0.13669  1.0000
  H   H676      1.0  0.77636  0.72631  0.15164  1.0000
  H   H677      1.0  0.80569  0.75622  0.17324  1.0000
  H   H678      1.0  0.80786  0.76266  0.13554  1.0000
  H   H679      1.0  0.77882  0.71743  0.10485  1.0000
  H   H680      1.0  0.85722  0.70367  0.12709  1.0000
  H   H681      1.0  0.77352  0.68904  0.06080  1.0000
  H   H682      1.0  0.85145  0.67675  0.08199  1.0000
  H   H683      1.0  0.80919  0.66818  0.04905  1.0000
  H   H684      1.0  0.66013  0.90302  0.18479  1.0000
  N   N36       1.0  0.52489  0.70916  0.09470  1.0000
  S   S161      1.0  0.50318  0.77438  0.03265  1.0000
  H   H685      1.0  0.53775  0.75513  0.07785  1.0000
  H   H686      1.0  0.70334  0.90439  0.09674  1.0000
  C   C571      1.0  0.77866  0.74858  0.31080  1.0000
  C   C572      1.0  0.77280  0.55303  0.15929  1.0000
  C   C573      1.0  0.59583  0.74641  0.15969  1.0000
  H   H687      1.0  0.84015  0.56178  0.18698  1.0000
  C   C574      1.0  0.60321  0.73892  0.13304  1.0000
  H   H688      1.0  0.73999  0.94193  0.12711  1.0000
  C   C575      1.0  0.84119  0.58140  0.30874  1.0000
  C   C576      1.0  0.98649  0.75660  0.25580  1.0000
  C   C577      1.0  0.58052  0.72674  0.11177  1.0000
  H   H689      1.0  0.75494  0.67739  0.27996  1.0000
  C   C578      1.0  0.76415  0.97868  0.23082  1.0000
  H   H690      1.0  0.61376  0.75682  0.17585  1.0000
  C   C579      1.0  0.75933  0.71699  0.32118  1.0000
  H   H691      1.0  0.62695  0.74335  0.12866  1.0000
  H   H692      1.0  0.80790  0.53328  0.29739  1.0000
  H   H693      1.0  0.68312  0.95802  0.16788  1.0000
  C   C580      1.0  0.76686  0.76933  0.30818  1.0000
  C   C581      1.0  0.70424  0.95718  0.15993  1.0000
  C   C582      1.0  0.79869  0.52634  0.07912  1.0000
  H   H694      1.0  0.59877  0.89573  0.11234  1.0000
  H   H695      1.0  0.67431  0.87815  0.17087  1.0000
  C   C583      1.0  0.55551  0.80428  0.32349  1.0000
  H   H696      1.0  0.71462  0.97395  0.14160  1.0000
  C   C584      1.0  0.67428  0.91320  0.12773  1.0000
  C   C585      1.0  0.68129  0.90376  0.10112  1.0000
  C   C586      1.0  0.64403  0.91042  0.13096  1.0000
  C   C587      1.0  0.65917  0.89211  0.07935  1.0000
  H   H697      1.0  0.69817  0.91026  0.19456  1.0000
  C   C588      1.0  0.62966  0.88949  0.08335  1.0000
  H   H698      1.0  0.54087  0.68118  0.07153  1.0000
  C   C589      1.0  0.62209  0.89863  0.10909  1.0000
  H   H699      1.0  0.66436  0.88387  0.05957  1.0000
  H   H700      1.0  0.50106  0.66191  0.11256  1.0000
  H   H701      1.0  0.61224  0.87932  0.06674  1.0000
  C   C590      1.0  0.56573  0.74179  0.16522  1.0000
  C   C591      1.0  0.54944  0.72148  0.11678  1.0000
  H   H702      1.0  0.56059  0.74888  0.18566  1.0000
  C   C592      1.0  0.77046  0.53474  0.13543  1.0000
  H   H703      1.0  0.57692  0.88131  0.31170  1.0000
  H   H704      1.0  0.78586  0.67071  0.29160  1.0000
  N   N37       1.0  0.69655  0.92458  0.15168  1.0000
  H   H705      1.0  0.84031  0.59117  0.28830  1.0000
  H   H706      1.0  0.78287  0.53644  0.07664  1.0000
  S   S162      1.0  0.80034  0.54405  0.00147  1.0000
  H   H707      1.0  0.58816  0.72222  0.09145  1.0000
  H   H708      1.0  0.79502  0.70970  0.28065  1.0000
  C   C593      1.0  0.54282  0.72952  0.14418  1.0000
  H   H709      1.0  0.55559  0.72101  0.05757  1.0000
  C   C594      1.0  0.68164  0.90314  0.17650  1.0000
  S   S163      1.0  0.79577  0.61963  0.30323  1.0000
  H   H710      1.0  0.72298  0.90136  0.14030  1.0000
  H   H711      1.0  0.63678  0.91655  0.15073  1.0000
  C   C595      1.0  0.73538  0.75913  0.31515  1.0000
  C   C596      1.0  0.79242  0.52419  0.13010  1.0000
  H   H712      1.0  0.55949  0.78586  0.31471  1.0000
  H   H713      1.0  0.52011  0.72719  0.14932  1.0000
  H   H714      1.0  0.58492  0.83870  0.29168  1.0000
  C   C597      1.0  0.74241  0.98354  0.24669  1.0000
  C   C598      1.0  0.81770  0.53441  0.14946  1.0000
  C   C599      1.0  0.56550  0.85811  0.32191  1.0000
  C   C600      1.0  0.51694  0.73392  0.08752  1.0000
  C   C601      1.0  0.82284  0.54883  0.31398  1.0000
  H   H715      1.0  0.83624  0.52871  0.14664  1.0000
  H   H716      1.0  0.82153  0.73038  0.32558  1.0000
  H   H717      1.0  0.78185  0.79304  0.29946  1.0000
  H   H718      1.0  0.50900  0.74216  0.10636  1.0000
  H   H719      1.0  0.80272  0.75717  0.30340  1.0000
  H   H720      1.0  0.72600  0.77489  0.31177  1.0000
  H   H721      1.0  0.83612  0.50978  0.10335  1.0000
  N   N38       1.0  0.77179  0.69481  0.32188  1.0000
  N   N39       1.0  0.78978  0.50531  0.10439  1.0000
  H   H722      1.0  0.87370  0.62706  0.32600  1.0000
  H   H723      1.0  0.72774  0.64991  0.32441  1.0000
  C   C602      1.0  0.71574  0.72836  0.32547  1.0000
  S   S164      1.0  0.65028  0.85291  0.32668  1.0000
  H   H724      1.0  0.86066  0.55547  0.43334  1.0000
  H   H725      1.0  0.79279  0.50396  0.38981  1.0000
  Fe  Fe82      1.0  0.77902  0.54922  0.46573  1.0000
  S   S165      1.0  0.79865  0.59318  0.43645  1.0000
  S   S166      1.0  0.75581  0.54492  0.50917  1.0000
  Fe  Fe83      1.0  0.53712  0.75855  0.46049  1.0000
  S   S167      1.0  0.55917  0.75091  0.41999  1.0000
  S   S168      1.0  0.54886  0.80616  0.47780  1.0000
  H   H726      1.0  0.85256  0.58356  0.41685  1.0000
  C   C603      1.0  0.61317  0.79134  0.34837  1.0000
  C   C604      1.0  0.59286  0.76930  0.36920  1.0000
  C   C605      1.0  0.58354  0.77947  0.39373  1.0000
  C   C606      1.0  0.59482  0.81200  0.39726  1.0000
  C   C607      1.0  0.61513  0.83402  0.37650  1.0000
  H   H727      1.0  0.54442  0.87193  0.35477  1.0000
  H   H728      1.0  0.58447  0.74421  0.36632  1.0000
  H   H729      1.0  0.58837  0.82027  0.41619  1.0000
  C   C608      1.0  0.80231  0.70936  0.33700  1.0000
  C   C609      1.0  0.62794  0.74850  0.61348  1.0000
  C   C610      1.0  0.77513  0.58310  0.35210  1.0000
  C   C611      1.0  0.77522  0.57653  0.38133  1.0000
  C   C612      1.0  0.79785  0.59956  0.39914  1.0000
  C   C613      1.0  0.82034  0.62915  0.38720  1.0000
  C   C614      1.0  0.82044  0.63561  0.35790  1.0000
  C   C615      1.0  0.53301  0.82277  0.36116  1.0000
  H   H730      1.0  0.75740  0.55386  0.39015  1.0000
  H   H731      1.0  0.83790  0.64722  0.40074  1.0000
  N   N40       1.0  0.70645  0.50915  0.59529  1.0000
  Fe  Fe84      1.0  0.79323  0.53617  0.52642  1.0000
  S   S169      1.0  0.81818  0.54343  0.48385  1.0000
  S   S170      1.0  0.81931  0.55484  0.56847  1.0000
  C   C616      1.0  0.82326  0.53636  0.34062  1.0000
  H   H732      1.0  0.55713  0.84355  0.41212  1.0000
  Fe  Fe85      1.0  0.55013  0.78615  0.52097  1.0000
  S   S171      1.0  0.54094  0.73931  0.50290  1.0000
  S   S172      1.0  0.59512  0.81247  0.54738  1.0000
  H   H733      1.0  0.88451  0.63280  0.55753  1.0000
  C   C617      1.0  0.57696  0.80491  0.63348  1.0000
  C   C618      1.0  0.57272  0.80252  0.60373  1.0000
  C   C619      1.0  0.59898  0.81490  0.58513  1.0000
  C   C620      1.0  0.62946  0.82979  0.59672  1.0000
  C   C621      1.0  0.63370  0.83217  0.62648  1.0000
  C   C622      1.0  0.93032  0.65880  0.61632  1.0000
  H   H734      1.0  0.54914  0.79109  0.59524  1.0000
  H   H735      1.0  0.64997  0.83973  0.58260  1.0000
  C   C623      1.0  0.60787  0.74342  0.59078  1.0000
  C   C624      1.0  0.81524  0.57890  0.59508  1.0000
  C   C625      1.0  0.83058  0.58335  0.62117  1.0000
  C   C626      1.0  0.82833  0.60249  0.64278  1.0000
  C   C627      1.0  0.81085  0.61768  0.63847  1.0000
  C   C628      1.0  0.79527  0.61297  0.61246  1.0000
  C   C629      1.0  0.79747  0.59378  0.59089  1.0000
  H   H736      1.0  0.84435  0.57191  0.62469  1.0000
  H   H737      1.0  0.75772  0.52584  0.63192  1.0000
  H   H738      1.0  0.78150  0.62441  0.60893  1.0000
  H   H739      1.0  0.78585  0.59095  0.57086  1.0000
  C   C630      1.0  0.86131  0.56666  0.41253  1.0000
  H   H740      1.0  0.53973  0.86692  0.40242  1.0000
  C   C631      1.0  0.89355  0.64459  0.57769  1.0000
  C   C632      1.0  0.75010  0.66394  0.33621  1.0000
  H   H741      1.0  0.79845  0.54043  0.40492  1.0000
  H   H742      1.0  0.56111  0.73176  0.57835  1.0000
  H   H743      1.0  0.87806  0.53216  0.37858  1.0000
  C   C633      1.0  0.86024  0.58950  0.35696  1.0000
  C   C634      1.0  0.60741  0.81960  0.64510  1.0000
  C   C635      1.0  0.53746  0.79856  0.34855  1.0000
  H   H744      1.0  0.83808  0.65837  0.34911  1.0000
  H   H745      1.0  0.67593  0.53760  0.62076  1.0000
  H   H746      1.0  0.85809  0.65802  0.58282  1.0000
  C   C636      1.0  0.58493  0.73702  0.64673  1.0000
  H   H747      1.0  0.75317  0.51869  0.58289  1.0000
  C   C637      1.0  0.88912  0.67262  0.61862  1.0000
  H   H748      1.0  0.68704  0.53505  0.57429  1.0000
  C   C638      1.0  0.53428  0.84274  0.40896  1.0000
  H   H749      1.0  0.76080  0.64836  0.33725  1.0000
  C   C639      1.0  0.57645  0.73494  0.59596  1.0000
  H   H750      1.0  0.62383  0.85915  0.37949  1.0000
  H   H751      1.0  0.73111  0.86837  0.39124  1.0000
  C   C640      1.0  0.84182  0.55633  0.36304  1.0000
  H   H752      1.0  0.52812  0.77524  0.35799  1.0000
  H   H753      1.0  0.90817  0.71990  0.65831  1.0000
  C   C641      1.0  0.69666  0.54141  0.63189  1.0000
  H   H754      1.0  0.81121  0.69237  0.33910  1.0000
  H   H755      1.0  0.93064  0.63330  0.57864  1.0000
  C   C642      1.0  0.79772  0.61260  0.34015  1.0000
  C   C643      1.0  0.91941  0.64473  0.58976  1.0000
  H   H756      1.0  0.52212  0.83831  0.43016  1.0000
  H   H757      1.0  0.67968  0.79013  0.64385  1.0000
  C   C644      1.0  0.61713  0.74554  0.64221  1.0000
  C   C645      1.0  0.54712  0.85255  0.34673  1.0000
  H   H758      1.0  0.65728  0.84400  0.63496  1.0000
  C   C646      1.0  0.87868  0.65882  0.59195  1.0000
  H   H759      1.0  0.54073  0.72585  0.62774  1.0000
  C   C647      1.0  0.62440  0.82388  0.35190  1.0000
  C   C648      1.0  0.91529  0.67305  0.63168  1.0000
  H   H760      1.0  0.74654  0.88175  0.44149  1.0000
  N   N41       1.0  0.64683  0.80165  0.47555  1.0000
  C   C649      1.0  0.62139  0.80960  0.47394  1.0000
  C   C650      1.0  0.63266  0.76677  0.47154  1.0000
  C   C651      1.0  0.65954  0.80925  0.50481  1.0000
  C   C652      1.0  0.67082  0.81940  0.45290  1.0000
  C   C653      1.0  0.66303  0.81240  0.42380  1.0000
  C   C654      1.0  0.70168  0.84500  0.45873  1.0000
  C   C655      1.0  0.68459  0.82987  0.40193  1.0000
  C   C656      1.0  0.72318  0.86221  0.43665  1.0000
  C   C657      1.0  0.71461  0.85472  0.40833  1.0000
  H   H761      1.0  0.60909  0.80244  0.45335  1.0000
  H   H762      1.0  0.60303  0.79711  0.49084  1.0000
  H   H763      1.0  0.63078  0.83559  0.47660  1.0000
  H   H764      1.0  0.61809  0.75804  0.45211  1.0000
  H   H765      1.0  0.61611  0.75297  0.48941  1.0000
  H   H766      1.0  0.65129  0.76004  0.46996  1.0000
  H   H767      1.0  0.66758  0.83444  0.51049  1.0000
  H   H768      1.0  0.64102  0.79482  0.52122  1.0000
  H   H769      1.0  0.67937  0.80451  0.50737  1.0000
  H   H770      1.0  0.63991  0.79372  0.41765  1.0000
  H   H771      1.0  0.70968  0.85243  0.48012  1.0000
  H   H772      1.0  0.67779  0.82442  0.37984  1.0000
  H   H773      1.0  0.55644  0.79517  0.64760  1.0000
  H   H774      1.0  0.70018  0.51515  0.55085  1.0000
  C   C658      1.0  0.85364  0.52002  0.38792  1.0000
  H   H775      1.0  0.72872  0.55080  0.56850  1.0000
  H   H776      1.0  0.80814  0.51513  0.42445  1.0000
  H   H777      1.0  0.74444  0.66753  0.35851  1.0000
  C   C659      1.0  0.85999  0.60162  0.33009  1.0000
  H   H778      1.0  0.87458  0.60677  0.37269  1.0000
  C   C660      1.0  0.71515  0.52820  0.62174  1.0000
  H   H779      1.0  0.61676  0.74661  0.56904  1.0000
  H   H780      1.0  0.66669  0.73401  0.64424  1.0000
  H   H781      1.0  0.80862  0.51095  0.34365  1.0000
  H   H782      1.0  0.65218  0.75535  0.60839  1.0000
  N   N42       1.0  0.84160  0.54248  0.39112  1.0000
  C   C661      1.0  0.80883  0.52476  0.40291  1.0000
  H   H783      1.0  0.79977  0.71701  0.35879  1.0000
  C   C662      1.0  0.74181  0.53429  0.63807  1.0000
  H   H784      1.0  0.75735  0.56516  0.33865  1.0000
  H   H785      1.0  0.88661  0.58033  0.40561  1.0000
  C   C663      1.0  0.70556  0.52841  0.57131  1.0000
  H   H786      1.0  0.87556  0.68172  0.62943  1.0000
  C   C664      1.0  0.56499  0.73160  0.62384  1.0000
  H   H787      1.0  0.94844  0.73470  0.64670  1.0000
  H   H788      1.0  0.85409  0.50942  0.40881  1.0000
  H   H789      1.0  0.52411  0.78330  0.40701  1.0000
  H   H790      1.0  0.95015  0.65764  0.62458  1.0000
  H   H791      1.0  0.97427  0.70189  0.65621  1.0000
  H   H792      1.0  0.62018  0.78318  0.32962  1.0000
  H   H793      1.0  0.71074  0.68385  0.33624  1.0000
  N   N43       1.0  0.51466  0.81792  0.38800  1.0000
  C   C665      1.0  0.70490  0.56031  0.65629  1.0000
  H   H794      1.0  0.69113  0.72048  0.33047  1.0000
  C   C666      1.0  0.50380  0.78645  0.40155  1.0000
  C   C667      1.0  0.72740  0.70748  0.32859  1.0000
  Fe  Fe86      1.0  0.88698  0.70181  0.74441  1.0000
  S   S173      1.0  0.84931  0.64935  0.74253  1.0000
  S   S174      1.0  0.93841  0.71237  0.74787  1.0000
  Fe  Fe87      1.0  0.83668  0.72261  0.74183  1.0000
  S   S175      1.0  0.79706  0.67223  0.73898  1.0000
  S   S176      1.0  0.83036  0.76620  0.74590  1.0000
  Fe  Fe88      1.0  0.82136  0.66140  0.77404  1.0000
  S   S177      1.0  0.78925  0.63633  0.81319  1.0000
  Fe  Fe89      1.0  0.82834  0.66457  0.70784  1.0000
  C   C668      1.0  0.73532  0.98119  0.82985  1.0000
  S   S178      1.0  0.86007  0.71249  0.77807  1.0000
  S   S179      1.0  0.86693  0.71621  0.70842  1.0000
  Fe  Fe90      1.0  0.65316  0.84076  0.71285  1.0000
  S   S180      1.0  0.70391  0.85533  0.70271  1.0000
  H   H795      1.0  0.70078  0.91086  0.79449  1.0000
  Fe  Fe91      1.0  0.66475  0.84894  0.77799  1.0000
  S   S181      1.0  0.71592  0.86272  0.77177  1.0000
  S   S182      1.0  0.64748  0.85582  0.82183  1.0000
  Fe  Fe92      1.0  0.71631  0.89369  0.73583  1.0000
  S   S183      1.0  0.75940  0.94410  0.73363  1.0000
  Fe  Fe93      1.0  0.69944  0.82339  0.73940  1.0000
  S   S184      1.0  0.70808  0.78129  0.73353  1.0000
  S   S185      1.0  0.66590  0.88146  0.74322  1.0000
  S   S186      1.0  0.64795  0.80737  0.74841  1.0000
  H   H796      1.0  0.72553  0.52947  0.91868  1.0000
  Fe  Fe94      1.0  0.50391  0.79360  0.98912  1.0000
  Fe  Fe95      1.0  0.77297  0.53772  0.96112  1.0000
  S   S187      1.0  0.79786  0.55667  0.91773  1.0000
  H   H797      1.0  0.66794  0.73346  0.68204  1.0000
  Fe  Fe96      1.0  0.54121  0.76541  0.96165  1.0000
  S   S188      1.0  0.56079  0.75732  0.91963  1.0000
  H   H798      1.0  0.82060  0.81931  0.75415  1.0000
  C   C669      1.0  0.62442  0.82793  0.84912  1.0000
  C   C670      1.0  0.61245  0.79519  0.84623  1.0000
  C   C671      1.0  0.59364  0.77405  0.86828  1.0000
  C   C672      1.0  0.58658  0.78530  0.89346  1.0000
  C   C673      1.0  0.59933  0.81813  0.89664  1.0000
  C   C674      1.0  0.61788  0.83923  0.87453  1.0000
  H   H799      1.0  0.61736  0.78610  0.82691  1.0000
  H   H800      1.0  0.58411  0.74873  0.86564  1.0000
  H   H801      1.0  0.59494  0.82727  0.91616  1.0000
  H   H802      1.0  0.62724  0.86451  0.87714  1.0000
  C   C675      1.0  0.76180  0.98188  0.73248  1.0000
  C   C676      1.0  0.70622  0.93535  0.79986  1.0000
  H   H803      1.0  0.60416  0.72251  0.69777  1.0000
  C   C677      1.0  0.97762  0.74511  0.74176  1.0000
  H   H804      1.0  0.89325  0.64026  0.68002  1.0000
  H   H805      1.0  0.71494  0.94934  0.77982  1.0000
  H   H806      1.0  0.71196  0.96395  0.72778  1.0000
  H   H807      1.0  0.96414  0.77696  0.72352  1.0000
  C   C678      1.0  0.79305  0.61536  0.84254  1.0000
  C   C679      1.0  0.81524  0.60523  0.84256  1.0000
  C   C680      1.0  0.81640  0.58754  0.86582  1.0000
  C   C681      1.0  0.79578  0.58009  0.88958  1.0000
  C   C682      1.0  0.77392  0.59071  0.88978  1.0000
  C   C683      1.0  0.77237  0.60790  0.86629  1.0000
  H   H808      1.0  0.83128  0.61067  0.82453  1.0000
  H   H809      1.0  0.83350  0.57961  0.86540  1.0000
  H   H810      1.0  0.75824  0.58575  0.90799  1.0000
  H   H811      1.0  0.75513  0.61563  0.86658  1.0000
  C   C684      1.0  0.79650  0.77030  0.74074  1.0000
  C   C685      1.0  0.76758  0.74504  0.73169  1.0000
  C   C686      1.0  0.74096  0.74897  0.72949  1.0000
  C   C687      1.0  0.74284  0.77821  0.73602  1.0000
  C   C688      1.0  0.77181  0.80355  0.74480  1.0000
  C   C689      1.0  0.79840  0.79957  0.74715  1.0000
  H   H812      1.0  0.76567  0.72242  0.72656  1.0000
  H   H813      1.0  0.71870  0.72915  0.72273  1.0000
  H   H814      1.0  0.77373  0.82618  0.74992  1.0000
  H   H815      1.0  0.90448  0.67343  0.70321  1.0000
  H   H816      1.0  0.54269  0.76171  0.82955  1.0000
  H   H817      1.0  0.55252  0.84028  0.90762  1.0000
  H   H818      1.0  0.63277  0.70465  0.66415  1.0000
  H   H819      1.0  0.68265  0.79049  0.68154  1.0000
  C   C690      1.0  0.52715  0.83168  0.84177  1.0000
  H   H820      1.0  0.72577  0.53035  0.86646  1.0000
  C   C691      1.0  0.98370  0.77378  0.72926  1.0000
  C   C692      1.0  0.51825  0.80852  0.86377  1.0000
  H   H821      1.0  0.52220  0.82272  0.93475  1.0000
  C   C693      1.0  0.89844  0.66531  0.68090  1.0000
  H   H822      1.0  0.71321  0.90237  0.84126  1.0000
  H   H823      1.0  0.73837  0.58159  0.68999  1.0000
  H   H824      1.0  0.68429  0.51759  0.86514  1.0000
  C   C694      1.0  0.74947  0.55277  0.66271  1.0000
  H   H825      1.0  0.83980  0.60516  0.66282  1.0000
  H   H826      1.0  0.51964  0.76553  0.87466  1.0000
  H   H827      1.0  0.71693  0.97195  0.87395  1.0000
  C   C695      1.0  0.53785  0.78098  0.83279  1.0000
  S   S189      1.0  0.61094  0.82102  0.68290  1.0000
  C   C696      1.0  0.54116  0.82941  0.81625  1.0000
  H   H828      1.0  0.77803  0.96182  0.82926  1.0000
  H   H829      1.0  0.69304  0.92168  0.85447  1.0000
  H   H830      1.0  0.73319  0.93470  0.86549  1.0000
  H   H831      1.0  0.54840  0.84760  0.79994  1.0000
  H   H832      1.0  0.52411  0.85210  0.84393  1.0000
  C   C697      1.0  0.65211  0.72997  0.66388  1.0000
  C   C698      1.0  0.62404  0.74728  0.69453  1.0000
  N   N44       1.0  0.77844  0.71811  0.82541  1.0000
  C   C699      1.0  0.78218  0.69952  0.84849  1.0000
  C   C700      1.0  0.77459  0.70065  0.79850  1.0000
  C   C701      1.0  0.80822  0.74932  0.82337  1.0000
  C   C702      1.0  0.75108  0.72300  0.82982  1.0000
  C   C703      1.0  0.72933  0.70956  0.85318  1.0000
  C   C704      1.0  0.74515  0.74120  0.80995  1.0000
  C   C705      1.0  0.70349  0.71441  0.85630  1.0000
  C   C706      1.0  0.71924  0.74579  0.81318  1.0000
  C   C707      1.0  0.69847  0.73247  0.83636  1.0000
  H   H833      1.0  0.78557  0.71138  0.86948  1.0000
  H   H834      1.0  0.76159  0.67483  0.84988  1.0000
  H   H835      1.0  0.80320  0.69664  0.84449  1.0000
  H   H836      1.0  0.75233  0.67714  0.79882  1.0000
  H   H837      1.0  0.79445  0.69606  0.79480  1.0000
  H   H838      1.0  0.77431  0.71411  0.77962  1.0000
  H   H839      1.0  0.81152  0.76382  0.84275  1.0000
  H   H840      1.0  0.82932  0.74640  0.82052  1.0000
  H   H841      1.0  0.80887  0.76362  0.80470  1.0000
  H   H842      1.0  0.73164  0.69511  0.86924  1.0000
  H   H843      1.0  0.76043  0.75189  0.79156  1.0000
  H   H844      1.0  0.68714  0.70398  0.87425  1.0000
  H   H845      1.0  0.71522  0.75965  0.79746  1.0000
  H   H846      1.0  0.67839  0.73609  0.83878  1.0000
  N   N45       1.0  0.72952  0.94894  0.82291  1.0000
  H   H847      1.0  0.76899  0.96465  0.79292  1.0000
  C   C708      1.0  0.71682  0.92621  0.84727  1.0000
  C   C709      1.0  0.52425  0.78322  0.85851  1.0000
  H   H848      1.0  0.55813  0.80290  0.79230  1.0000
  C   C710      1.0  0.73498  0.98499  0.73011  1.0000
  H   H849      1.0  0.68344  0.93391  0.80613  1.0000
  S   S190      1.0  0.55632  0.81266  0.98204  1.0000
  N   N46       1.0  0.50551  0.81132  0.89183  1.0000
  H   H850      1.0  0.75588  0.92669  0.80799  1.0000
  H   H851      1.0  0.87610  0.66511  0.67629  1.0000
  H   H852      1.0  0.77037  0.55788  0.67446  1.0000
  C   C711      1.0  0.75941  0.95071  0.81297  1.0000
  N   N47       1.0  0.63909  0.75171  0.66584  1.0000
  S   S191      1.0  0.80685  0.64205  0.66484  1.0000
  C   C712      1.0  0.70150  0.50901  0.86652  1.0000
  C   C713      1.0  0.54658  0.80418  0.81181  1.0000
  C   C714      1.0  0.70051  0.50976  0.91755  1.0000
  C   C715      1.0  0.72742  0.98908  0.85681  1.0000
  H   H853      1.0  0.95066  0.66283  0.67259  1.0000
  H   H854      1.0  0.69098  0.57090  0.66324  1.0000
  H   H855      1.0  0.68571  0.52119  0.91717  1.0000
  H   H856      1.0  0.61506  0.76409  0.69802  1.0000
  H   H857      1.0  0.53464  0.79875  0.91610  1.0000
  C   C716      1.0  0.92988  0.71876  0.66237  1.0000
  H   H858      1.0  0.64120  0.75204  0.71178  1.0000
  C   C717      1.0  0.52975  0.81858  0.91348  1.0000
  C   C718      1.0  0.73139  0.56615  0.67156  1.0000
  H   H859      1.0  0.96034  0.69775  0.69230  1.0000
  H   H860      1.0  0.93764  0.72917  0.68396  1.0000
  S   S192      1.0  0.73734  0.54731  0.98317  1.0000
  C   C719      1.0  0.95374  0.68705  0.67065  1.0000
  H   H861      1.0  0.51850  0.86089  0.89027  1.0000
  C   C720      1.0  0.66570  0.78497  0.66399  1.0000
  H   H862      1.0  0.65685  0.80203  0.66546  1.0000
  H   H863      1.0  0.57471  0.73520  0.66770  1.0000
  H   H864      1.0  0.75468  0.00140  0.78791  1.0000
  N   N48       1.0  0.92446  0.68586  0.66079  1.0000
