data_image0
_chemical_formula_structural       CSCFeCSCSFeS2CFeS2FeS2FeSFeCS2FeSCFeS2FeSFeS3HCH5C4HCH2CHSH2FeCNHC4H2C6H4C6H4CHC3HNH2SNHC5H2C2H7CHC2HC2HFeHCHC2H6CHC2FeC3H2NC8H14CH6CHCHSCHC2NHC2H5SHCHCHC2H2CH2CSCH2CH2C2S2CH2C2SH2CH3SCFeHSCSFeS2CFeS2FeS2FeSFeHS2FeSHFeS2FeSFeS3C3H6C2H4C4H3CH2C2H2C7H4C6H4CNHCH2CHCHNHCSC3HC3HCH2CHFeCSH5CHC2HCHC2HCH2C2H3CH2CHCH2C3H2C3HC4H5C2H3C2HCHCHCH2C2SC3HSH4C2H3CH6NCNCHCHNC2H4C3H2C2H3CHC2SCH4CHFeHNH2CHC2HCHSHFeHSHCFeSHCFeS2FeS2FeSFeHS2FeSHFeS2FeSFeS3C3H2C2H2C2H4CH3CH2CHC4H2C6H4C6H4C3HCHNCH2C3SCHSH2CNH2C2H2C2H3CHCHC2H3C2NC2HC2HCH2CH5C2H6CHC2H2CH2CH2CH4C3H3CH6CH2C2H2CH3C2H2C2H2SHCHNCSHCNC2HCH6FeCSHFeHSH2FeS2CFeS2FeS2FeSFeHS2FeSHFeS2FeSFeS3NC2H2C2H3CH4C2HCH2C2HC4H2C6H4C6H5FeH2CH2CHC2H6CH2CHCSH2SHNHSH2CH2CNCH2CHC3H3CH7CH2C3HC2HC2SCHCH3C2HNH2CNHCH2NCHCHCHC5FeHCHCHSCH2C2H2SC2HCH2NC5HC2H4CH2C2H3C2HNH2C3H2CHFeHSCHFeH3C2SFeS2FeS2FeSFeS3FeS2FeS2FeSFeS3C2H2C7H4CHC4SH3C3H3C3HC2H2C7H3C7H4NH3CH7C2H2CHCH2C2HNHC8H9CH2CHNC9H14NHCHSH2CH2C2H3C3HC3HNC2NC3HSH4CHC2HCH5C2H2CH3CHC2HC4HCHCHFeCH6SH3SH2CHCHCNHFeS2FeS2FeSFeS3FeS2FeS2FeSFeS3CH4C6H4C2HC3H4CHCH2CHSHC2H4C6H4C6H4NCHC3FeCHCHCH3CH2C2HCHCHNH5C2H2NH2CFeC2HC3H4CH2CH2C2H2C2HCNH3NHC2HCH2C4HFeHC5HNC3HCHCH3C3H5CH8CSH4CHCH3CH2C4HCHSCHCHC2H2FeCSHSH4SCHCH4SHCSC2H3CFeS2FeS2FeSFeS3FeS2FeS2FeSFeS3C3HC7H4C2HC2H5CFe2CH2SH3CH2CHC6H3C7H4NC9H16CNCH2CHFeCHCHCHCSH2CH2CHNH3C5H2CSC4HC2H2CSHCH2CNH2FeSNC2H7C3HC2H4SCH3C2HCH3SH2CH2FeHCHC2NHSH2CHFeHSC2H3CH2SFeS2FeS2FeSFeS3FeS2FeS2FeSFeS3C3HC7H4C6H2CHCHCH4CH2NCH3C6H4C6H4NC9H16CH4SHCNCH2CH4CHC2HCH6NCH5CHSCHCS2HCH4CH2CH2CH3NHCH2C9H2C2HCHC2H2C2HCHCFeC2H2SCHCFeS2FeC2HCHC2H2CH5
_chemical_formula_sum              "C720 S192 Fe96 H864 N48"
_cell_length_a       41.1096
_cell_length_b       47.7653
_cell_length_c       42.3856
_cell_angle_alpha    90.1095
_cell_angle_beta     89.8814
_cell_angle_gamma    89.8365

_space_group_name_H-M_alt    "P 1"
_space_group_IT_number       1

loop_
  _space_group_symop_operation_xyz
  'x, y, z'

loop_
  _atom_site_type_symbol
  _atom_site_label
  _atom_site_symmetry_multiplicity
  _atom_site_fract_x
  _atom_site_fract_y
  _atom_site_fract_z
  _atom_site_occupancy
  C   C1        1.0  0.31753  0.23742  0.47135  1.0000
  S   S1        1.0  0.09092  0.03429  0.24773  1.0000
  C   C2        1.0  0.17147  0.00103  0.08282  1.0000
  Fe  Fe1       1.0  0.13756  0.45214  0.24610  1.0000
  C   C3        1.0  0.14059  0.42000  0.37469  1.0000
  S   S2        1.0  0.17344  0.41786  0.26141  1.0000
  C   C4        1.0  0.26594  0.47530  0.00712  1.0000
  S   S3        1.0  0.06700  0.01594  0.33883  1.0000
  Fe  Fe2       1.0  0.14477  0.02529  0.24424  1.0000
  S   S4        1.0  0.18536  0.05775  0.23632  1.0000
  S   S5        1.0  0.08402  0.44272  0.24315  1.0000
  C   C5        1.0  0.02506  0.98967  0.14645  1.0000
  Fe  Fe3       1.0  0.31295  0.09466  0.08901  1.0000
  S   S6        1.0  0.31373  0.10994  0.03841  1.0000
  S   S7        1.0  0.26700  0.07314  0.10875  1.0000
  Fe  Fe4       1.0  0.38754  0.09971  0.09472  1.0000
  S   S8        1.0  0.39346  0.11413  0.04476  1.0000
  S   S9        1.0  0.42716  0.09116  0.13136  1.0000
  Fe  Fe5       1.0  0.35029  0.14238  0.05394  1.0000
  S   S10       1.0  0.35911  0.18824  0.03872  1.0000
  Fe  Fe6       1.0  0.35672  0.08108  0.03221  1.0000
  C   C6        1.0  0.34557  0.21517  0.01227  1.0000
  S   S11       1.0  0.34615  0.12951  0.10538  1.0000
  S   S12       1.0  0.35421  0.06431  0.08133  1.0000
  Fe  Fe7       1.0  0.35809  0.39441  0.45473  1.0000
  S   S13       1.0  0.36033  0.40985  0.40496  1.0000
  C   C7        1.0  0.48113  0.10830  0.09669  1.0000
  Fe  Fe8       1.0  0.33591  0.33555  0.43545  1.0000
  S   S14       1.0  0.33544  0.34767  0.38383  1.0000
  S   S15       1.0  0.31704  0.29155  0.44823  1.0000
  Fe  Fe9       1.0  0.38361  0.36839  0.39385  1.0000
  S   S16       1.0  0.42204  0.36466  0.35505  1.0000
  Fe  Fe10      1.0  0.31216  0.38836  0.39840  1.0000
  S   S17       1.0  0.27401  0.41767  0.37655  1.0000
  S   S18       1.0  0.38543  0.35412  0.44452  1.0000
  S   S19       1.0  0.30867  0.37498  0.44924  1.0000
  H   H1        1.0  0.32405  0.02321  0.21300  1.0000
  C   C8        1.0  0.46442  0.36774  0.36217  1.0000
  H   H2        1.0  0.33686  0.09635  0.18459  1.0000
  H   H3        1.0  0.29712  0.23425  0.45571  1.0000
  H   H4        1.0  0.45984  0.38360  0.40952  1.0000
  H   H5        1.0  0.38357  0.24355  0.02642  1.0000
  H   H6        1.0  0.31875  0.07799  0.15213  1.0000
  C   C9        1.0  0.32850  0.99906  0.11799  1.0000
  C   C10       1.0  0.01305  0.00581  0.12115  1.0000
  C   C11       1.0  0.38683  0.00184  0.12246  1.0000
  C   C12       1.0  0.36643  0.00337  0.01564  1.0000
  H   H7        1.0  0.33967  0.01205  0.44129  1.0000
  C   C13       1.0  0.14507  0.09274  0.14017  1.0000
  H   H8        1.0  0.34582  0.46343  0.03447  1.0000
  H   H9        1.0  0.37230  0.01461  0.03705  1.0000
  C   C14       1.0  0.02894  0.00940  0.35822  1.0000
  H   H10       1.0  0.02092  0.02725  0.11860  1.0000
  S   S20       1.0  0.05240  0.00560  0.17392  1.0000
  H   H11       1.0  0.14136  0.39233  0.31643  1.0000
  H   H12       1.0  0.24308  0.42688  0.22027  1.0000
  Fe  Fe11      1.0  0.08396  0.99543  0.21773  1.0000
  C   C15       1.0  0.25954  0.47941  0.44980  1.0000
  N   N1        1.0  0.11517  0.41790  0.35009  1.0000
  H   H13       1.0  0.24640  0.03967  0.28974  1.0000
  C   C16       1.0  0.36282  0.24064  0.01111  1.0000
  C   C17       1.0  0.49170  0.09047  0.14900  1.0000
  C   C18       1.0  0.46937  0.09712  0.12498  1.0000
  C   C19       1.0  0.35832  0.45769  0.98551  1.0000
  H   H14       1.0  0.46430  0.11356  0.07803  1.0000
  H   H15       1.0  0.20752  0.03176  0.07058  1.0000
  C   C20       1.0  0.24667  0.41697  0.34407  1.0000
  C   C21       1.0  0.22989  0.44172  0.33627  1.0000
  C   C22       1.0  0.20765  0.44243  0.31101  1.0000
  C   C23       1.0  0.20156  0.41822  0.29336  1.0000
  C   C24       1.0  0.21837  0.39344  0.30115  1.0000
  C   C25       1.0  0.24083  0.39278  0.32633  1.0000
  H   H16       1.0  0.23414  0.46053  0.34989  1.0000
  H   H17       1.0  0.19539  0.46178  0.30510  1.0000
  H   H18       1.0  0.21400  0.37462  0.28757  1.0000
  H   H19       1.0  0.25329  0.37353  0.33217  1.0000
  C   C26       1.0  0.21076  0.06061  0.20222  1.0000
  C   C27       1.0  0.22934  0.08502  0.19758  1.0000
  C   C28       1.0  0.24795  0.08883  0.16980  1.0000
  C   C29       1.0  0.24821  0.06818  0.14629  1.0000
  C   C30       1.0  0.23081  0.04332  0.15165  1.0000
  C   C31       1.0  0.21229  0.03950  0.17933  1.0000
  H   H20       1.0  0.22848  0.10151  0.21511  1.0000
  H   H21       1.0  0.26095  0.10821  0.16602  1.0000
  H   H22       1.0  0.23120  0.02697  0.13396  1.0000
  H   H23       1.0  0.19871  0.02035  0.18263  1.0000
  C   C32       1.0  0.32505  0.01915  0.14179  1.0000
  H   H24       1.0  0.14696  0.10233  0.11633  1.0000
  C   C33       1.0  0.27127  0.01014  0.34104  1.0000
  C   C34       1.0  0.27336  0.43533  0.26046  1.0000
  C   C35       1.0  0.14325  0.99565  0.09998  1.0000
  H   H25       1.0  0.16351  0.46287  0.43594  1.0000
  N   N2        1.0  0.23901  0.00822  0.32568  1.0000
  H   H26       1.0  0.18348  0.06883  0.10151  1.0000
  H   H27       1.0  0.00571  0.98878  0.31920  1.0000
  S   S21       1.0  0.14325  0.00041  0.28918  1.0000
  N   N3        1.0  0.12668  0.06600  0.13936  1.0000
  H   H28       1.0  0.30066  0.02618  0.14697  1.0000
  C   C36       1.0  0.09367  0.07192  0.12695  1.0000
  C   C37       1.0  0.12352  0.05616  0.17238  1.0000
  C   C38       1.0  0.14238  0.04406  0.11976  1.0000
  C   C39       1.0  0.17098  0.04895  0.10160  1.0000
  C   C40       1.0  0.12880  0.01679  0.11808  1.0000
  H   H29       1.0  0.10691  0.01152  0.13094  1.0000
  H   H30       1.0  0.20867  0.42850  0.43874  1.0000
  C   C41       1.0  0.02668  0.46415  0.12722  1.0000
  C   C42       1.0  0.01866  0.44973  0.09925  1.0000
  H   H31       1.0  0.30476  0.19283  0.99303  1.0000
  H   H32       1.0  0.11409  0.07274  0.18850  1.0000
  H   H33       1.0  0.07756  0.05324  0.12841  1.0000
  H   H34       1.0  0.09474  0.07843  0.10177  1.0000
  H   H35       1.0  0.08130  0.08878  0.14066  1.0000
  H   H36       1.0  0.13312  0.10857  0.15569  1.0000
  H   H37       1.0  0.30716  0.99087  0.10618  1.0000
  C   C43       1.0  0.35034  0.00223  0.46173  1.0000
  H   H38       1.0  0.27823  0.43811  0.44023  1.0000
  C   C44       1.0  0.02463  0.01842  0.38969  1.0000
  C   C45       1.0  0.14013  0.44254  0.39660  1.0000
  H   H39       1.0  0.01353  0.44935  0.36585  1.0000
  C   C46       1.0  0.33302  0.26373  0.47193  1.0000
  C   C47       1.0  0.33212  0.01290  0.37256  1.0000
  H   H40       1.0  0.40597  0.03098  0.15501  1.0000
  Fe  Fe12      1.0  0.08857  0.00533  0.28979  1.0000
  H   H41       1.0  0.25989  0.45403  0.26696  1.0000
  C   C48       1.0  0.18521  0.02765  0.08353  1.0000
  H   H42       1.0  0.34173  0.15236  0.98610  1.0000
  C   C49       1.0  0.11814  0.39245  0.33003  1.0000
  C   C50       1.0  0.19091  0.40380  0.40010  1.0000
  H   H43       1.0  0.17006  0.08952  0.14976  1.0000
  H   H44       1.0  0.12129  0.45837  0.39580  1.0000
  H   H45       1.0  0.09852  0.39143  0.31195  1.0000
  H   H46       1.0  0.09998  0.44095  0.30919  1.0000
  H   H47       1.0  0.39837  0.06571  0.18804  1.0000
  H   H48       1.0  0.21532  0.98326  0.28978  1.0000
  C   C51       1.0  0.38366  0.02196  0.14631  1.0000
  H   H49       1.0  0.11663  0.37300  0.34433  1.0000
  C   C52       1.0  0.34088  0.07933  0.16703  1.0000
  C   C53       1.0  0.48646  0.36048  0.33806  1.0000
  Fe  Fe13      1.0  0.08238  0.46682  0.19753  1.0000
  C   C54       1.0  0.18967  0.42609  0.42126  1.0000
  C   C55       1.0  0.00488  0.47072  0.36503  1.0000
  C   C56       1.0  0.35932  0.99022  0.10857  1.0000
  H   H50       1.0  0.08006  0.40022  0.38206  1.0000
  H   H51       1.0  0.37021  0.46042  0.44338  1.0000
  N   N4        1.0  0.34312  0.38993  0.29177  1.0000
  C   C57       1.0  0.34960  0.40723  0.32022  1.0000
  C   C58       1.0  0.33523  0.36126  0.30275  1.0000
  C   C59       1.0  0.37362  0.38872  0.27305  1.0000
  C   C60       1.0  0.31624  0.40089  0.27203  1.0000
  C   C61       1.0  0.29892  0.42591  0.27945  1.0000
  C   C62       1.0  0.30653  0.38629  0.24439  1.0000
  C   C63       1.0  0.26388  0.42007  0.23405  1.0000
  C   C64       1.0  0.28056  0.39569  0.22590  1.0000
  H   H52       1.0  0.37389  0.07070  0.22184  1.0000
  H   H53       1.0  0.32797  0.40819  0.33601  1.0000
  H   H54       1.0  0.36972  0.39838  0.33466  1.0000
  H   H55       1.0  0.35697  0.42890  0.31396  1.0000
  H   H56       1.0  0.31223  0.36120  0.31672  1.0000
  H   H57       1.0  0.35495  0.35256  0.31793  1.0000
  H   H58       1.0  0.33225  0.34615  0.28305  1.0000
  H   H59       1.0  0.39454  0.38142  0.28771  1.0000
  H   H60       1.0  0.37188  0.37393  0.25286  1.0000
  H   H61       1.0  0.37987  0.40971  0.26348  1.0000
  H   H62       1.0  0.30390  0.43819  0.30030  1.0000
  H   H63       1.0  0.31860  0.36721  0.23713  1.0000
  H   H64       1.0  0.48289  0.08183  0.17096  1.0000
  H   H65       1.0  0.10669  0.03826  0.17469  1.0000
  C   C65       1.0  0.16693  0.40073  0.37700  1.0000
  H   H66       1.0  0.21297  0.01939  0.36798  1.0000
  H   H67       1.0  0.40033  0.15905  0.99024  1.0000
  H   H68       1.0  0.22641  0.05226  0.32530  1.0000
  H   H69       1.0  0.17006  0.38342  0.36086  1.0000
  H   H70       1.0  0.26292  0.45417  0.01557  1.0000
  H   H71       1.0  0.04433  0.02916  0.40143  1.0000
  C   C66       1.0  0.47653  0.37797  0.39076  1.0000
  H   H72       1.0  0.38672  0.03576  0.21157  1.0000
  C   C67       1.0  0.16430  0.44542  0.41956  1.0000
  H   H73       1.0  0.14724  0.04907  0.18170  1.0000
  S   S22       1.0  0.35417  0.42069  0.98762  1.0000
  C   C68       1.0  0.27395  0.45404  0.45800  1.0000
  H   H74       1.0  0.47735  0.35229  0.31598  1.0000
  C   C69       1.0  0.22902  0.03417  0.30891  1.0000
  C   C70       1.0  0.36735  0.47274  0.46459  1.0000
  N   N5        1.0  0.34844  0.05227  0.18225  1.0000
  H   H75       1.0  0.14200  0.44437  0.31866  1.0000
  C   C71       1.0  0.32131  0.04497  0.20401  1.0000
  C   C72       1.0  0.37814  0.05607  0.20177  1.0000
  H   H76       1.0  0.29706  0.04677  0.19260  1.0000
  H   H77       1.0  0.27294  0.38381  0.20538  1.0000
  H   H78       1.0  0.31998  0.05940  0.22462  1.0000
  H   H79       1.0  0.11170  0.46252  0.34146  1.0000
  H   H80       1.0  0.21119  0.38921  0.40105  1.0000
  S   S23       1.0  0.05899  0.45121  0.15140  1.0000
  H   H81       1.0  0.36111  0.08592  0.15130  1.0000
  C   C73       1.0  0.35252  0.03068  0.15737  1.0000
  H   H82       1.0  0.20489  0.03176  0.29728  1.0000
  C   C74       1.0  0.31866  0.21197  0.99236  1.0000
  H   H83       1.0  0.18933  0.00027  0.33963  1.0000
  C   C75       1.0  0.08233  0.41759  0.36474  1.0000
  C   C76       1.0  0.28990  0.03520  0.34156  1.0000
  H   H84       1.0  0.44880  0.46403  0.47356  1.0000
  H   H85       1.0  0.18284  0.98450  0.06909  1.0000
  C   C77       1.0  0.11737  0.44253  0.32910  1.0000
  H   H86       1.0  0.07641  0.43752  0.37709  1.0000
  H   H87       1.0  0.33356  0.05578  0.35770  1.0000
  C   C78       1.0  0.31444  0.98809  0.37258  1.0000
  S   S24       1.0  0.04475  0.47538  0.31264  1.0000
  C   C79       1.0  0.00299  0.99586  0.34332  1.0000
  H   H88       1.0  0.06287  0.41514  0.34665  1.0000
  H   H89       1.0  0.28176  0.05425  0.33036  1.0000
  C   C80       1.0  0.31986  0.03641  0.35717  1.0000
  H   H90       1.0  0.35525  0.01398  0.38480  1.0000
  H   H91       1.0  0.03199  0.43094  0.09306  1.0000
  C   C81       1.0  0.35361  0.26246  0.99035  1.0000
  C   C82       1.0  0.23915  0.98515  0.30215  1.0000
  S   S25       1.0  0.36059  0.05542  0.98693  1.0000
  S   S26       1.0  0.13702  0.47164  0.19776  1.0000
  C   C83       1.0  0.28450  0.98663  0.35712  1.0000
  H   H92       1.0  0.36731  0.28175  0.98977  1.0000
  H   H93       1.0  0.25816  0.98847  0.28383  1.0000
  C   C84       1.0  0.21401  0.00235  0.35005  1.0000
  C   C85       1.0  0.35203  0.47379  0.01262  1.0000
  S   S27       1.0  0.13819  0.98811  0.21283  1.0000
  H   H94       1.0  0.49195  0.44084  0.28702  1.0000
  H   H95       1.0  0.41080  0.99575  0.11414  1.0000
  C   C86       1.0  0.35940  0.01824  0.98805  1.0000
  H   H96       1.0  0.40906  0.12385  0.97889  1.0000
  H   H97       1.0  0.35066  0.11614  0.97838  1.0000
  H   H98       1.0  0.43302  0.42769  0.81853  1.0000
  S   S28       1.0  0.09081  0.02844  0.72192  1.0000
  C   C87       1.0  0.48380  0.43926  0.81840  1.0000
  Fe  Fe14      1.0  0.13094  0.45920  0.74498  1.0000
  H   H99       1.0  0.25563  0.17400  0.54179  1.0000
  S   S29       1.0  0.15820  0.41886  0.75792  1.0000
  C   C88       1.0  0.27596  0.17522  0.55893  1.0000
  S   S30       1.0  0.05124  0.02238  0.80577  1.0000
  Fe  Fe15      1.0  0.14395  0.01710  0.72451  1.0000
  S   S31       1.0  0.19040  0.04357  0.71954  1.0000
  S   S32       1.0  0.07616  0.46427  0.74415  1.0000
  C   C89       1.0  0.45800  0.18395  0.57950  1.0000
  Fe  Fe16      1.0  0.31415  0.10072  0.58201  1.0000
  S   S33       1.0  0.31863  0.11573  0.53166  1.0000
  S   S34       1.0  0.26127  0.09040  0.59533  1.0000
  Fe  Fe17      1.0  0.38867  0.10132  0.58983  1.0000
  S   S35       1.0  0.39780  0.11516  0.54002  1.0000
  S   S36       1.0  0.42775  0.09508  0.62716  1.0000
  Fe  Fe18      1.0  0.35690  0.14599  0.54822  1.0000
  S   S37       1.0  0.36643  0.19291  0.53953  1.0000
  Fe  Fe19      1.0  0.35881  0.08384  0.52760  1.0000
  H   H100      1.0  0.27338  0.06314  0.53168  1.0000
  S   S38       1.0  0.34944  0.13346  0.59912  1.0000
  S   S39       1.0  0.35269  0.06757  0.57681  1.0000
  Fe  Fe20      1.0  0.34856  0.39102  0.94567  1.0000
  S   S40       1.0  0.34788  0.40549  0.89548  1.0000
  H   H101      1.0  0.23416  0.03807  0.56845  1.0000
  Fe  Fe21      1.0  0.33065  0.33009  0.92812  1.0000
  S   S41       1.0  0.32788  0.34133  0.87616  1.0000
  S   S42       1.0  0.31488  0.28530  0.94217  1.0000
  Fe  Fe22      1.0  0.37440  0.36518  0.88503  1.0000
  S   S43       1.0  0.41397  0.36478  0.84714  1.0000
  Fe  Fe23      1.0  0.30151  0.38079  0.89058  1.0000
  S   S44       1.0  0.25759  0.40650  0.87322  1.0000
  S   S45       1.0  0.37861  0.35206  0.93595  1.0000
  S   S46       1.0  0.30098  0.36812  0.94176  1.0000
  C   C90       1.0  0.00859  0.02811  0.85590  1.0000
  C   C91       1.0  0.45634  0.36340  0.85492  1.0000
  C   C92       1.0  0.46851  0.36254  0.88568  1.0000
  H   H102      1.0  0.46915  0.36468  0.80562  1.0000
  H   H103      1.0  0.45185  0.36218  0.90547  1.0000
  H   H104      1.0  0.15610  0.01408  0.91502  1.0000
  H   H105      1.0  0.29125  0.03446  0.57354  1.0000
  H   H106      1.0  0.22254  0.01083  0.48397  1.0000
  H   H107      1.0  0.29889  0.17660  0.54497  1.0000
  C   C93       1.0  0.47899  0.43646  0.88400  1.0000
  C   C94       1.0  0.37370  0.00603  0.51382  1.0000
  H   H108      1.0  0.34670  0.01448  0.93891  1.0000
  H   H109      1.0  0.37214  0.45928  0.93653  1.0000
  H   H110      1.0  0.35858  0.46562  0.54384  1.0000
  H   H111      1.0  0.38193  0.01867  0.53343  1.0000
  C   C95       1.0  0.35375  0.21920  0.51205  1.0000
  C   C96       1.0  0.36943  0.24541  0.51243  1.0000
  C   C97       1.0  0.38041  0.22318  0.92707  1.0000
  C   C98       1.0  0.31064  0.42912  0.80655  1.0000
  H   H112      1.0  0.32836  0.15883  0.90468  1.0000
  H   H113      1.0  0.08189  0.45778  0.81864  1.0000
  H   H114      1.0  0.38943  0.24881  0.52851  1.0000
  C   C99       1.0  0.24950  0.23148  0.53935  1.0000
  H   H115      1.0  0.08626  0.38653  0.89094  1.0000
  H   H116      1.0  0.21264  0.02490  0.53522  1.0000
  C   C100      1.0  0.48244  0.09828  0.58844  1.0000
  C   C101      1.0  0.47011  0.09444  0.61894  1.0000
  H   H117      1.0  0.29769  0.17733  0.61812  1.0000
  H   H118      1.0  0.46590  0.10132  0.56894  1.0000
  C   C102      1.0  0.10054  0.44266  0.82680  1.0000
  C   C103      1.0  0.23102  0.40918  0.84025  1.0000
  C   C104      1.0  0.21239  0.43375  0.83698  1.0000
  C   C105      1.0  0.19044  0.43705  0.81181  1.0000
  C   C106      1.0  0.18662  0.41576  0.78945  1.0000
  C   C107      1.0  0.20503  0.39104  0.79278  1.0000
  C   C108      1.0  0.22719  0.38775  0.81800  1.0000
  H   H119      1.0  0.21503  0.45046  0.85400  1.0000
  H   H120      1.0  0.17628  0.45602  0.80995  1.0000
  H   H121      1.0  0.20213  0.37430  0.77579  1.0000
  H   H122      1.0  0.24111  0.36861  0.82033  1.0000
  C   C109      1.0  0.21030  0.05503  0.68435  1.0000
  C   C110      1.0  0.19474  0.05514  0.65502  1.0000
  C   C111      1.0  0.21081  0.06585  0.62815  1.0000
  C   C112      1.0  0.24298  0.07587  0.62990  1.0000
  C   C113      1.0  0.25890  0.07498  0.65905  1.0000
  C   C114      1.0  0.24250  0.06498  0.68612  1.0000
  H   H123      1.0  0.16992  0.04782  0.65324  1.0000
  H   H124      1.0  0.19797  0.06675  0.60593  1.0000
  H   H125      1.0  0.28351  0.08277  0.66095  1.0000
  H   H126      1.0  0.25477  0.06525  0.70867  1.0000
  C   C115      1.0  0.02569  0.00904  0.83655  1.0000
  N   N6        1.0  0.08682  0.41440  0.83215  1.0000
  H   H127      1.0  0.26025  0.00893  0.70889  1.0000
  C   C116      1.0  0.36051  0.01893  0.48713  1.0000
  H   H128      1.0  0.11142  0.45141  0.84872  1.0000
  H   H129      1.0  0.47713  0.43451  0.90944  1.0000
  C   C117      1.0  0.49202  0.09060  0.64398  1.0000
  H   H130      1.0  0.29199  0.04338  0.50040  1.0000
  C   C118      1.0  0.26841  0.43902  0.76832  1.0000
  H   H131      1.0  0.48460  0.43914  0.79294  1.0000
  N   N7        1.0  0.37546  0.14535  0.94811  1.0000
  H   H132      1.0  0.33012  0.46456  0.83113  1.0000
  C   C119      1.0  0.01179  0.43524  0.87961  1.0000
  S   S47       1.0  0.05697  0.99479  0.64813  1.0000
  C   C120      1.0  0.36916  0.17299  0.93347  1.0000
  C   C121      1.0  0.32788  0.21527  0.49109  1.0000
  C   C122      1.0  0.34376  0.17621  0.91107  1.0000
  H   H133      1.0  0.31866  0.28551  0.55027  1.0000
  C   C123      1.0  0.33709  0.20213  0.89717  1.0000
  C   C124      1.0  0.35545  0.22554  0.90510  1.0000
  C   C125      1.0  0.23365  0.02064  0.55093  1.0000
  H   H134      1.0  0.22979  0.00184  0.75905  1.0000
  C   C126      1.0  0.26997  0.46819  0.77493  1.0000
  H   H135      1.0  0.31563  0.01606  0.54540  1.0000
  H   H136      1.0  0.22853  0.00095  0.56402  1.0000
  C   C127      1.0  0.15945  0.05473  0.81118  1.0000
  H   H137      1.0  0.43712  0.18402  0.56383  1.0000
  Fe  Fe24      1.0  0.08282  0.00298  0.76620  1.0000
  C   C128      1.0  0.23982  0.99394  0.48675  1.0000
  S   S48       1.0  0.13764  0.48151  0.69863  1.0000
  H   H138      1.0  0.23185  0.25958  0.50333  1.0000
  H   H139      1.0  0.24915  0.05028  0.50007  1.0000
  H   H140      1.0  0.01037  0.05030  0.85114  1.0000
  H   H141      1.0  0.34950  0.24587  0.89520  1.0000
  H   H142      1.0  0.48304  0.15263  0.64641  1.0000
  C   C129      1.0  0.38712  0.19744  0.94136  1.0000
  H   H143      1.0  0.40181  0.12999  0.90772  1.0000
  C   C130      1.0  0.29887  0.27068  0.54793  1.0000
  C   C131      1.0  0.35934  0.26745  0.49241  1.0000
  H   H144      1.0  0.42662  0.15183  0.95677  1.0000
  C   C132      1.0  0.29151  0.45891  0.92926  1.0000
  H   H145      1.0  0.22815  0.45257  0.91143  1.0000
  C   C133      1.0  0.19107  0.04453  0.80832  1.0000
  C   C134      1.0  0.17997  0.01034  0.84902  1.0000
  H   H146      1.0  0.28663  0.39771  0.77896  1.0000
  C   C135      1.0  0.26354  0.99459  0.51108  1.0000
  H   H147      1.0  0.03095  0.44617  0.83472  1.0000
  H   H148      1.0  0.35956  0.12030  0.90836  1.0000
  C   C136      1.0  0.29322  0.47690  0.79766  1.0000
  C   C137      1.0  0.35227  0.00321  0.96034  1.0000
  H   H149      1.0  0.23023  0.21673  0.53469  1.0000
  H   H150      1.0  0.31904  0.24329  0.58168  1.0000
  H   H151      1.0  0.48274  0.08747  0.66761  1.0000
  C   C138      1.0  0.04269  0.40244  0.91068  1.0000
  H   H152      1.0  0.22576  0.01410  0.82448  1.0000
  H   H153      1.0  0.24056  0.17809  0.61282  1.0000
  C   C139      1.0  0.29932  0.19715  0.60439  1.0000
  H   H154      1.0  0.22787  0.99220  0.68849  1.0000
  C   C140      1.0  0.36087  0.47580  0.52116  1.0000
  H   H155      1.0  0.39359  0.24181  0.93415  1.0000
  H   H156      1.0  0.42884  0.42564  0.87646  1.0000
  C   C141      1.0  0.07093  0.40487  0.80262  1.0000
  C   C142      1.0  0.45409  0.43284  0.83276  1.0000
  C   C143      1.0  0.11444  0.39507  0.83848  1.0000
  H   H157      1.0  0.11957  0.44242  0.80818  1.0000
  H   H158      1.0  0.23263  0.43172  0.97596  1.0000
  C   C144      1.0  0.31301  0.45756  0.81337  1.0000
  C   C145      1.0  0.29130  0.01629  0.55698  1.0000
  C   C146      1.0  0.40418  0.14516  0.96935  1.0000
  H   H159      1.0  0.29841  0.21468  0.62169  1.0000
  C   C147      1.0  0.01575  0.41992  0.90723  1.0000
  C   C148      1.0  0.06260  0.41574  0.85805  1.0000
  C   C149      1.0  0.14772  0.02060  0.85310  1.0000
  C   C150      1.0  0.27884  0.46998  0.51203  1.0000
  H   H160      1.0  0.02472  0.01935  0.59479  1.0000
  H   H161      1.0  0.40576  0.19755  0.95927  1.0000
  H   H162      1.0  0.04572  0.39065  0.93233  1.0000
  H   H163      1.0  0.10767  0.04593  0.89498  1.0000
  H   H164      1.0  0.28740  0.46491  0.53539  1.0000
  C   C151      1.0  0.38127  0.12385  0.92336  1.0000
  C   C152      1.0  0.25516  0.43221  0.96143  1.0000
  H   H165      1.0  0.31552  0.19534  0.49032  1.0000
  H   H166      1.0  0.23761  0.21575  0.61349  1.0000
  H   H167      1.0  0.20731  0.05342  0.79080  1.0000
  C   C153      1.0  0.32687  0.25918  0.97027  1.0000
  C   C154      1.0  0.29872  0.24616  0.56591  1.0000
  H   H168      1.0  0.32555  0.41407  0.81915  1.0000
  C   C155      1.0  0.24149  0.19726  0.59786  1.0000
  H   H169      1.0  0.38718  0.10304  0.93389  1.0000
  C   C156      1.0  0.01155  0.00046  0.60052  1.0000
  H   H170      1.0  0.25182  0.41688  0.94182  1.0000
  C   C157      1.0  0.47839  0.36396  0.82949  1.0000
  H   H171      1.0  0.05937  0.38403  0.80581  1.0000
  H   H172      1.0  0.11331  0.05090  0.83274  1.0000
  C   C158      1.0  0.49828  0.46967  0.48884  1.0000
  C   C159      1.0  0.45787  0.16717  0.60631  1.0000
  S   S49       1.0  0.36658  0.42255  0.49730  1.0000
  C   C160      1.0  0.36663  0.47140  0.95745  1.0000
  C   C161      1.0  0.23402  0.46911  0.92912  1.0000
  C   C162      1.0  0.46479  0.47378  0.49072  1.0000
  H   H173      1.0  0.21182  0.47284  0.94360  1.0000
  S   S50       1.0  0.35632  0.05576  0.48438  1.0000
  H   H174      1.0  0.15122  0.07127  0.79557  1.0000
  H   H175      1.0  0.28876  0.23090  0.95624  1.0000
  H   H176      1.0  0.05244  0.99214  0.49616  1.0000
  H   H177      1.0  0.05184  0.41969  0.79443  1.0000
  C   C163      1.0  0.36447  0.45942  0.49381  1.0000
  C   C164      1.0  0.27379  0.22580  0.56228  1.0000
  H   H178      1.0  0.31708  0.20434  0.88074  1.0000
  H   H179      1.0  0.37149  0.28749  0.49331  1.0000
  H   H180      1.0  0.08876  0.40311  0.78279  1.0000
  C   C165      1.0  0.03482  0.43332  0.85538  1.0000
  H   H181      1.0  0.12895  0.40200  0.85921  1.0000
  H   H182      1.0  0.43695  0.15404  0.61118  1.0000
  H   H183      1.0  0.32437  0.13508  0.95263  1.0000
  H   H184      1.0  0.28722  0.44673  0.90740  1.0000
  H   H185      1.0  0.22034  0.19586  0.58168  1.0000
  H   H186      1.0  0.32375  0.19692  0.59293  1.0000
  N   N8        1.0  0.12471  0.00690  0.87517  1.0000
  C   C166      1.0  0.28325  0.44925  0.48906  1.0000
  N   N9        1.0  0.27287  0.19944  0.58067  1.0000
  C   C167      1.0  0.13790  0.04288  0.83296  1.0000
  H   H187      1.0  0.27627  0.15495  0.57194  1.0000
  C   C168      1.0  0.06588  0.40027  0.88655  1.0000
  H   H188      1.0  0.12365  0.98978  0.92250  1.0000
  N   N10       1.0  0.26480  0.01854  0.53333  1.0000
  C   C169      1.0  0.25008  0.25597  0.52133  1.0000
  C   C170      1.0  0.45166  0.43157  0.86548  1.0000
  H   H189      1.0  0.25128  0.43023  0.75176  1.0000
  H   H190      1.0  0.13169  0.39417  0.81820  1.0000
  H   H191      1.0  0.31133  0.44791  0.94185  1.0000
  H   H192      1.0  0.27579  0.29404  0.51084  1.0000
  C   C171      1.0  0.09795  0.02595  0.88536  1.0000
  C   C172      1.0  0.26994  0.04491  0.51558  1.0000
  C   C173      1.0  0.27470  0.27554  0.52564  1.0000
  H   H193      1.0  0.10598  0.37323  0.84221  1.0000
  H   H194      1.0  0.08097  0.03095  0.86583  1.0000
  C   C174      1.0  0.28867  0.41993  0.78385  1.0000
  C   C175      1.0  0.20131  0.02235  0.82716  1.0000
  H   H195      1.0  0.19864  0.98596  0.73560  1.0000
  H   H196      1.0  0.08212  0.01630  0.90371  1.0000
  H   H197      1.0  0.08777  0.99402  0.54240  1.0000
  C   C176      1.0  0.48510  0.20031  0.57270  1.0000
  H   H198      1.0  0.18899  0.99264  0.86213  1.0000
  C   C177      1.0  0.48473  0.16667  0.62654  1.0000
  C   C178      1.0  0.34680  0.13689  0.96703  1.0000
  S   S51       1.0  0.13675  0.99570  0.77149  1.0000
  C   C179      1.0  0.14130  0.99704  0.90431  1.0000
  H   H199      1.0  0.29485  0.42956  0.49521  1.0000
  H   H200      1.0  0.48515  0.21311  0.55160  1.0000
  H   H201      1.0  0.45682  0.99095  0.93615  1.0000
  H   H202      1.0  0.20779  0.46206  0.75031  1.0000
  C   C180      1.0  0.30946  0.23378  0.97159  1.0000
  H   H203      1.0  0.09797  0.98875  0.83676  1.0000
  Fe  Fe25      1.0  0.08393  0.98777  0.69541  1.0000
  H   H204      1.0  0.27589  0.42405  0.97573  1.0000
  N   N11       1.0  0.26192  0.46078  0.94924  1.0000
  H   H205      1.0  0.23625  0.46488  0.71783  1.0000
  H   H206      1.0  0.28877  0.99722  0.57178  1.0000
  C   C181      1.0  0.25123  0.98809  0.70105  1.0000
  H   H207      1.0  0.30101  0.47962  0.92190  1.0000
  C   C182      1.0  0.02180  0.98413  0.62639  1.0000
  C   C183      1.0  0.22446  0.47645  0.73759  1.0000
  H   H208      1.0  0.31098  0.98705  0.71670  1.0000
  C   C184      1.0  0.26672  0.48195  0.97440  1.0000
  H   H209      1.0  0.22375  0.76347  0.40203  1.0000
  S   S52       1.0  0.07177  0.50768  0.22199  1.0000
  H   H210      1.0  0.04834  0.52953  0.10627  1.0000
  Fe  Fe26      1.0  0.13477  0.96341  0.25818  1.0000
  H   H211      1.0  0.22357  0.83579  0.43726  1.0000
  S   S53       1.0  0.16947  0.92638  0.26504  1.0000
  H   H212      1.0  0.01484  0.49973  0.15621  1.0000
  C   C185      1.0  0.23810  0.97159  0.46541  1.0000
  Fe  Fe27      1.0  0.12683  0.51186  0.22310  1.0000
  S   S54       1.0  0.15323  0.55153  0.20661  1.0000
  H   H213      1.0  0.25315  0.77606  0.42945  1.0000
  C   C186      1.0  0.27847  0.53494  0.25209  1.0000
  Fe  Fe28      1.0  0.30195  0.58941  0.07838  1.0000
  S   S55       1.0  0.29956  0.60389  0.02767  1.0000
  S   S56       1.0  0.26443  0.55965  0.10062  1.0000
  Fe  Fe29      1.0  0.37450  0.60645  0.08378  1.0000
  S   S57       1.0  0.37728  0.62116  0.03354  1.0000
  S   S58       1.0  0.41304  0.60989  0.12225  1.0000
  Fe  Fe30      1.0  0.32881  0.64192  0.04254  1.0000
  S   S59       1.0  0.31989  0.68935  0.03522  1.0000
  Fe  Fe31      1.0  0.34814  0.58226  0.02236  1.0000
  H   H214      1.0  0.30737  0.57935  0.15051  1.0000
  S   S60       1.0  0.32733  0.62881  0.09395  1.0000
  S   S61       1.0  0.34932  0.56627  0.07185  1.0000
  Fe  Fe32      1.0  0.35734  0.89502  0.45065  1.0000
  S   S62       1.0  0.35349  0.91116  0.40114  1.0000
  H   H215      1.0  0.49078  0.75978  0.33291  1.0000
  Fe  Fe33      1.0  0.33721  0.83482  0.43276  1.0000
  S   S63       1.0  0.33122  0.84751  0.38178  1.0000
  S   S64       1.0  0.32252  0.78900  0.44195  1.0000
  Fe  Fe34      1.0  0.37850  0.87069  0.38825  1.0000
  S   S65       1.0  0.41721  0.86566  0.35031  1.0000
  Fe  Fe35      1.0  0.30667  0.88684  0.39898  1.0000
  S   S66       1.0  0.25769  0.90754  0.38736  1.0000
  S   S67       1.0  0.38584  0.85591  0.43799  1.0000
  S   S68       1.0  0.30931  0.87274  0.44967  1.0000
  C   C187      1.0  0.48220  0.86237  0.33586  1.0000
  C   C188      1.0  0.45901  0.87073  0.35839  1.0000
  C   C189      1.0  0.46958  0.88230  0.38690  1.0000
  H   H216      1.0  0.47425  0.85321  0.31382  1.0000
  H   H217      1.0  0.45196  0.88882  0.40448  1.0000
  C   C190      1.0  0.25976  0.80307  0.37510  1.0000
  C   C191      1.0  0.36742  0.50216  0.46284  1.0000
  H   H218      1.0  0.46648  0.67159  0.04379  1.0000
  H   H219      1.0  0.39344  0.75154  0.99619  1.0000
  C   C192      1.0  0.10329  0.51320  0.13770  1.0000
  C   C193      1.0  0.35294  0.50326  0.01153  1.0000
  H   H220      1.0  0.37022  0.51226  0.44018  1.0000
  H   H221      1.0  0.34542  0.96032  0.44317  1.0000
  H   H222      1.0  0.37263  0.96251  0.03661  1.0000
  H   H223      1.0  0.34754  0.51529  0.03248  1.0000
  C   C194      1.0  0.20330  0.81631  0.38191  1.0000
  H   H224      1.0  0.03817  0.93802  0.45195  1.0000
  H   H225      1.0  0.32029  0.53908  0.28198  1.0000
  H   H226      1.0  0.26191  0.53069  0.27144  1.0000
  C   C195      1.0  0.27651  0.53090  0.98955  1.0000
  H   H227      1.0  0.17536  0.86843  0.33299  1.0000
  H   H228      1.0  0.31372  0.74940  0.03743  1.0000
  C   C196      1.0  0.22998  0.78168  0.41725  1.0000
  H   H229      1.0  0.44009  0.64702  0.06309  1.0000
  C   C197      1.0  0.25975  0.94922  0.46778  1.0000
  C   C198      1.0  0.46861  0.59848  0.08691  1.0000
  C   C199      1.0  0.45559  0.60599  0.11624  1.0000
  C   C200      1.0  0.00913  0.48838  0.13483  1.0000
  H   H230      1.0  0.45257  0.59423  0.06728  1.0000
  H   H231      1.0  0.22001  0.97156  0.44684  1.0000
  C   C201      1.0  0.23406  0.91242  0.35269  1.0000
  C   C202      1.0  0.20446  0.92709  0.35523  1.0000
  C   C203      1.0  0.18490  0.93210  0.32853  1.0000
  C   C204      1.0  0.19423  0.92171  0.29898  1.0000
  C   C205      1.0  0.22352  0.90647  0.29653  1.0000
  C   C206      1.0  0.24357  0.90214  0.32313  1.0000
  H   H232      1.0  0.19653  0.93468  0.37807  1.0000
  H   H233      1.0  0.16217  0.94341  0.33093  1.0000
  H   H234      1.0  0.23083  0.89813  0.27383  1.0000
  H   H235      1.0  0.26618  0.89066  0.32077  1.0000
  C   C207      1.0  0.18429  0.55349  0.17717  1.0000
  C   C208      1.0  0.19454  0.52996  0.16008  1.0000
  C   C209      1.0  0.21883  0.53244  0.13671  1.0000
  C   C210      1.0  0.23352  0.55838  0.13016  1.0000
  C   C211      1.0  0.22358  0.58192  0.14743  1.0000
  C   C212      1.0  0.19901  0.57946  0.17066  1.0000
  H   H236      1.0  0.18377  0.50979  0.16477  1.0000
  H   H237      1.0  0.22626  0.51407  0.12356  1.0000
  H   H238      1.0  0.23462  0.60203  0.14278  1.0000
  H   H239      1.0  0.19139  0.59782  0.18375  1.0000
  C   C213      1.0  0.33513  0.76260  0.46930  1.0000
  C   C214      1.0  0.27005  0.49607  0.03012  1.0000
  C   C215      1.0  0.43085  0.76953  0.02511  1.0000
  H   H240      1.0  0.31650  0.53069  0.13809  1.0000
  C   C216      1.0  0.36004  0.51701  0.98324  1.0000
  H   H241      1.0  0.34868  0.58662  0.14043  1.0000
  N   N12       1.0  0.09968  0.53600  0.11433  1.0000
  C   C217      1.0  0.17395  0.80063  0.38332  1.0000
  H   H242      1.0  0.43885  0.77484  0.33656  1.0000
  H   H243      1.0  0.12772  0.49585  0.07659  1.0000
  C   C218      1.0  0.27544  0.52375  0.02132  1.0000
  C   C219      1.0  0.32021  0.74401  0.01342  1.0000
  C   C220      1.0  0.20288  0.84101  0.36334  1.0000
  S   S69       1.0  0.36015  0.92166  0.98887  1.0000
  C   C221      1.0  0.14666  0.83367  0.34893  1.0000
  H   H244      1.0  0.39333  0.56082  0.16184  1.0000
  S   S70       1.0  0.35936  0.55412  0.98032  1.0000
  H   H245      1.0  0.00419  0.95479  0.43288  1.0000
  H   H246      1.0  0.12393  0.51750  0.15390  1.0000
  C   C222      1.0  0.24350  0.83032  0.42053  1.0000
  N   N13       1.0  0.23341  0.80779  0.39851  1.0000
  H   H247      1.0  0.46934  0.73783  0.08563  1.0000
  H   H248      1.0  0.41136  0.79284  0.36211  1.0000
  C   C223      1.0  0.00466  0.51625  0.34047  1.0000
  C   C224      1.0  0.32151  0.54666  0.20128  1.0000
  H   H249      1.0  0.37987  0.68026  0.06504  1.0000
  H   H250      1.0  0.42548  0.66704  0.03053  1.0000
  C   C225      1.0  0.32495  0.71561  0.00537  1.0000
  C   C226      1.0  0.14100  0.51536  0.07703  1.0000
  H   H251      1.0  0.25861  0.93199  0.45111  1.0000
  H   H252      1.0  0.28263  0.79581  0.38659  1.0000
  H   H253      1.0  0.43063  0.78936  0.01269  1.0000
  C   C227      1.0  0.16962  0.51692  0.05921  1.0000
  H   H254      1.0  0.38751  0.53659  0.19349  1.0000
  C   C228      1.0  0.09132  0.56189  0.13214  1.0000
  H   H255      1.0  0.38187  0.57402  0.19939  1.0000
  C   C229      1.0  0.07191  0.52933  0.09329  1.0000
  C   C230      1.0  0.14612  0.80932  0.36700  1.0000
  H   H256      1.0  0.35871  0.53416  0.13052  1.0000
  H   H257      1.0  0.24104  0.53264  0.21680  1.0000
  H   H258      1.0  0.44505  0.70498  0.12008  1.0000
  C   C231      1.0  0.35361  0.97290  0.46275  1.0000
  C   C232      1.0  0.33272  0.54555  0.23300  1.0000
  N   N14       1.0  0.43036  0.69027  0.07412  1.0000
  C   C233      1.0  0.39678  0.68402  0.08495  1.0000
  C   C234      1.0  0.44105  0.66806  0.05191  1.0000
  H   H259      1.0  0.39308  0.70683  0.02363  1.0000
  C   C235      1.0  0.43090  0.71764  0.05775  1.0000
  C   C236      1.0  0.40987  0.72266  0.03180  1.0000
  H   H260      1.0  0.48920  0.93722  0.27450  1.0000
  C   C237      1.0  0.18782  0.54146  0.05897  1.0000
  H   H261      1.0  0.19226  0.58331  0.07681  1.0000
  H   H262      1.0  0.28195  0.55230  0.98281  1.0000
  C   C238      1.0  0.45204  0.76527  0.05029  1.0000
  H   H263      1.0  0.39575  0.66475  0.09963  1.0000
  H   H264      1.0  0.46707  0.61689  0.16434  1.0000
  H   H265      1.0  0.34511  0.51006  0.16021  1.0000
  H   H266      1.0  0.45848  0.74085  0.37431  1.0000
  H   H267      1.0  0.38653  0.70159  0.09915  1.0000
  C   C239      1.0  0.01642  0.48873  0.34118  1.0000
  C   C240      1.0  0.14916  0.56308  0.09475  1.0000
  H   H268      1.0  0.13253  0.97492  0.09949  1.0000
  H   H269      1.0  0.42286  0.80218  0.41457  1.0000
  H   H270      1.0  0.26506  0.82403  0.43476  1.0000
  H   H271      1.0  0.46293  0.80058  0.43039  1.0000
  H   H272      1.0  0.27768  0.54247  0.17294  1.0000
  H   H273      1.0  0.03484  0.97556  0.45019  1.0000
  C   C241      1.0  0.26676  0.53597  0.22133  1.0000
  H   H274      1.0  0.10764  0.49242  0.12661  1.0000
  C   C242      1.0  0.17498  0.84948  0.34712  1.0000
  C   C243      1.0  0.49356  0.78878  0.37275  1.0000
  H   H275      1.0  0.24377  0.96441  0.31298  1.0000
  H   H276      1.0  0.36185  0.97488  0.08988  1.0000
  C   C244      1.0  0.45226  0.73972  0.06644  1.0000
  H   H277      1.0  0.14330  0.58145  0.10852  1.0000
  H   H278      1.0  0.21127  0.78403  0.43610  1.0000
  C   C245      1.0  0.40990  0.74822  0.01583  1.0000
  H   H279      1.0  0.45028  0.66814  0.11416  1.0000
  H   H280      1.0  0.47797  0.69148  0.09570  1.0000
  C   C246      1.0  0.47687  0.61106  0.14155  1.0000
  H   H281      1.0  0.06864  0.55929  0.14626  1.0000
  H   H282      1.0  0.17790  0.49895  0.04574  1.0000
  H   H283      1.0  0.12510  0.84034  0.33624  1.0000
  H   H284      1.0  0.08728  0.57993  0.11604  1.0000
  C   C247      1.0  0.12992  0.53836  0.09547  1.0000
  C   C248      1.0  0.43743  0.79130  0.35503  1.0000
  C   C249      1.0  0.31137  0.53968  0.25792  1.0000
  H   H285      1.0  0.07001  0.54470  0.07367  1.0000
  H   H286      1.0  0.30290  0.73164  0.44957  1.0000
  H   H287      1.0  0.35777  0.54933  0.23921  1.0000
  C   C250      1.0  0.36657  0.97385  0.01539  1.0000
  H   H288      1.0  0.24382  0.51969  0.46506  1.0000
  H   H289      1.0  0.33287  0.59754  0.17797  1.0000
  H   H290      1.0  0.21034  0.54256  0.04568  1.0000
  H   H291      1.0  0.17183  0.78157  0.39681  1.0000
  H   H292      1.0  0.25264  0.78697  0.35742  1.0000
  H   H293      1.0  0.46840  0.78191  0.05733  1.0000
  C   C251      1.0  0.45352  0.75648  0.39319  1.0000
  H   H294      1.0  0.11074  0.56736  0.14946  1.0000
  H   H295      1.0  0.26610  0.82244  0.36199  1.0000
  C   C252      1.0  0.01443  0.96199  0.14940  1.0000
  C   C253      1.0  0.17749  0.56451  0.07649  1.0000
  H   H296      1.0  0.22424  0.85400  0.36120  1.0000
  H   H297      1.0  0.07393  0.50804  0.08275  1.0000
  C   C254      1.0  0.45190  0.68889  0.10222  1.0000
  H   H298      1.0  0.12397  0.79709  0.36830  1.0000
  H   H299      1.0  0.08097  0.51076  0.15232  1.0000
  H   H300      1.0  0.25050  0.84984  0.40805  1.0000
  C   C255      1.0  0.32097  0.73579  0.46746  1.0000
  C   C256      1.0  0.33247  0.58034  0.16022  1.0000
  H   H301      1.0  0.32384  0.96989  0.38491  1.0000
  H   H302      1.0  0.44388  0.81150  0.34364  1.0000
  C   C257      1.0  0.35907  0.95883  0.98785  1.0000
  C   C258      1.0  0.44906  0.80466  0.40836  1.0000
  H   H303      1.0  0.27973  0.53958  0.03912  1.0000
  H   H304      1.0  0.49758  0.96153  0.32802  1.0000
  S   S71       1.0  0.13053  0.49273  0.27187  1.0000
  H   H305      1.0  0.31986  0.78720  0.99754  1.0000
  C   C259      1.0  0.32370  0.76559  0.99078  1.0000
  H   H306      1.0  0.42786  0.75331  0.40099  1.0000
  N   N15       1.0  0.45906  0.78557  0.38233  1.0000
  C   C260      1.0  0.37787  0.55621  0.18289  1.0000
  S   S72       1.0  0.07962  0.96667  0.26031  1.0000
  H   H307      1.0  0.45229  0.82697  0.40162  1.0000
  C   C261      1.0  0.34068  0.53111  0.14986  1.0000
  N   N16       1.0  0.34299  0.55340  0.17425  1.0000
  C   C262      1.0  0.25483  0.50027  0.47261  1.0000
  C   C263      1.0  0.28791  0.54167  0.19631  1.0000
  H   H308      1.0  0.27165  0.96690  0.35823  1.0000
  C   C264      1.0  0.02087  0.95593  0.45360  1.0000
  H   H309      1.0  0.46963  0.75130  0.41346  1.0000
  H   H310      1.0  0.02331  0.94924  0.16863  1.0000
  H   H311      1.0  0.01318  0.53044  0.32243  1.0000
  H   H312      1.0  0.21887  0.98253  0.36281  1.0000
  H   H313      1.0  0.25249  0.48296  0.42548  1.0000
  H   H314      1.0  0.26999  0.49063  0.05495  1.0000
  Fe  Fe36      1.0  0.07644  0.48398  0.26834  1.0000
  C   C265      1.0  0.48637  0.59162  0.64650  1.0000
  S   S73       1.0  0.08995  0.53125  0.72803  1.0000
  H   H315      1.0  0.33711  0.68753  0.96739  1.0000
  Fe  Fe37      1.0  0.12886  0.95683  0.74332  1.0000
  H   H316      1.0  0.21126  0.94490  0.70208  1.0000
  S   S74       1.0  0.15930  0.91805  0.75610  1.0000
  H   H317      1.0  0.38521  0.75014  0.53190  1.0000
  H   H318      1.0  0.43790  0.72567  0.61916  1.0000
  Fe  Fe38      1.0  0.14346  0.52057  0.72726  1.0000
  S   S75       1.0  0.18781  0.54915  0.72114  1.0000
  S   S76       1.0  0.07393  0.96263  0.73984  1.0000
  C   C266      1.0  0.04317  0.93724  0.56254  1.0000
  Fe  Fe39      1.0  0.30972  0.60053  0.58056  1.0000
  S   S77       1.0  0.31659  0.61564  0.53031  1.0000
  S   S78       1.0  0.25816  0.58573  0.59270  1.0000
  Fe  Fe40      1.0  0.38336  0.60204  0.59266  1.0000
  S   S79       1.0  0.39495  0.61624  0.54367  1.0000
  S   S80       1.0  0.42204  0.59286  0.62946  1.0000
  Fe  Fe41      1.0  0.35305  0.64653  0.54952  1.0000
  S   S81       1.0  0.36519  0.69295  0.53991  1.0000
  Fe  Fe42      1.0  0.35772  0.58444  0.52879  1.0000
  H   H319      1.0  0.40824  0.92544  0.94197  1.0000
  S   S82       1.0  0.34324  0.63366  0.60014  1.0000
  S   S83       1.0  0.34917  0.56796  0.57740  1.0000
  Fe  Fe43      1.0  0.35040  0.89391  0.94621  1.0000
  S   S84       1.0  0.34870  0.91148  0.89740  1.0000
  H   H320      1.0  0.21452  0.53374  0.50939  1.0000
  Fe  Fe44      1.0  0.33913  0.83322  0.92356  1.0000
  S   S85       1.0  0.33647  0.84770  0.87261  1.0000
  S   S86       1.0  0.33510  0.78515  0.92920  1.0000
  Fe  Fe45      1.0  0.37989  0.87445  0.88436  1.0000
  S   S87       1.0  0.42167  0.88160  0.84994  1.0000
  Fe  Fe46      1.0  0.30537  0.88349  0.88996  1.0000
  S   S88       1.0  0.25843  0.90442  0.87190  1.0000
  S   S89       1.0  0.38446  0.85828  0.93379  1.0000
  S   S90       1.0  0.30534  0.86766  0.94023  1.0000
  N   N17       1.0  0.00265  0.95541  0.48392  1.0000
  C   C267      1.0  0.46345  0.87607  0.85857  1.0000
  C   C268      1.0  0.02257  0.93579  0.53637  1.0000
  H   H321      1.0  0.47914  0.88940  0.81242  1.0000
  H   H322      1.0  0.45612  0.86093  0.90587  1.0000
  C   C269      1.0  0.44649  0.97080  0.94464  1.0000
  C   C270      1.0  0.48589  0.95049  0.87316  1.0000
  H   H323      1.0  0.26763  0.55324  0.49470  1.0000
  H   H324      1.0  0.47628  0.72941  0.85926  1.0000
  H   H325      1.0  0.36958  0.78793  0.49455  1.0000
  C   C271      1.0  0.36046  0.50524  0.51935  1.0000
  H   H326      1.0  0.37306  0.51132  0.93438  1.0000
  H   H327      1.0  0.34539  0.96243  0.93906  1.0000
  H   H328      1.0  0.42906  0.55801  0.56901  1.0000
  H   H329      1.0  0.35803  0.51756  0.54057  1.0000
  C   C272      1.0  0.35304  0.71916  0.51212  1.0000
  C   C273      1.0  0.44041  0.54475  0.55031  1.0000
  H   H330      1.0  0.44854  0.91467  0.95112  1.0000
  C   C274      1.0  0.28311  0.94909  0.49148  1.0000
  H   H331      1.0  0.46864  0.81772  0.84330  1.0000
  H   H332      1.0  0.46418  0.65633  0.56066  1.0000
  C   C275      1.0  0.48688  0.88187  0.83528  1.0000
  C   C276      1.0  0.48033  0.52945  0.58781  1.0000
  H   H333      1.0  0.12892  0.96657  0.85255  1.0000
  C   C277      1.0  0.48748  0.74900  0.85233  1.0000
  C   C278      1.0  0.47596  0.60306  0.59193  1.0000
  C   C279      1.0  0.46417  0.59648  0.62197  1.0000
  C   C280      1.0  0.15584  0.79291  0.85570  1.0000
  H   H334      1.0  0.45919  0.60647  0.57277  1.0000
  H   H335      1.0  0.47748  0.58636  0.66979  1.0000
  C   C281      1.0  0.23151  0.90750  0.83911  1.0000
  C   C282      1.0  0.20864  0.92950  0.83911  1.0000
  C   C283      1.0  0.18657  0.93307  0.81395  1.0000
  C   C284      1.0  0.18654  0.91426  0.78861  1.0000
  C   C285      1.0  0.20910  0.89197  0.78877  1.0000
  C   C286      1.0  0.23174  0.88879  0.81363  1.0000
  H   H336      1.0  0.20818  0.94397  0.85875  1.0000
  H   H337      1.0  0.16952  0.95031  0.81418  1.0000
  H   H338      1.0  0.20932  0.87723  0.76935  1.0000
  H   H339      1.0  0.24909  0.87172  0.81318  1.0000
  C   C287      1.0  0.20778  0.55788  0.68511  1.0000
  C   C288      1.0  0.23791  0.57184  0.68618  1.0000
  C   C289      1.0  0.25422  0.57976  0.65821  1.0000
  C   C290      1.0  0.24019  0.57434  0.62878  1.0000
  C   C291      1.0  0.21020  0.56019  0.62773  1.0000
  C   C292      1.0  0.19425  0.55174  0.65566  1.0000
  H   H340      1.0  0.24850  0.57698  0.70879  1.0000
  H   H341      1.0  0.27709  0.59084  0.65947  1.0000
  H   H342      1.0  0.19887  0.55610  0.60520  1.0000
  H   H343      1.0  0.17101  0.54120  0.65439  1.0000
  H   H344      1.0  0.46427  0.65440  0.64826  1.0000
  Fe  Fe47      1.0  0.08522  0.50406  0.77157  1.0000
  H   H345      1.0  0.40006  0.67499  0.59479  1.0000
  H   H346      1.0  0.42184  0.97526  0.95449  1.0000
  C   C293      1.0  0.42110  0.95966  0.89532  1.0000
  H   H347      1.0  0.24193  0.75405  0.88170  1.0000
  H   H348      1.0  0.42092  0.51456  0.60099  1.0000
  C   C294      1.0  0.30359  0.94149  0.79190  1.0000
  H   H349      1.0  0.42823  0.98014  0.88501  1.0000
  C   C295      1.0  0.15085  0.82018  0.84507  1.0000
  C   C296      1.0  0.20388  0.83325  0.86471  1.0000
  H   H350      1.0  0.41789  0.94404  0.87596  1.0000
  H   H351      1.0  0.00224  0.94900  0.87372  1.0000
  H   H352      1.0  0.27634  0.56185  0.53452  1.0000
  H   H353      1.0  0.43167  0.90677  0.91316  1.0000
  H   H354      1.0  0.44354  0.77298  0.85922  1.0000
  H   H355      1.0  0.22493  0.76430  0.91963  1.0000
  C   C297      1.0  0.33556  0.96840  0.75514  1.0000
  H   H356      1.0  0.03982  0.50778  0.58828  1.0000
  H   H357      1.0  0.13711  0.77729  0.85206  1.0000
  C   C298      1.0  0.35851  0.76749  0.49263  1.0000
  H   H358      1.0  0.01209  0.94677  0.65296  1.0000
  C   C299      1.0  0.36716  0.50090  0.95628  1.0000
  S   S91       1.0  0.05874  0.49492  0.65178  1.0000
  H   H359      1.0  0.20874  0.49264  0.72640  1.0000
  H   H360      1.0  0.26994  0.82558  0.86042  1.0000
  S   S92       1.0  0.37058  0.92304  0.49196  1.0000
  H   H361      1.0  0.35527  0.94732  0.79578  1.0000
  N   N18       1.0  0.45653  0.51971  0.56385  1.0000
  H   H362      1.0  0.38723  0.96683  0.53558  1.0000
  S   S93       1.0  0.06470  0.51344  0.82116  1.0000
  H   H363      1.0  0.22803  0.92701  0.73495  1.0000
  H   H364      1.0  0.45861  0.73112  0.58232  1.0000
  C   C300      1.0  0.32983  0.71423  0.48864  1.0000
  H   H365      1.0  0.27032  0.52968  0.57660  1.0000
  H   H366      1.0  0.04732  0.51689  0.88678  1.0000
  C   C301      1.0  0.02033  0.49554  0.59842  1.0000
  N   N19       1.0  0.24143  0.79862  0.89066  1.0000
  C   C302      1.0  0.23412  0.94198  0.71582  1.0000
  H   H367      1.0  0.46814  0.54086  0.60751  1.0000
  H   H368      1.0  0.41701  0.72075  0.58228  1.0000
  C   C303      1.0  0.37683  0.97666  0.51492  1.0000
  H   H369      1.0  0.17098  0.86154  0.84121  1.0000
  C   C304      1.0  0.17481  0.84032  0.84962  1.0000
  C   C305      1.0  0.47380  0.86614  0.88793  1.0000
  C   C306      1.0  0.22556  0.52594  0.53160  1.0000
  H   H370      1.0  0.21398  0.96778  0.76855  1.0000
  H   H371      1.0  0.47267  0.69148  0.54846  1.0000
  H   H372      1.0  0.30470  0.97017  0.52983  1.0000
  C   C307      1.0  0.02531  0.95518  0.51106  1.0000
  H   H373      1.0  0.22178  0.84963  0.86748  1.0000
  H   H374      1.0  0.26056  0.49388  0.57008  1.0000
  H   H375      1.0  0.31857  0.69384  0.48691  1.0000
  H   H376      1.0  0.42779  0.64864  0.60733  1.0000
  H   H377      1.0  0.18722  0.76407  0.87826  1.0000
  H   H378      1.0  0.41100  0.49694  0.56540  1.0000
  H   H379      1.0  0.26783  0.76485  0.91308  1.0000
  C   C308      1.0  0.26899  0.50856  0.74041  1.0000
  H   H380      1.0  0.27380  0.51705  0.94210  1.0000
  H   H381      1.0  0.30005  0.50755  0.55870  1.0000
  C   C309      1.0  0.06997  0.97743  0.54028  1.0000
  C   C310      1.0  0.20993  0.80564  0.87568  1.0000
  C   C311      1.0  0.02525  0.51222  0.87398  1.0000
  H   H382      1.0  0.03613  0.96542  0.82873  1.0000
  C   C312      1.0  0.48440  0.66638  0.63903  1.0000
  C   C313      1.0  0.30763  0.97430  0.73745  1.0000
  H   H383      1.0  0.43190  0.67905  0.54803  1.0000
  C   C314      1.0  0.43307  0.92303  0.93187  1.0000
  C   C315      1.0  0.27563  0.94716  0.77432  1.0000
  S   S94       1.0  0.13789  0.97777  0.69635  1.0000
  C   C316      1.0  0.33339  0.70916  0.97416  1.0000
  H   H384      1.0  0.28619  0.52069  0.75524  1.0000
  C   C317      1.0  0.36698  0.95996  0.48934  1.0000
  H   H385      1.0  0.28348  0.49705  0.72233  1.0000
  H   H386      1.0  0.22646  0.81493  0.93580  1.0000
  H   H387      1.0  0.15737  0.97866  0.89999  1.0000
  C   C318      1.0  0.43173  0.50281  0.58073  1.0000
  C   C319      1.0  0.33355  0.95201  0.78226  1.0000
  H   H388      1.0  0.42561  0.49324  0.51476  1.0000
  N   N20       1.0  0.26059  0.51916  0.52786  1.0000
  H   H389      1.0  0.30197  0.92871  0.81304  1.0000
  H   H390      1.0  0.04000  0.92283  0.58205  1.0000
  C   C320      1.0  0.47145  0.50295  0.53813  1.0000
  N   N21       1.0  0.24660  0.96892  0.72826  1.0000
  H   H391      1.0  0.42068  0.53920  0.53350  1.0000
  C   C321      1.0  0.26804  0.80327  0.86761  1.0000
  H   H392      1.0  0.25236  0.93158  0.70026  1.0000
  H   H393      1.0  0.25367  0.52423  0.72778  1.0000
  N   N22       1.0  0.44530  0.94978  0.91883  1.0000
  C   C322      1.0  0.36733  0.74593  0.51384  1.0000
  H   H394      1.0  0.30396  0.54022  0.51261  1.0000
  C   C323      1.0  0.27351  0.51207  0.55960  1.0000
  H   H395      1.0  0.29216  0.79727  0.87751  1.0000
  C   C324      1.0  0.47831  0.94558  0.90547  1.0000
  H   H396      1.0  0.46780  0.95677  0.85616  1.0000
  C   C325      1.0  0.27667  0.96377  0.74660  1.0000
  C   C326      1.0  0.36422  0.51855  0.49019  1.0000
  C   C327      1.0  0.33644  0.73069  0.95142  1.0000
  C   C328      1.0  0.04964  0.97610  0.51389  1.0000
  C   C329      1.0  0.45160  0.49037  0.51474  1.0000
  Fe  Fe48      1.0  0.08360  0.49096  0.70036  1.0000
  H   H397      1.0  0.35899  0.97647  0.74768  1.0000
  C   C330      1.0  0.48141  0.68409  0.61223  1.0000
  H   H398      1.0  0.24863  0.83940  0.91202  1.0000
  C   C331      1.0  0.24672  0.81692  0.91849  1.0000
  H   H399      1.0  0.22169  0.54275  0.54961  1.0000
  S   S95       1.0  0.36612  0.55548  0.48705  1.0000
  C   C332      1.0  0.02658  0.50913  0.84091  1.0000
  H   H400      1.0  0.12842  0.82573  0.83318  1.0000
  H   H401      1.0  0.23910  0.48840  0.91539  1.0000
  C   C333      1.0  0.18491  0.78558  0.87080  1.0000
  C   C334      1.0  0.24386  0.76914  0.90165  1.0000
  H   H402      1.0  0.26974  0.81151  0.93100  1.0000
  H   H403      1.0  0.21260  0.51990  0.77254  1.0000
  S   S96       1.0  0.13960  0.49765  0.77349  1.0000
  C   C335      1.0  0.22137  0.98162  0.74890  1.0000
  C   C336      1.0  0.48312  0.79868  0.84337  1.0000
  H   H404      1.0  0.49362  0.51162  0.59873  1.0000
  C   C337      1.0  0.23063  0.50543  0.78342  1.0000
  H   H405      1.0  0.26431  0.79066  0.84581  1.0000
  H   H406      1.0  0.29608  0.49875  0.80364  1.0000
  N   N23       1.0  0.45052  0.68767  0.59468  1.0000
  C   C338      1.0  0.45508  0.67827  0.56157  1.0000
  C   C339      1.0  0.42299  0.67152  0.60819  1.0000
  C   C340      1.0  0.44072  0.71760  0.59464  1.0000
  C   C341      1.0  0.27781  0.54462  0.51689  1.0000
  C   C342      1.0  0.46895  0.77348  0.85229  1.0000
  H   H407      1.0  0.08167  0.95975  0.58556  1.0000
  C   C343      1.0  0.02312  0.98042  0.84320  1.0000
  C   C344      1.0  0.33169  0.75908  0.95947  1.0000
  H   H408      1.0  0.46145  0.96363  0.96489  1.0000
  H   H409      1.0  0.41776  0.67772  0.63300  1.0000
  H   H410      1.0  0.34258  0.72524  0.92734  1.0000
  H   H411      1.0  0.24671  0.51887  0.79795  1.0000
  C   C345      1.0  0.26476  0.49636  0.50440  1.0000
  H   H412      1.0  0.09156  0.97195  0.87403  1.0000
  H   H413      1.0  0.25312  0.93822  0.78251  1.0000
  C   C346      1.0  0.35169  0.97367  0.96031  1.0000
  C   C347      1.0  0.06671  0.95806  0.56457  1.0000
  H   H414      1.0  0.21704  0.49139  0.79958  1.0000
  H   H415      1.0  0.45812  0.55799  0.53722  1.0000
  H   H416      1.0  0.30021  0.93177  0.49301  1.0000
  C   C348      1.0  0.28530  0.97143  0.51275  1.0000
  C   C349      1.0  0.02323  0.48589  0.62972  1.0000
  H   H417      1.0  0.26832  0.97921  0.68325  1.0000
  N   N24       1.0  0.24877  0.48908  0.75925  1.0000
  H   H418      1.0  0.39664  0.96270  0.90617  1.0000
  H   H419      1.0  0.21154  0.50725  0.53932  1.0000
  C   C350      1.0  0.00376  0.97116  0.86877  1.0000
  C   C351      1.0  0.00453  0.95968  0.63335  1.0000
  C   C352      1.0  0.27212  0.51044  0.96640  1.0000
  H   H420      1.0  0.00397  0.91989  0.53714  1.0000
  H   H421      1.0  0.49831  0.54432  0.57759  1.0000
  C   C353      1.0  0.11019  0.98243  0.85906  1.0000
  H   H422      1.0  0.44253  0.48307  0.59001  1.0000
  Fe  Fe49      1.0  0.87567  0.01140  0.00728  1.0000
  H   H423      1.0  0.50810  0.41597  0.31473  1.0000
  S   S97       1.0  0.84536  0.04934  0.02298  1.0000
  C   C354      1.0  0.86207  0.41991  0.35667  1.0000
  H   H424      1.0  0.79975  0.00193  0.00423  1.0000
  Fe  Fe50      1.0  0.85798  0.46027  0.47374  1.0000
  H   H425      1.0  0.63677  0.00841  0.29621  1.0000
  H   H426      1.0  0.64317  0.22712  0.15426  1.0000
  H   H427      1.0  0.58540  0.17425  0.18853  1.0000
  C   C355      1.0  0.78439  0.98841  0.98889  1.0000
  C   C356      1.0  0.68369  0.38324  0.46677  1.0000
  S   S98       1.0  0.93093  0.00926  0.00855  1.0000
  Fe  Fe51      1.0  0.69221  0.08105  0.14622  1.0000
  S   S99       1.0  0.69679  0.09480  0.19684  1.0000
  S   S100      1.0  0.73169  0.05130  0.12704  1.0000
  Fe  Fe52      1.0  0.62098  0.10260  0.14355  1.0000
  S   S101      1.0  0.62077  0.11678  0.19416  1.0000
  S   S102      1.0  0.57925  0.11166  0.10960  1.0000
  Fe  Fe53      1.0  0.67013  0.13443  0.18352  1.0000
  S   S103      1.0  0.68818  0.17756  0.19998  1.0000
  Fe  Fe54      1.0  0.64725  0.07617  0.20359  1.0000
  S   S104      1.0  0.63845  0.05122  0.24838  1.0000
  S   S105      1.0  0.66959  0.12225  0.13194  1.0000
  S   S106      1.0  0.64334  0.06053  0.15380  1.0000
  Fe  Fe55      1.0  0.68576  0.36562  0.33055  1.0000
  S   S107      1.0  0.68184  0.35521  0.27853  1.0000
  S   S108      1.0  0.73294  0.36329  0.35897  1.0000
  Fe  Fe56      1.0  0.61193  0.36915  0.33872  1.0000
  S   S109      1.0  0.60263  0.35955  0.28783  1.0000
  S   S110      1.0  0.57469  0.37874  0.37705  1.0000
  Fe  Fe57      1.0  0.64112  0.32587  0.29194  1.0000
  S   S111      1.0  0.62579  0.28188  0.27492  1.0000
  Fe  Fe58      1.0  0.64370  0.38948  0.27826  1.0000
  S   S112      1.0  0.63718  0.42030  0.23786  1.0000
  S   S113      1.0  0.64762  0.33387  0.34400  1.0000
  S   S114      1.0  0.65044  0.40155  0.32902  1.0000
  C   C357      1.0  0.53238  0.37380  0.37096  1.0000
  C   C358      1.0  0.55962  0.99056  0.23000  1.0000
  H   H428      1.0  0.68033  0.05244  0.06542  1.0000
  H   H429      1.0  0.53694  0.35706  0.32401  1.0000
  C   C359      1.0  0.63811  0.47306  0.21244  1.0000
  C   C360      1.0  0.67026  0.20624  0.22101  1.0000
  C   C361      1.0  0.63838  0.20550  0.23266  1.0000
  C   C362      1.0  0.62531  0.22883  0.24892  1.0000
  C   C363      1.0  0.64385  0.25323  0.25398  1.0000
  C   C364      1.0  0.67578  0.25392  0.24248  1.0000
  C   C365      1.0  0.68881  0.23060  0.22610  1.0000
  H   H430      1.0  0.62375  0.18705  0.22915  1.0000
  H   H431      1.0  0.60061  0.22802  0.25770  1.0000
  H   H432      1.0  0.69041  0.27243  0.24612  1.0000
  H   H433      1.0  0.71349  0.23150  0.21726  1.0000
  C   C366      1.0  0.63909  0.01414  0.24584  1.0000
  H   H434      1.0  0.82028  0.36598  0.43594  1.0000
  C   C367      1.0  0.51035  0.38110  0.39505  1.0000
  C   C368      1.0  0.63886  0.45740  0.24046  1.0000
  C   C369      1.0  0.57129  0.43073  0.30595  1.0000
  C   C370      1.0  0.63988  0.00046  0.21664  1.0000
  S   S115      1.0  0.93030  0.99530  0.40975  1.0000
  H   H435      1.0  0.64066  0.45994  0.29116  1.0000
  H   H436      1.0  0.85781  0.04324  0.14114  1.0000
  H   H437      1.0  0.64101  0.01249  0.19515  1.0000
  C   C371      1.0  0.53712  0.10574  0.11634  1.0000
  C   C372      1.0  0.51478  0.11260  0.09246  1.0000
  C   C373      1.0  0.52540  0.09474  0.14475  1.0000
  H   H438      1.0  0.52357  0.12112  0.07041  1.0000
  H   H439      1.0  0.54228  0.08936  0.16332  1.0000
  H   H440      1.0  0.65269  0.38016  0.39255  1.0000
  C   C374      1.0  0.95739  0.05056  0.18364  1.0000
  C   C375      1.0  0.56474  0.19771  0.11574  1.0000
  C   C376      1.0  0.63943  0.47161  0.26940  1.0000
  H   H441      1.0  0.65455  0.40940  0.41905  1.0000
  C   C377      1.0  0.73600  0.99736  0.02248  1.0000
  C   C378      1.0  0.89013  0.01419  0.09651  1.0000
  H   H442      1.0  0.87209  0.39959  0.34834  1.0000
  H   H443      1.0  0.62970  0.19601  0.11526  1.0000
  C   C379      1.0  0.69146  0.00876  0.05916  1.0000
  C   C380      1.0  0.80348  0.40795  0.42730  1.0000
  C   C381      1.0  0.78149  0.42439  0.40978  1.0000
  C   C382      1.0  0.75950  0.41149  0.38829  1.0000
  C   C383      1.0  0.75996  0.38222  0.38396  1.0000
  C   C384      1.0  0.78239  0.36632  0.40112  1.0000
  C   C385      1.0  0.80355  0.37895  0.42270  1.0000
  H   H444      1.0  0.78107  0.44685  0.41313  1.0000
  H   H445      1.0  0.74235  0.42410  0.37517  1.0000
  H   H446      1.0  0.78311  0.34381  0.39811  1.0000
  C   C386      1.0  0.97323  0.99174  0.35951  1.0000
  C   C387      1.0  0.81358  0.04965  0.05180  1.0000
  C   C388      1.0  0.80554  0.02579  0.06924  1.0000
  C   C389      1.0  0.78063  0.02688  0.09214  1.0000
  C   C390      1.0  0.76322  0.05178  0.09804  1.0000
  C   C391      1.0  0.77136  0.07576  0.08080  1.0000
  C   C392      1.0  0.79639  0.07465  0.05785  1.0000
  H   H447      1.0  0.81854  0.00647  0.06522  1.0000
  H   H448      1.0  0.77458  0.00821  0.10530  1.0000
  H   H449      1.0  0.75830  0.09510  0.08505  1.0000
  H   H450      1.0  0.80240  0.09332  0.04466  1.0000
  N   N25       1.0  0.88751  0.43871  0.36952  1.0000
  H   H451      1.0  0.56862  0.41105  0.31973  1.0000
  H   H452      1.0  0.53216  0.00027  0.31674  1.0000
  H   H453      1.0  0.62076  0.35157  0.42617  1.0000
  C   C393      1.0  0.91090  0.44615  0.34427  1.0000
  H   H454      1.0  0.52188  0.41153  0.24592  1.0000
  H   H455      1.0  0.54572  0.18169  0.17294  1.0000
  H   H456      1.0  0.97495  0.46409  0.27859  1.0000
  H   H457      1.0  0.94241  0.04624  0.08253  1.0000
  H   H458      1.0  0.84916  0.42987  0.33652  1.0000
  H   H459      1.0  0.90482  0.06054  0.06802  1.0000
  H   H460      1.0  0.63089  0.34700  0.46688  1.0000
  C   C394      1.0  0.91944  0.05687  0.08982  1.0000
  C   C395      1.0  0.95131  0.43131  0.30472  1.0000
  H   H461      1.0  0.64719  0.27180  0.18071  1.0000
  H   H462      1.0  0.84347  0.41466  0.37483  1.0000
  C   C396      1.0  0.71848  0.04600  0.03132  1.0000
  H   H463      1.0  0.51384  0.45222  0.32142  1.0000
  C   C397      1.0  0.98185  0.47994  0.38767  1.0000
  H   H464      1.0  0.57365  0.44797  0.32338  1.0000
  H   H465      1.0  0.91103  0.00142  0.08786  1.0000
  C   C398      1.0  0.54835  0.46144  0.26641  1.0000
  C   C399      1.0  0.87077  0.46333  0.38366  1.0000
  H   H466      1.0  0.72159  0.06820  0.02697  1.0000
  N   N26       1.0  0.58609  0.19533  0.14380  1.0000
  H   H467      1.0  0.56540  0.40652  0.25014  1.0000
  C   C400      1.0  0.61735  0.18275  0.13318  1.0000
  C   C401      1.0  0.92236  0.03360  0.14075  1.0000
  C   C402      1.0  0.58996  0.22312  0.15890  1.0000
  C   C403      1.0  0.62067  0.23648  0.16231  1.0000
  C   C404      1.0  0.56245  0.23751  0.17127  1.0000
  C   C405      1.0  0.62345  0.26235  0.17756  1.0000
  C   C406      1.0  0.56562  0.26320  0.18686  1.0000
  C   C407      1.0  0.59609  0.27551  0.19015  1.0000
  H   H468      1.0  0.53791  0.39035  0.27702  1.0000
  H   H469      1.0  0.85325  0.45700  0.40243  1.0000
  H   H470      1.0  0.54555  0.04082  0.28488  1.0000
  H   H471      1.0  0.97347  0.46585  0.40584  1.0000
  H   H472      1.0  0.85651  0.47514  0.36578  1.0000
  H   H473      1.0  0.63424  0.17933  0.15335  1.0000
  H   H474      1.0  0.87537  0.01956  0.07545  1.0000
  H   H475      1.0  0.76303  0.99925  0.29127  1.0000
  H   H476      1.0  0.51944  0.38914  0.41720  1.0000
  C   C408      1.0  0.71693  0.39084  0.46403  1.0000
  H   H477      1.0  0.53832  0.22877  0.16941  1.0000
  H   H478      1.0  0.76171  0.03789  0.25348  1.0000
  C   C409      1.0  0.54209  0.40984  0.26322  1.0000
  H   H479      1.0  0.59870  0.29501  0.20307  1.0000
  N   N27       1.0  0.66240  0.13586  0.29767  1.0000
  C   C410      1.0  0.63072  0.12215  0.30440  1.0000
  C   C411      1.0  0.66909  0.13213  0.26356  1.0000
  C   C412      1.0  0.68782  0.12081  0.31580  1.0000
  C   C413      1.0  0.66307  0.16605  0.30578  1.0000
  C   C414      1.0  0.63613  0.18030  0.31966  1.0000
  C   C415      1.0  0.69134  0.18219  0.29962  1.0000
  C   C416      1.0  0.63763  0.20892  0.32666  1.0000
  C   C417      1.0  0.69255  0.21074  0.30681  1.0000
  C   C418      1.0  0.66576  0.22408  0.32029  1.0000
  H   H480      1.0  0.61067  0.13196  0.29064  1.0000
  H   H481      1.0  0.63103  0.09954  0.29760  1.0000
  H   H482      1.0  0.62462  0.12296  0.32998  1.0000
  H   H483      1.0  0.65193  0.14476  0.24914  1.0000
  H   H484      1.0  0.66669  0.10983  0.25624  1.0000
  H   H485      1.0  0.69405  0.13871  0.25672  1.0000
  H   H486      1.0  0.68424  0.12374  0.34165  1.0000
  H   H487      1.0  0.68752  0.09788  0.31072  1.0000
  H   H488      1.0  0.71271  0.12823  0.30993  1.0000
  H   H489      1.0  0.61344  0.17002  0.32491  1.0000
  H   H490      1.0  0.71254  0.17302  0.28853  1.0000
  H   H491      1.0  0.61661  0.21972  0.33634  1.0000
  H   H492      1.0  0.71401  0.22286  0.30096  1.0000
  H   H493      1.0  0.66638  0.24645  0.32478  1.0000
  N   N28       1.0  0.54376  0.43492  0.28395  1.0000
  H   H494      1.0  0.98181  0.00722  0.07999  1.0000
  C   C419      1.0  0.52028  0.36326  0.34251  1.0000
  H   H495      1.0  0.69119  0.39388  0.40382  1.0000
  S   S116      1.0  0.84834  0.00571  0.45896  1.0000
  H   H496      1.0  0.91944  0.98753  0.13967  1.0000
  H   H497      1.0  0.67342  0.00208  0.07624  1.0000
  C   C420      1.0  0.57094  0.17558  0.16644  1.0000
  H   H498      1.0  0.92579  0.07792  0.09902  1.0000
  H   H499      1.0  0.54444  0.27350  0.19687  1.0000
  C   C421      1.0  0.63251  0.36194  0.44683  1.0000
  C   C422      1.0  0.99329  0.45914  0.07935  1.0000
  H   H500      1.0  0.57487  0.21285  0.09839  1.0000
  H   H501      1.0  0.68671  0.32915  0.45093  1.0000
  H   H502      1.0  0.56916  0.15405  0.15643  1.0000
  C   C423      1.0  0.75054  0.01808  0.24744  1.0000
  C   C424      1.0  0.93681  0.05580  0.15806  1.0000
  C   C425      1.0  0.72082  0.98966  0.21045  1.0000
  H   H503      1.0  0.63784  0.46231  0.18996  1.0000
  C   C426      1.0  0.96884  0.00088  0.39089  1.0000
  C   C427      1.0  0.73875  0.02654  0.01628  1.0000
  C   C428      1.0  0.99064  0.99457  0.09927  1.0000
  H   H504      1.0  0.61366  0.16199  0.12182  1.0000
  N   N29       1.0  0.90140  0.03972  0.11319  1.0000
  C   C429      1.0  0.53939  0.99648  0.29262  1.0000
  C   C430      1.0  0.92894  0.00590  0.15135  1.0000
  N   N30       1.0  0.66680  0.36972  0.43995  1.0000
  C   C431      1.0  0.63754  0.99804  0.27352  1.0000
  C   C432      1.0  0.55689  0.01714  0.24327  1.0000
  C   C433      1.0  0.73540  0.01499  0.21827  1.0000
  H   H505      1.0  0.53976  0.20479  0.12195  1.0000
  S   S117      1.0  0.83165  0.42128  0.45545  1.0000
  H   H506      1.0  0.70920  0.34794  0.42152  1.0000
  H   H507      1.0  0.56196  0.17711  0.10352  1.0000
  H   H508      1.0  0.59467  0.42933  0.29279  1.0000
  H   H509      1.0  0.98045  0.01907  0.21231  1.0000
  C   C434      1.0  0.96382  0.02318  0.19299  1.0000
  H   H510      1.0  0.87840  0.07584  0.13475  1.0000
  C   C435      1.0  0.66637  0.38916  0.41274  1.0000
  C   C436      1.0  0.51309  0.43614  0.30249  1.0000
  H   H511      1.0  0.73039  0.38682  0.44264  1.0000
  C   C437      1.0  0.92869  0.42486  0.32829  1.0000
  H   H512      1.0  0.75680  0.03502  0.00045  1.0000
  H   H513      1.0  0.73472  0.03227  0.20166  1.0000
  H   H514      1.0  0.50841  0.45674  0.47018  1.0000
  H   H515      1.0  0.92548  0.40305  0.33417  1.0000
  H   H516      1.0  0.92460  0.43734  0.40513  1.0000
  C   C438      1.0  0.91701  0.47426  0.33498  1.0000
  C   C439      1.0  0.75119  0.99581  0.26886  1.0000
  H   H517      1.0  0.55467  0.44375  0.21878  1.0000
  H   H518      1.0  0.91589  0.40395  0.38756  1.0000
  C   C440      1.0  0.68431  0.34374  0.43064  1.0000
  H   H519      1.0  0.56354  0.03542  0.22957  1.0000
  H   H520      1.0  0.93247  0.07739  0.15179  1.0000
  H   H521      1.0  0.85572  0.06034  0.10349  1.0000
  C   C441      1.0  0.54690  0.02008  0.27452  1.0000
  H   H522      1.0  0.99190  0.02193  0.42971  1.0000
  C   C442      1.0  0.69515  0.03718  0.05294  1.0000
  C   C443      1.0  0.71125  0.98906  0.04393  1.0000
  H   H523      1.0  0.61725  0.38071  0.45196  1.0000
  C   C444      1.0  0.55298  0.46239  0.23314  1.0000
  C   C445      1.0  0.94932  0.00096  0.17713  1.0000
  C   C446      1.0  0.90484  0.42403  0.39536  1.0000
  C   C447      1.0  0.87216  0.05548  0.12365  1.0000
  H   H524      1.0  0.67164  0.33248  0.41122  1.0000
  C   C448      1.0  0.99489  0.01422  0.40592  1.0000
  H   H525      1.0  0.96870  0.06776  0.19619  1.0000
  C   C449      1.0  0.95673  0.45905  0.29623  1.0000
  H   H526      1.0  0.88815  0.41882  0.41525  1.0000
  Fe  Fe59      1.0  0.90231  0.99575  0.45712  1.0000
  C   C450      1.0  0.93944  0.48042  0.31114  1.0000
  H   H527      1.0  0.98731  0.44757  0.05818  1.0000
  H   H528      1.0  0.96507  0.41481  0.29319  1.0000
  H   H529      1.0  0.70742  0.46957  0.98867  1.0000
  H   H530      1.0  0.70863  0.98755  0.18789  1.0000
  H   H531      1.0  0.56839  0.98831  0.20596  1.0000
  H   H532      1.0  0.87450  0.00090  0.11180  1.0000
  S   S118      1.0  0.91297  0.45878  0.47531  1.0000
  H   H533      1.0  0.88844  0.47784  0.39502  1.0000
  H   H534      1.0  0.51659  0.17305  0.68449  1.0000
  H   H535      1.0  0.54680  0.29633  0.87596  1.0000
  S   S119      1.0  0.83093  0.06148  0.52743  1.0000
  H   H536      1.0  0.72874  0.00279  0.69446  1.0000
  H   H537      1.0  0.97734  0.00530  0.56207  1.0000
  C   C451      1.0  0.74425  0.00055  0.75607  1.0000
  H   H538      1.0  0.63846  0.04834  0.51342  1.0000
  C   C452      1.0  0.56975  0.45885  0.84302  1.0000
  H   H539      1.0  0.88342  0.38291  0.85289  1.0000
  C   C453      1.0  0.66797  0.38969  0.49584  1.0000
  N   N31       1.0  0.66389  0.04626  0.55760  1.0000
  H   H540      1.0  0.76903  0.39989  0.82168  1.0000
  Fe  Fe60      1.0  0.68782  0.09561  0.65859  1.0000
  S   S120      1.0  0.67873  0.11147  0.70831  1.0000
  S   S121      1.0  0.73589  0.07318  0.64664  1.0000
  Fe  Fe61      1.0  0.61521  0.09984  0.64223  1.0000
  S   S122      1.0  0.60123  0.11459  0.69052  1.0000
  S   S123      1.0  0.58074  0.09476  0.60089  1.0000
  Fe  Fe62      1.0  0.64445  0.14348  0.68707  1.0000
  S   S124      1.0  0.62926  0.18919  0.69794  1.0000
  Fe  Fe63      1.0  0.63621  0.08187  0.70791  1.0000
  S   S125      1.0  0.62708  0.05435  0.75053  1.0000
  S   S126      1.0  0.65697  0.12990  0.63711  1.0000
  S   S127      1.0  0.64661  0.06475  0.65988  1.0000
  Fe  Fe64      1.0  0.68120  0.38769  0.83836  1.0000
  S   S128      1.0  0.68653  0.37450  0.78737  1.0000
  S   S129      1.0  0.71661  0.41890  0.86113  1.0000
  Fe  Fe65      1.0  0.60943  0.36734  0.83976  1.0000
  S   S130      1.0  0.60996  0.35367  0.78909  1.0000
  S   S131      1.0  0.56673  0.36303  0.87370  1.0000
  Fe  Fe66      1.0  0.65900  0.33506  0.80020  1.0000
  S   S132      1.0  0.67592  0.29022  0.78794  1.0000
  Fe  Fe67      1.0  0.63715  0.39400  0.78061  1.0000
  S   S133      1.0  0.62441  0.42239  0.73947  1.0000
  S   S134      1.0  0.65735  0.34700  0.85202  1.0000
  S   S135      1.0  0.63289  0.40879  0.83044  1.0000
  C   C454      1.0  0.52439  0.36331  0.86552  1.0000
  H   H541      1.0  0.79259  0.35245  0.81838  1.0000
  H   H542      1.0  0.87149  0.01473  0.61161  1.0000
  H   H543      1.0  0.52879  0.36436  0.81488  1.0000
  H   H544      1.0  0.91914  0.99982  0.63375  1.0000
  C   C455      1.0  0.64293  0.21702  0.72308  1.0000
  C   C456      1.0  0.67108  0.21497  0.74147  1.0000
  C   C457      1.0  0.68076  0.23760  0.76089  1.0000
  C   C458      1.0  0.66261  0.26268  0.76228  1.0000
  C   C459      1.0  0.63440  0.26471  0.74394  1.0000
  C   C460      1.0  0.62470  0.24208  0.72452  1.0000
  H   H545      1.0  0.68548  0.19600  0.74070  1.0000
  H   H546      1.0  0.70260  0.23567  0.77493  1.0000
  H   H547      1.0  0.62011  0.28374  0.74463  1.0000
  H   H548      1.0  0.60291  0.24405  0.71048  1.0000
  C   C461      1.0  0.62654  0.01733  0.74752  1.0000
  C   C462      1.0  0.62801  0.00125  0.77520  1.0000
  H   H549      1.0  0.96161  0.99325  0.67244  1.0000
  C   C463      1.0  0.62606  0.45937  0.74262  1.0000
  C   C464      1.0  0.50236  0.36245  0.89090  1.0000
  C   C465      1.0  0.62606  0.00367  0.71830  1.0000
  H   H550      1.0  0.62823  0.01161  0.79792  1.0000
  H   H551      1.0  0.63920  0.46040  0.79171  1.0000
  H   H552      1.0  0.61378  0.46562  0.69375  1.0000
  H   H553      1.0  0.62445  0.01572  0.69683  1.0000
  C   C466      1.0  0.53820  0.09439  0.60824  1.0000
  H   H554      1.0  0.56284  0.47738  0.85754  1.0000
  C   C467      1.0  0.52586  0.09055  0.63869  1.0000
  H   H555      1.0  0.52560  0.10114  0.55947  1.0000
  H   H556      1.0  0.54233  0.08716  0.65817  1.0000
  C   C468      1.0  0.74352  0.02809  0.51597  1.0000
  H   H557      1.0  0.57599  0.29837  0.79214  1.0000
  S   S136      1.0  0.91152  0.01730  0.50396  1.0000
  H   H558      1.0  0.82828  0.46431  0.87930  1.0000
  C   C469      1.0  0.87876  0.43131  0.89235  1.0000
  C   C470      1.0  0.72432  0.47707  0.78554  1.0000
  H   H559      1.0  0.52759  0.22187  0.66397  1.0000
  H   H560      1.0  0.52313  0.46958  0.77832  1.0000
  H   H561      1.0  0.52419  0.27029  0.85576  1.0000
  H   H562      1.0  0.91041  0.45961  0.84693  1.0000
  C   C471      1.0  0.79657  0.42069  0.93784  1.0000
  C   C472      1.0  0.78453  0.44534  0.92438  1.0000
  C   C473      1.0  0.75987  0.44424  0.90133  1.0000
  C   C474      1.0  0.74653  0.41855  0.89155  1.0000
  C   C475      1.0  0.75824  0.39385  0.90524  1.0000
  C   C476      1.0  0.78313  0.39495  0.92822  1.0000
  H   H563      1.0  0.79408  0.46531  0.93184  1.0000
  H   H564      1.0  0.75097  0.46350  0.89105  1.0000
  H   H565      1.0  0.74840  0.37390  0.89792  1.0000
  H   H566      1.0  0.79213  0.37572  0.93849  1.0000
  C   C477      1.0  0.80177  0.06320  0.55870  1.0000
  C   C478      1.0  0.79658  0.04083  0.57940  1.0000
  C   C479      1.0  0.77564  0.04404  0.60562  1.0000
  C   C480      1.0  0.75874  0.06927  0.61104  1.0000
  C   C481      1.0  0.76287  0.09127  0.58964  1.0000
  C   C482      1.0  0.78452  0.08832  0.56387  1.0000
  H   H567      1.0  0.80905  0.02117  0.57558  1.0000
  H   H568      1.0  0.77267  0.02683  0.62192  1.0000
  H   H569      1.0  0.75055  0.11099  0.59370  1.0000
  H   H570      1.0  0.78836  0.10583  0.54814  1.0000
  N   N32       1.0  0.90287  0.04995  0.60183  1.0000
  C   C483      1.0  0.58266  0.19767  0.78940  1.0000
  H   H571      1.0  0.76339  0.98724  0.50616  1.0000
  C   C484      1.0  0.91803  0.06213  0.57316  1.0000
  C   C485      1.0  0.92802  0.04478  0.62615  1.0000
  C   C486      1.0  0.70724  0.44415  0.74579  1.0000
  Fe  Fe68      1.0  0.85962  0.45986  0.97688  1.0000
  C   C487      1.0  0.97309  0.06236  0.65864  1.0000
  H   H572      1.0  0.59953  0.30935  0.86169  1.0000
  C   C488      1.0  0.54891  0.23542  0.80930  1.0000
  H   H573      1.0  0.77315  0.05288  0.74674  1.0000
  C   C489      1.0  0.88548  0.02421  0.59186  1.0000
  H   H574      1.0  0.85829  0.42629  0.90845  1.0000
  H   H575      1.0  0.64271  0.38490  0.50013  1.0000
  H   H576      1.0  0.99943  0.46263  0.66644  1.0000
  C   C490      1.0  0.79425  0.39656  0.82821  1.0000
  H   H577      1.0  0.62141  0.29286  0.83039  1.0000
  H   H578      1.0  0.89994  0.06492  0.55380  1.0000
  C   C491      1.0  0.97782  0.03585  0.67145  1.0000
  C   C492      1.0  0.71781  0.04327  0.52937  1.0000
  H   H579      1.0  0.70088  0.06081  0.74663  1.0000
  C   C493      1.0  0.61009  0.21096  0.80137  1.0000
  H   H580      1.0  0.94562  0.08788  0.62741  1.0000
  C   C494      1.0  0.68482  0.40277  0.52047  1.0000
  H   H581      1.0  0.84979  0.34427  0.83405  1.0000
  N   N33       1.0  0.54340  0.45111  0.82071  1.0000
  H   H582      1.0  0.57683  0.18572  0.60325  1.0000
  H   H583      1.0  0.53647  0.41942  0.78475  1.0000
  H   H584      1.0  0.55590  0.22626  0.63200  1.0000
  H   H585      1.0  0.91058  0.42321  0.83792  1.0000
  H   H586      1.0  0.70984  0.43479  0.79533  1.0000
  C   C495      1.0  0.89469  0.44203  0.83896  1.0000
  C   C496      1.0  0.69159  0.99983  0.54407  1.0000
  H   H587      1.0  0.65665  0.07867  0.59241  1.0000
  H   H588      1.0  0.57607  0.44114  0.85899  1.0000
  N   N34       1.0  0.57254  0.27743  0.83680  1.0000
  H   H589      1.0  0.69388  0.08156  0.57145  1.0000
  H   H590      1.0  0.89235  0.44906  0.90308  1.0000
  C   C497      1.0  0.63349  0.47272  0.77111  1.0000
  Fe  Fe69      1.0  0.85676  0.02232  0.50816  1.0000
  C   C498      1.0  0.51209  0.44476  0.83655  1.0000
  C   C499      1.0  0.57642  0.24967  0.82157  1.0000
  H   H591      1.0  0.75900  0.40948  0.48584  1.0000
  C   C500      1.0  0.73352  0.40390  0.48870  1.0000
  C   C501      1.0  0.84583  0.41507  0.84862  1.0000
  C   C502      1.0  0.87825  0.06993  0.61419  1.0000
  H   H592      1.0  0.93787  0.04835  0.56410  1.0000
  H   H593      1.0  0.58529  0.17810  0.77660  1.0000
  H   H594      1.0  0.68974  0.03023  0.76773  1.0000
  H   H595      1.0  0.74889  0.06215  0.71357  1.0000
  C   C503      1.0  0.80748  0.36976  0.82640  1.0000
  H   H596      1.0  0.71925  0.06583  0.52829  1.0000
  H   H597      1.0  0.92848  0.08319  0.57742  1.0000
  C   C504      1.0  0.94839  0.06692  0.63655  1.0000
  H   H598      1.0  0.70493  0.45824  0.69873  1.0000
  H   H599      1.0  0.53455  0.14349  0.66403  1.0000
  C   C505      1.0  0.63864  0.02901  0.57345  1.0000
  C   C506      1.0  0.55440  0.42614  0.80279  1.0000
  H   H600      1.0  0.70480  0.03433  0.69627  1.0000
  H   H601      1.0  0.99753  0.03214  0.68795  1.0000
  C   C507      1.0  0.93310  0.01808  0.64019  1.0000
  C   C508      1.0  0.61959  0.47576  0.71587  1.0000
  H   H602      1.0  0.73050  0.42003  0.53595  1.0000
  C   C509      1.0  0.51634  0.09819  0.58313  1.0000
  N   N35       1.0  0.73249  0.02530  0.73836  1.0000
  H   H603      1.0  0.80061  0.43891  0.84092  1.0000
  H   H604      1.0  0.55714  0.25995  0.88110  1.0000
  H   H605      1.0  0.63390  0.20164  0.79773  1.0000
  N   N36       1.0  0.86650  0.43819  0.86039  1.0000
  H   H606      1.0  0.67247  0.40751  0.54248  1.0000
  C   C510      1.0  0.71368  0.01616  0.71033  1.0000
  C   C511      1.0  0.51224  0.36394  0.83471  1.0000
  H   H607      1.0  0.51148  0.36189  0.91482  1.0000
  C   C512      1.0  0.83965  0.36522  0.83530  1.0000
  H   H608      1.0  0.53500  0.29227  0.80515  1.0000
  H   H609      1.0  0.55854  0.40808  0.81887  1.0000
  C   C513      1.0  0.71747  0.98487  0.53052  1.0000
  C   C514      1.0  0.71103  0.04226  0.75913  1.0000
  C   C515      1.0  0.74336  0.99896  0.51657  1.0000
  C   C516      1.0  0.69103  0.02964  0.54395  1.0000
  H   H610      1.0  0.62978  0.24610  0.82466  1.0000
  Fe  Fe70      1.0  0.90898  0.47891  0.52362  1.0000
  H   H611      1.0  0.86623  0.06159  0.63576  1.0000
  C   C517      1.0  0.71750  0.40985  0.51689  1.0000
  C   C518      1.0  0.81290  0.41895  0.83929  1.0000
  C   C519      1.0  0.98909  0.01884  0.88135  1.0000
  C   C520      1.0  0.67659  0.06614  0.58146  1.0000
  C   C521      1.0  0.84918  0.46549  0.86265  1.0000
  H   H612      1.0  0.55839  0.31915  0.82331  1.0000
  N   N37       1.0  0.54167  0.18338  0.64127  1.0000
  C   C522      1.0  0.54896  0.21234  0.65183  1.0000
  C   C523      1.0  0.53772  0.16600  0.67006  1.0000
  C   C524      1.0  0.57014  0.17234  0.62363  1.0000
  H   H613      1.0  0.61897  0.04225  0.58399  1.0000
  C   C525      1.0  0.51213  0.19999  0.59275  1.0000
  H   H614      1.0  0.90260  0.00827  0.58214  1.0000
  C   C526      1.0  0.60341  0.28890  0.84952  1.0000
  H   H615      1.0  0.67240  0.98751  0.55445  1.0000
  H   H616      1.0  0.79652  0.01011  0.75562  1.0000
  H   H617      1.0  0.68954  0.05474  0.60059  1.0000
  C   C527      1.0  0.53933  0.47481  0.79840  1.0000
  C   C528      1.0  0.50887  0.44284  0.86993  1.0000
  C   C529      1.0  0.55209  0.20981  0.79348  1.0000
  H   H618      1.0  0.72426  0.04983  0.78034  1.0000
  H   H619      1.0  0.61456  0.27459  0.86715  1.0000
  H   H620      1.0  0.59215  0.17079  0.63888  1.0000
  H   H621      1.0  0.56505  0.15105  0.61421  1.0000
  H   H622      1.0  0.57758  0.43019  0.78997  1.0000
  C   C530      1.0  0.64763  0.06247  0.53231  1.0000
  H   H623      1.0  0.53273  0.21271  0.58620  1.0000
  H   H624      1.0  0.62640  0.01461  0.55659  1.0000
  H   H625      1.0  0.89554  0.41310  0.89248  1.0000
  H   H626      1.0  0.85880  0.07412  0.59648  1.0000
  H   H627      1.0  0.69810  0.42358  0.73957  1.0000
  H   H628      1.0  0.88899  0.09055  0.62031  1.0000
  H   H629      1.0  0.77548  0.03273  0.71035  1.0000
  H   H630      1.0  0.62644  0.07464  0.54165  1.0000
  C   C531      1.0  0.51270  0.18332  0.62048  1.0000
  S   S137      1.0  0.87301  0.99202  0.95848  1.0000
  H   H631      1.0  0.88652  0.44676  0.81452  1.0000
  H   H632      1.0  0.55958  0.16712  0.68557  1.0000
  H   H633      1.0  0.59266  0.46434  0.83041  1.0000
  H   H634      1.0  0.66428  0.07784  0.52112  1.0000
  C   C532      1.0  0.75886  0.04392  0.72690  1.0000
  H   H635      1.0  0.64914  0.01659  0.59321  1.0000
  C   C533      1.0  0.55989  0.29763  0.81330  1.0000
  H   H636      1.0  0.69175  0.00399  0.71679  1.0000
  H   H637      1.0  0.86753  0.02871  0.57295  1.0000
  H   H638      1.0  0.56988  0.21282  0.66855  1.0000
  C   C534      1.0  0.60725  0.23663  0.81706  1.0000
  H   H639      1.0  0.52478  0.24428  0.81134  1.0000
  H   H640      1.0  0.77586  0.00094  0.96839  1.0000
  C   C535      1.0  0.54916  0.27579  0.86349  1.0000
  C   C536      1.0  0.71369  0.45044  0.77724  1.0000
  C   C537      1.0  0.71124  0.46448  0.72242  1.0000
  C   C538      1.0  0.85866  0.38750  0.84613  1.0000
  H   H641      1.0  0.97607  0.03386  0.89579  1.0000
  C   C539      1.0  0.98650  0.99024  0.88803  1.0000
  H   H642      1.0  0.53081  0.19944  0.78402  1.0000
  S   S138      1.0  0.82866  0.42119  0.96619  1.0000
  C   C540      1.0  0.98458  0.99254  0.58187  1.0000
  H   H643      1.0  0.52913  0.44561  0.88576  1.0000
  C   C541      1.0  0.95756  0.01391  0.66261  1.0000
  H   H644      1.0  0.98894  0.07936  0.66567  1.0000
  C   C542      1.0  0.77764  0.99606  0.76337  1.0000
  C   C543      1.0  0.97002  0.46397  0.62402  1.0000
  H   H645      1.0  0.76392  0.03894  0.50527  1.0000
  H   H646      1.0  0.99659  0.00039  0.48455  1.0000
  Fe  Fe71      1.0  0.92754  0.98530  0.96214  1.0000
  C   C544      1.0  0.96717  0.47356  0.59271  1.0000
  S   S139      1.0  0.85405  0.47606  0.52378  1.0000
  H   H647      1.0  0.95063  0.45159  0.63410  1.0000
  S   S140      1.0  0.93150  0.46489  0.57073  1.0000
  H   H648      1.0  0.56295  0.48107  0.78748  1.0000
  H   H649      1.0  0.84034  0.47266  0.83924  1.0000
  H   H650      1.0  0.72873  0.48187  0.81019  1.0000
  H   H651      1.0  0.99802  0.42184  0.92612  1.0000
  S   S141      1.0  0.91476  0.46009  0.97486  1.0000
  C   C545      1.0  0.99773  0.47015  0.64246  1.0000
  H   H652      1.0  0.99100  0.44907  0.87716  1.0000
  C   C546      1.0  0.51866  0.48232  0.51088  1.0000
  H   H653      1.0  0.86531  0.48236  0.87181  1.0000
  H   H654      1.0  0.54476  0.47931  0.50914  1.0000
  H   H655      1.0  0.74240  0.55374  0.98373  1.0000
  H   H656      1.0  0.50865  0.81905  0.40913  1.0000
  S   S142      1.0  0.81921  0.55807  0.00192  1.0000
  H   H657      1.0  0.76885  0.59901  0.16037  1.0000
  C   C547      1.0  0.72007  0.95503  0.31398  1.0000
  S   S143      1.0  0.93922  0.51996  0.41350  1.0000
  C   C548      1.0  0.50307  0.88559  0.39268  1.0000
  C   C549      1.0  0.54821  0.80869  0.37948  1.0000
  H   H658      1.0  0.97090  0.51675  0.12106  1.0000
  H   H659      1.0  0.79288  0.61634  0.11075  1.0000
  H   H660      1.0  0.54749  0.76540  0.31610  1.0000
  C   C550      1.0  0.55315  0.51274  0.26677  1.0000
  Fe  Fe72      1.0  0.67927  0.58747  0.13992  1.0000
  S   S144      1.0  0.68399  0.60185  0.19023  1.0000
  S   S145      1.0  0.71897  0.55993  0.11776  1.0000
  Fe  Fe73      1.0  0.60641  0.60286  0.13875  1.0000
  S   S146      1.0  0.60571  0.61790  0.18934  1.0000
  S   S147      1.0  0.56650  0.59858  0.10170  1.0000
  Fe  Fe74      1.0  0.65305  0.63925  0.17731  1.0000
  S   S148      1.0  0.67083  0.68274  0.19365  1.0000
  Fe  Fe75      1.0  0.63682  0.57973  0.19910  1.0000
  S   S149      1.0  0.63248  0.55375  0.24393  1.0000
  S   S150      1.0  0.65210  0.62643  0.12566  1.0000
  S   S151      1.0  0.63357  0.56324  0.14986  1.0000
  Fe  Fe76      1.0  0.68245  0.86991  0.33504  1.0000
  S   S152      1.0  0.67767  0.85550  0.28420  1.0000
  S   S153      1.0  0.73445  0.88090  0.35070  1.0000
  Fe  Fe77      1.0  0.60821  0.87125  0.34327  1.0000
  S   S154      1.0  0.59878  0.85804  0.29345  1.0000
  S   S155      1.0  0.56804  0.88269  0.37800  1.0000
  Fe  Fe78      1.0  0.63847  0.82593  0.30082  1.0000
  S   S156      1.0  0.62414  0.78036  0.28869  1.0000
  Fe  Fe79      1.0  0.63849  0.88844  0.28110  1.0000
  S   S157      1.0  0.63435  0.91805  0.23936  1.0000
  S   S158      1.0  0.64600  0.83788  0.35213  1.0000
  S   S159      1.0  0.64517  0.90408  0.33039  1.0000
  C   C551      1.0  0.52627  0.87726  0.37013  1.0000
  C   C552      1.0  0.65115  0.56701  0.05610  1.0000
  C   C553      1.0  0.72461  0.53885  0.99241  1.0000
  H   H661      1.0  0.53324  0.85859  0.32435  1.0000
  C   C554      1.0  0.78930  0.58805  0.14983  1.0000
  C   C555      1.0  0.65608  0.71031  0.21877  1.0000
  C   C556      1.0  0.62752  0.70796  0.23666  1.0000
  C   C557      1.0  0.61798  0.72976  0.25740  1.0000
  C   C558      1.0  0.63643  0.75449  0.26032  1.0000
  C   C559      1.0  0.66457  0.75712  0.24190  1.0000
  C   C560      1.0  0.67438  0.73514  0.22150  1.0000
  H   H662      1.0  0.61281  0.68934  0.23468  1.0000
  H   H663      1.0  0.59619  0.72739  0.27145  1.0000
  H   H664      1.0  0.67916  0.77586  0.24381  1.0000
  H   H665      1.0  0.69645  0.73736  0.20781  1.0000
  C   C561      1.0  0.63674  0.51674  0.24209  1.0000
  C   C562      1.0  0.63801  0.50113  0.27018  1.0000
  H   H666      1.0  0.98338  0.92955  0.13058  1.0000
  C   C563      1.0  0.63684  0.95496  0.24272  1.0000
  C   C564      1.0  0.54879  0.48743  0.28275  1.0000
  H   H667      1.0  0.56139  0.90834  0.31699  1.0000
  H   H668      1.0  0.63771  0.51191  0.29263  1.0000
  H   H669      1.0  0.63528  0.95647  0.29341  1.0000
  H   H670      1.0  0.63875  0.96073  0.19236  1.0000
  H   H671      1.0  0.63645  0.51415  0.19143  1.0000
  C   C565      1.0  0.52391  0.60143  0.10820  1.0000
  Fe  Fe80      1.0  0.85490  0.52223  0.99116  1.0000
  Fe  Fe81      1.0  0.92280  0.96807  0.03279  1.0000
  C   C566      1.0  0.87626  0.55160  0.07357  1.0000
  H   H672      1.0  0.52698  0.61277  0.15724  1.0000
  H   H673      1.0  0.72398  0.90312  0.29065  1.0000
  S   S160      1.0  0.94955  0.95221  0.07697  1.0000
  H   H674      1.0  0.70707  0.96727  0.04925  1.0000
  H   H675      1.0  0.52221  0.91646  0.25895  1.0000
  H   H676      1.0  0.79036  0.55609  0.18527  1.0000
  C   C567      1.0  0.82686  0.54896  0.14946  1.0000
  H   H677      1.0  0.56462  0.82259  0.39198  1.0000
  H   H678      1.0  0.73101  0.91921  0.45955  1.0000
  C   C568      1.0  0.54188  0.96902  0.27972  1.0000
  H   H679      1.0  0.63131  0.57258  0.07302  1.0000
  C   C569      1.0  0.77833  0.92479  0.43849  1.0000
  C   C570      1.0  0.79676  0.92067  0.41105  1.0000
  C   C571      1.0  0.78281  0.90748  0.38443  1.0000
  C   C572      1.0  0.75010  0.89870  0.38455  1.0000
  C   C573      1.0  0.73138  0.90359  0.41164  1.0000
  C   C574      1.0  0.74552  0.91628  0.43848  1.0000
  H   H680      1.0  0.58444  0.79644  0.34539  1.0000
  H   H681      1.0  0.79771  0.90362  0.36382  1.0000
  H   H682      1.0  0.70628  0.89688  0.41228  1.0000
  C   C575      1.0  0.63661  0.96857  0.27199  1.0000
  C   C576      1.0  0.79056  0.55824  0.03355  1.0000
  C   C577      1.0  0.77274  0.58278  0.04031  1.0000
  C   C578      1.0  0.75011  0.58365  0.06548  1.0000
  C   C579      1.0  0.74544  0.56002  0.08445  1.0000
  C   C580      1.0  0.76298  0.53546  0.07740  1.0000
  C   C581      1.0  0.78511  0.53447  0.05197  1.0000
  H   H683      1.0  0.77657  0.60126  0.02607  1.0000
  H   H684      1.0  0.73688  0.60273  0.07060  1.0000
  H   H685      1.0  0.75939  0.51699  0.09172  1.0000
  H   H686      1.0  0.79777  0.51522  0.04648  1.0000
  N   N38       1.0  0.67744  0.63886  0.28306  1.0000
  C   C582      1.0  0.67879  0.61801  0.30899  1.0000
  C   C583      1.0  0.64803  0.63342  0.26389  1.0000
  C   C584      1.0  0.70632  0.63396  0.26261  1.0000
  C   C585      1.0  0.67578  0.66763  0.29613  1.0000
  C   C586      1.0  0.69766  0.68919  0.28697  1.0000
  C   C587      1.0  0.65108  0.67504  0.31813  1.0000
  C   C588      1.0  0.69536  0.71611  0.29984  1.0000
  C   C589      1.0  0.64888  0.70210  0.33065  1.0000
  C   C590      1.0  0.67107  0.72254  0.32162  1.0000
  H   H687      1.0  0.65626  0.61783  0.32346  1.0000
  H   H688      1.0  0.68146  0.59623  0.29970  1.0000
  H   H689      1.0  0.69967  0.62224  0.32498  1.0000
  H   H690      1.0  0.62521  0.63544  0.27778  1.0000
  H   H691      1.0  0.64826  0.61192  0.25374  1.0000
  H   H692      1.0  0.64637  0.64836  0.24387  1.0000
  H   H693      1.0  0.72935  0.63835  0.27542  1.0000
  H   H694      1.0  0.70770  0.61184  0.25432  1.0000
  H   H695      1.0  0.70544  0.64713  0.24091  1.0000
  H   H696      1.0  0.71619  0.68614  0.26921  1.0000
  H   H697      1.0  0.63285  0.66011  0.32532  1.0000
  H   H698      1.0  0.71170  0.73246  0.29194  1.0000
  H   H699      1.0  0.62947  0.70754  0.34690  1.0000
  H   H700      1.0  0.66873  0.74376  0.33058  1.0000
  H   H701      1.0  0.78909  0.94205  0.01983  1.0000
  H   H702      1.0  0.94435  0.50203  0.30501  1.0000
  C   C591      1.0  0.77169  0.93957  0.29308  1.0000
  N   N39       1.0  0.73752  0.94646  0.28483  1.0000
  C   C592      1.0  0.63855  0.97105  0.21511  1.0000
  H   H703      1.0  0.67647  0.52236  0.08747  1.0000
  H   H704      1.0  0.59764  0.53886  0.04724  1.0000
  C   C593      1.0  0.51568  0.86547  0.34173  1.0000
  H   H705      1.0  0.85512  0.55075  0.05736  1.0000
  Fe  Fe82      1.0  0.91306  0.48912  0.01743  1.0000
  C   C594      1.0  0.73663  0.96965  0.26163  1.0000
  H   H706      1.0  0.61412  0.50929  0.02669  1.0000
  C   C595      1.0  0.89667  0.54351  0.12567  1.0000
  H   H707      1.0  0.69943  0.56971  0.01863  1.0000
  C   C596      1.0  0.55706  0.51296  0.23415  1.0000
  H   H708      1.0  0.90425  0.56569  0.12880  1.0000
  C   C597      1.0  0.53844  0.77657  0.33668  1.0000
  S   S161      1.0  0.90929  0.52809  0.98724  1.0000
  H   H709      1.0  0.55460  0.53227  0.27974  1.0000
  H   H710      1.0  0.51242  0.59059  0.06011  1.0000
  C   C598      1.0  0.72118  0.96729  0.23171  1.0000
  H   H711      1.0  0.51104  0.89474  0.41473  1.0000
  H   H712      1.0  0.83486  0.50926  0.08961  1.0000
  C   C599      1.0  0.55270  0.96682  0.24797  1.0000
  H   H713      1.0  0.78425  0.95706  0.30527  1.0000
  N   N40       1.0  0.86735  0.54152  0.10558  1.0000
  H   H714      1.0  0.97234  0.54666  0.36190  1.0000
  H   H715      1.0  0.73414  0.91250  0.25124  1.0000
  H   H716      1.0  0.71899  0.93764  0.33148  1.0000
  C   C600      1.0  0.51158  0.92538  0.28092  1.0000
  C   C601      1.0  0.55944  0.79406  0.35318  1.0000
  C   C602      1.0  0.52057  0.94930  0.32986  1.0000
  C   C603      1.0  0.51576  0.80635  0.38915  1.0000
  C   C604      1.0  0.82789  0.58280  0.10697  1.0000
  H   H717      1.0  0.64793  0.49754  0.07225  1.0000
  H   H718      1.0  0.57697  0.92120  0.28042  1.0000
  C   C605      1.0  0.65209  0.52021  0.07630  1.0000
  S   S162      1.0  0.86795  0.97110  0.03296  1.0000
  C   C606      1.0  0.72751  0.51075  0.98406  1.0000
  C   C607      1.0  0.72218  0.92034  0.27311  1.0000
  C   C608      1.0  0.61816  0.53184  0.03181  1.0000
  C   C609      1.0  0.99171  0.95087  0.12773  1.0000
  H   H719      1.0  0.69579  0.92334  0.26854  1.0000
  C   C610      1.0  0.67660  0.52850  0.02503  1.0000
  C   C611      1.0  0.50605  0.77372  0.34639  1.0000
  H   H720      1.0  0.90554  0.49202  0.34630  1.0000
  H   H721      1.0  0.63359  0.52696  0.09396  1.0000
  C   C612      1.0  0.56549  0.92772  0.30307  1.0000
  S   S163      1.0  0.85552  0.50319  0.45261  1.0000
  H   H722      1.0  0.96409  0.98169  0.46643  1.0000
  C   C613      1.0  0.97951  0.96705  0.10258  1.0000
  H   H723      1.0  0.82205  0.92686  0.41066  1.0000
  H   H724      1.0  0.67442  0.57229  0.06806  1.0000
  C   C614      1.0  0.98396  0.49791  0.11482  1.0000
  N   N41       1.0  0.65012  0.53696  0.04689  1.0000
  H   H725      1.0  0.77304  0.92138  0.30955  1.0000
  H   H726      1.0  0.96468  0.93113  0.46168  1.0000
  Fe  Fe83      1.0  0.91043  0.50257  0.45592  1.0000
  S   S164      1.0  0.94271  0.49613  0.06333  1.0000
  N   N42       1.0  0.53485  0.94347  0.29825  1.0000
  C   C615      1.0  0.98142  0.52540  0.36296  1.0000
  C   C616      1.0  0.84054  0.55772  0.12031  1.0000
  H   H727      1.0  0.58361  0.94052  0.31612  1.0000
  H   H728      1.0  0.56161  0.53253  0.22198  1.0000
  H   H729      1.0  0.95335  0.98146  0.34751  1.0000
  H   H730      1.0  0.75251  0.94312  0.04186  1.0000
  H   H731      1.0  0.83629  0.59102  0.08469  1.0000
  H   H732      1.0  0.69462  0.96137  0.30865  1.0000
  H   H733      1.0  0.50393  0.90703  0.29525  1.0000
  C   C617      1.0  0.63735  0.50253  0.21322  1.0000
  C   C618      1.0  0.77102  0.95671  0.03060  1.0000
  C   C619      1.0  0.67981  0.50011  0.01534  1.0000
  H   H734      1.0  0.51452  0.92963  0.34267  1.0000
  C   C620      1.0  0.55698  0.48786  0.21740  1.0000
  C   C621      1.0  0.51086  0.60876  0.13760  1.0000
  H   H735      1.0  0.91747  0.53189  0.11496  1.0000
  H   H736      1.0  0.89264  0.53445  0.14949  1.0000
  H   H737      1.0  0.64799  0.58103  0.03541  1.0000
  H   H738      1.0  0.54656  0.48832  0.30812  1.0000
  S   S165      1.0  0.92199  0.94385  0.98714  1.0000
  C   C622      1.0  0.69966  0.54774  0.01264  1.0000
  H   H739      1.0  0.66301  0.48431  0.02342  1.0000
  H   H740      1.0  0.88592  0.57331  0.07400  1.0000
  H   H741      1.0  0.78605  0.93407  0.27164  1.0000
  C   C623      1.0  0.80282  0.59773  0.12177  1.0000
  C   C624      1.0  0.96967  0.50734  0.38665  1.0000
  H   H742      1.0  0.55689  0.94665  0.23701  1.0000
  C   C625      1.0  0.85818  0.51156  0.10258  1.0000
  H   H743      1.0  0.53795  0.96057  0.34544  1.0000
  H   H744      1.0  0.56145  0.48810  0.19217  1.0000
  H   H745      1.0  0.89561  0.53852  0.06252  1.0000
  S   S166      1.0  0.79535  0.93902  0.47383  1.0000
  H   H746      1.0  0.61616  0.54341  0.00911  1.0000
  H   H747      1.0  0.73204  0.97283  0.32614  1.0000
  C   C626      1.0  0.80133  0.56375  0.16369  1.0000
  H   H748      1.0  0.70870  0.94853  0.22425  1.0000
  H   H749      1.0  0.71629  0.94886  0.99656  1.0000
  Fe  Fe84      1.0  0.86810  0.95159  0.98461  1.0000
  H   H750      1.0  0.83553  0.53041  0.16132  1.0000
  C   C627      1.0  0.70503  0.49143  0.99533  1.0000
  H   H751      1.0  0.78364  0.96851  0.04959  1.0000
  C   C628      1.0  0.73680  0.95962  0.98454  1.0000
  C   C629      1.0  0.50258  0.59635  0.08292  1.0000
  N   N43       1.0  0.75685  0.97609  0.00686  1.0000
  H   H752      1.0  0.87703  0.49927  0.08960  1.0000
  S   S167      1.0  0.85840  0.48458  0.02231  1.0000
  H   H753      1.0  0.85545  0.50098  0.12569  1.0000
  H   H754      1.0  0.80070  0.97198  0.97900  1.0000
  C   C630      1.0  0.97556  0.48328  0.08705  1.0000
  H   H755      1.0  0.95478  0.97965  0.18423  1.0000
  Fe  Fe85      1.0  0.85494  0.51907  0.50292  1.0000
  H   H756      1.0  0.90240  0.86905  0.89795  1.0000
  S   S168      1.0  0.82050  0.55465  0.51819  1.0000
  C   C631      1.0  0.50418  0.93628  0.92504  1.0000
  C   C632      1.0  0.57287  0.78663  0.79225  1.0000
  H   H757      1.0  0.55474  0.92413  0.92807  1.0000
  H   H758      1.0  0.56131  0.70524  0.60947  1.0000
  H   H759      1.0  0.68007  0.53232  0.71065  1.0000
  C   C633      1.0  0.88908  0.93913  0.90019  1.0000
  H   H760      1.0  0.93744  0.56017  0.55890  1.0000
  H   H761      1.0  0.57770  0.73374  0.81104  1.0000
  S   S169      1.0  0.90969  0.52285  0.50438  1.0000
  Fe  Fe86      1.0  0.68523  0.59676  0.65398  1.0000
  S   S170      1.0  0.67921  0.61228  0.70412  1.0000
  S   S171      1.0  0.73667  0.58065  0.64216  1.0000
  Fe  Fe87      1.0  0.61160  0.60270  0.64203  1.0000
  S   S172      1.0  0.60067  0.61752  0.69118  1.0000
  S   S173      1.0  0.57405  0.60105  0.60281  1.0000
  Fe  Fe88      1.0  0.64473  0.64509  0.68556  1.0000
  S   S174      1.0  0.64129  0.69294  0.69198  1.0000
  Fe  Fe89      1.0  0.63582  0.58349  0.70583  1.0000
  S   S175      1.0  0.62995  0.55556  0.74899  1.0000
  S   S176      1.0  0.65410  0.63175  0.63510  1.0000
  S   S177      1.0  0.64341  0.56652  0.65696  1.0000
  Fe  Fe90      1.0  0.68696  0.88634  0.84042  1.0000
  S   S178      1.0  0.68923  0.87116  0.78997  1.0000
  S   S179      1.0  0.72959  0.91346  0.85758  1.0000
  Fe  Fe91      1.0  0.61400  0.87036  0.84534  1.0000
  S   S180      1.0  0.61148  0.85531  0.79517  1.0000
  S   S181      1.0  0.57249  0.86614  0.88074  1.0000
  Fe  Fe92      1.0  0.65924  0.83387  0.80503  1.0000
  S   S182      1.0  0.66910  0.78666  0.79745  1.0000
  Fe  Fe93      1.0  0.64144  0.89377  0.78439  1.0000
  S   S183      1.0  0.63321  0.92125  0.74143  1.0000
  S   S184      1.0  0.66067  0.84743  0.85627  1.0000
  S   S185      1.0  0.64015  0.91033  0.83383  1.0000
  C   C634      1.0  0.53068  0.86925  0.87111  1.0000
  C   C635      1.0  0.52034  0.87838  0.84143  1.0000
  C   C636      1.0  0.72179  0.98045  0.76759  1.0000
  H   H762      1.0  0.53812  0.88337  0.82345  1.0000
  C   C637      1.0  0.98059  0.93082  0.48298  1.0000
  C   C638      1.0  0.64776  0.71836  0.72236  1.0000
  C   C639      1.0  0.65988  0.71133  0.75216  1.0000
  C   C640      1.0  0.66593  0.73249  0.77479  1.0000
  C   C641      1.0  0.65983  0.76093  0.76813  1.0000
  C   C642      1.0  0.64712  0.76790  0.73855  1.0000
  C   C643      1.0  0.64128  0.74677  0.71585  1.0000
  H   H763      1.0  0.66502  0.68966  0.75765  1.0000
  H   H764      1.0  0.67576  0.72677  0.79755  1.0000
  H   H765      1.0  0.64237  0.78961  0.73291  1.0000
  H   H766      1.0  0.63200  0.75256  0.69290  1.0000
  C   C644      1.0  0.62784  0.51856  0.74604  1.0000
  C   C645      1.0  0.63415  0.50217  0.77284  1.0000
  C   C646      1.0  0.72866  0.49753  0.76235  1.0000
  C   C647      1.0  0.62987  0.95816  0.74448  1.0000
  C   C648      1.0  0.88818  0.53336  0.58570  1.0000
  C   C649      1.0  0.62059  0.50520  0.71750  1.0000
  H   H767      1.0  0.64015  0.51230  0.79492  1.0000
  H   H768      1.0  0.63119  0.95980  0.79519  1.0000
  C   C650      1.0  0.96668  0.50409  0.87450  1.0000
  H   H769      1.0  0.61547  0.51755  0.69673  1.0000
  C   C651      1.0  0.53191  0.59987  0.61104  1.0000
  H   H770      1.0  0.90102  0.57567  0.54458  1.0000
  C   C652      1.0  0.62776  0.97423  0.71682  1.0000
  H   H771      1.0  0.77861  0.50540  0.70271  1.0000
  H   H772      1.0  0.53702  0.58936  0.66012  1.0000
  H   H773      1.0  0.95762  0.53646  0.60038  1.0000
  H   H774      1.0  0.56499  0.67385  0.65555  1.0000
  C   C653      1.0  0.96067  0.56067  0.67523  1.0000
  H   H775      1.0  0.81301  0.97009  0.78713  1.0000
  H   H776      1.0  0.56045  0.77203  0.77574  1.0000
  N   N44       1.0  0.89970  0.91264  0.88519  1.0000
  C   C654      1.0  0.50967  0.60470  0.58649  1.0000
  H   H777      1.0  0.72616  0.97323  0.96589  1.0000
  H   H778      1.0  0.51614  0.64896  0.67447  1.0000
  H   H779      1.0  0.87307  0.88884  0.92045  1.0000
  C   C655      1.0  0.80227  0.91731  0.94036  1.0000
  C   C656      1.0  0.79795  0.94012  0.92008  1.0000
  C   C657      1.0  0.77519  0.93862  0.89531  1.0000
  C   C658      1.0  0.75594  0.91462  0.89078  1.0000
  C   C659      1.0  0.75961  0.89211  0.91155  1.0000
  C   C660      1.0  0.78274  0.89345  0.93610  1.0000
  H   H780      1.0  0.81245  0.95878  0.92305  1.0000
  H   H781      1.0  0.77258  0.95613  0.87933  1.0000
  H   H782      1.0  0.74512  0.87345  0.90829  1.0000
  H   H783      1.0  0.78572  0.87570  0.95167  1.0000
  C   C661      1.0  0.79406  0.55868  0.55142  1.0000
  C   C662      1.0  0.79700  0.54226  0.57862  1.0000
  C   C663      1.0  0.77848  0.54870  0.60583  1.0000
  C   C664      1.0  0.75577  0.57086  0.60590  1.0000
  C   C665      1.0  0.75180  0.58650  0.57829  1.0000
  C   C666      1.0  0.77114  0.58067  0.55144  1.0000
  H   H784      1.0  0.81420  0.52511  0.57901  1.0000
  H   H785      1.0  0.78204  0.53654  0.62703  1.0000
  H   H786      1.0  0.73479  0.60380  0.57795  1.0000
  H   H787      1.0  0.76865  0.59357  0.53062  1.0000
  N   N45       1.0  0.72929  0.69622  0.64636  1.0000
  C   C667      1.0  0.72737  0.66952  0.66424  1.0000
  C   C668      1.0  0.70163  0.69668  0.62388  1.0000
  C   C669      1.0  0.76013  0.69588  0.62817  1.0000
  C   C670      1.0  0.72830  0.72147  0.66677  1.0000
  C   C671      1.0  0.72849  0.72010  0.70031  1.0000
  C   C672      1.0  0.72780  0.74863  0.65313  1.0000
  C   C673      1.0  0.72782  0.74442  0.71875  1.0000
  C   C674      1.0  0.72661  0.77278  0.67184  1.0000
  C   C675      1.0  0.72649  0.77065  0.70460  1.0000
  H   H788      1.0  0.70457  0.66853  0.67842  1.0000
  H   H789      1.0  0.72733  0.65088  0.64834  1.0000
  H   H790      1.0  0.74849  0.66677  0.68032  1.0000
  H   H791      1.0  0.67804  0.69879  0.63664  1.0000
  H   H792      1.0  0.70043  0.67716  0.60953  1.0000
  H   H793      1.0  0.70307  0.71423  0.60682  1.0000
  H   H794      1.0  0.78152  0.69629  0.64426  1.0000
  H   H795      1.0  0.76221  0.67676  0.61315  1.0000
  H   H796      1.0  0.76223  0.71419  0.61214  1.0000
  H   H797      1.0  0.72829  0.70054  0.71301  1.0000
  H   H798      1.0  0.72806  0.75142  0.62785  1.0000
  H   H799      1.0  0.72734  0.74294  0.74429  1.0000
  H   H800      1.0  0.72551  0.79328  0.66093  1.0000
  H   H801      1.0  0.72493  0.78933  0.71915  1.0000
  H   H802      1.0  0.92387  0.58510  0.69848  1.0000
  H   H803      1.0  0.56196  0.80773  0.78894  1.0000
  C   C676      1.0  0.51748  0.94666  0.86155  1.0000
  H   H804      1.0  0.71758  0.96215  0.53073  1.0000
  H   H805      1.0  0.95010  0.91886  0.89795  1.0000
  H   H806      1.0  0.50965  0.71189  0.58193  1.0000
  H   H807      1.0  0.90922  0.51971  0.57970  1.0000
  S   S186      1.0  0.83202  0.91731  0.97083  1.0000
  H   H808      1.0  0.76655  0.53909  0.68763  1.0000
  C   C677      1.0  0.72229  0.49188  0.73000  1.0000
  N   N46       1.0  0.89832  0.56236  0.59325  1.0000
  C   C678      1.0  0.93096  0.57474  0.67673  1.0000
  H   H809      1.0  0.96369  0.93055  0.50361  1.0000
  H   H810      1.0  0.97661  0.56007  0.69559  1.0000
  C   C679      1.0  0.96758  0.96789  0.58861  1.0000
  H   H811      1.0  0.57845  0.81864  0.84299  1.0000
  H   H812      1.0  0.71023  0.55563  0.69603  1.0000
  H   H813      1.0  0.83483  0.89848  0.88591  1.0000
  H   H814      1.0  0.76814  0.53359  0.72910  1.0000
  C   C680      1.0  0.52012  0.59334  0.64110  1.0000
  H   H815      1.0  0.72376  0.52167  0.65573  1.0000
  C   C681      1.0  0.50724  0.86297  0.89421  1.0000
  C   C682      1.0  0.86800  0.90429  0.80077  1.0000
  H   H816      1.0  0.87421  0.60172  0.60259  1.0000
  C   C683      1.0  0.86836  0.57956  0.59693  1.0000
  H   H817      1.0  0.92657  0.59492  0.57140  1.0000
  H   H818      1.0  0.61409  0.75190  0.82076  1.0000
  H   H819      1.0  0.87678  0.90598  0.77670  1.0000
  H   H820      1.0  0.51503  0.85572  0.91715  1.0000
  H   H821      1.0  0.94396  0.89673  0.86425  1.0000
  H   H822      1.0  0.93894  0.93452  0.86181  1.0000
  N   N47       1.0  0.72733  0.51388  0.70588  1.0000
  C   C684      1.0  0.53561  0.77509  0.83457  1.0000
  H   H823      1.0  0.99095  0.49689  0.55599  1.0000
  H   H824      1.0  0.58774  0.74130  0.85195  1.0000
  H   H825      1.0  0.53321  0.72991  0.84410  1.0000
  H   H826      1.0  0.90457  0.94443  0.92076  1.0000
  H   H827      1.0  0.77221  0.93637  0.80708  1.0000
  C   C685      1.0  0.54223  0.93753  0.88143  1.0000
  H   H828      1.0  0.79877  0.89018  0.84150  1.0000
  S   S187      1.0  0.96225  0.97708  0.91987  1.0000
  C   C686      1.0  0.99255  0.48947  0.58003  1.0000
  H   H829      1.0  0.96852  0.98129  0.50870  1.0000
  C   C687      1.0  0.73192  0.95758  0.78558  1.0000
  S   S188      1.0  0.85361  0.49733  0.94607  1.0000
  S   S189      1.0  0.93415  0.95596  0.56520  1.0000
  H   H830      1.0  0.81919  0.89367  0.78674  1.0000
  C   C688      1.0  0.58738  0.79691  0.84617  1.0000
  H   H831      1.0  0.51866  0.60960  0.56314  1.0000
  H   H832      1.0  0.73665  0.51796  0.77002  1.0000
  H   H833      1.0  0.69400  0.49819  0.67079  1.0000
  H   H834      1.0  0.86379  0.93786  0.90913  1.0000
  C   C689      1.0  0.54182  0.67693  0.64378  1.0000
  H   H835      1.0  0.59870  0.78838  0.78457  1.0000
  H   H836      1.0  0.85193  0.57092  0.61540  1.0000
  C   C690      1.0  0.76469  0.95395  0.79266  1.0000
  H   H837      1.0  0.61401  0.79755  0.84128  1.0000
  H   H838      1.0  0.96493  0.93247  0.61997  1.0000
  C   C691      1.0  0.58798  0.74963  0.82744  1.0000
  H   H839      1.0  0.88771  0.58661  0.65330  1.0000
  H   H840      1.0  0.91482  0.89286  0.92869  1.0000
  H   H841      1.0  0.91385  0.91471  0.82005  1.0000
  N   N48       1.0  0.57033  0.77675  0.82533  1.0000
  H   H842      1.0  0.87154  0.53269  0.56501  1.0000
  C   C692      1.0  0.91667  0.57380  0.56597  1.0000
  H   H843      1.0  0.62752  0.96383  0.69413  1.0000
  H   H844      1.0  0.89047  0.95701  0.88343  1.0000
  C   C693      1.0  0.96990  0.54716  0.64750  1.0000
  C   C694      1.0  0.88918  0.90911  0.82604  1.0000
  C   C695      1.0  0.70601  0.53819  0.71279  1.0000
  C   C696      1.0  0.87835  0.90681  0.85784  1.0000
  C   C697      1.0  0.53556  0.93221  0.91305  1.0000
  C   C698      1.0  0.93461  0.91566  0.87666  1.0000
  C   C699      1.0  0.51591  0.79956  0.83466  1.0000
  C   C700      1.0  0.53968  0.69457  0.61775  1.0000
  C   C701      1.0  0.82413  0.89531  0.83715  1.0000
  H   H845      1.0  0.52267  0.94995  0.83673  1.0000
  H   H846      1.0  0.71414  0.94271  0.79444  1.0000
  C   C702      1.0  0.91927  0.56206  0.62165  1.0000
  C   C703      1.0  0.52033  0.74962  0.84356  1.0000
  H   H847      1.0  0.99512  0.51205  0.91608  1.0000
  C   C704      1.0  0.76167  0.52333  0.70643  1.0000
  H   H848      1.0  0.87544  0.52344  0.60597  1.0000
  C   C705      1.0  0.71995  0.50454  0.67319  1.0000
  C   C706      1.0  0.89736  0.88981  0.90889  1.0000
  H   H849      1.0  0.58404  0.79157  0.87152  1.0000
  H   H850      1.0  0.56640  0.93358  0.87206  1.0000
  C   C707      1.0  0.96804  0.50094  0.84142  1.0000
  C   C708      1.0  0.83558  0.89737  0.80632  1.0000
  H   H851      1.0  0.70943  0.54689  0.73686  1.0000
  C   C709      1.0  0.97775  0.95162  0.61451  1.0000
  H   H852      1.0  0.75136  0.94304  0.97255  1.0000
  C   C710      1.0  0.84510  0.89998  0.86253  1.0000
  Fe  Fe94      1.0  0.84235  0.96389  0.48217  1.0000
  C   C711      1.0  0.99561  0.50954  0.89071  1.0000
  C   C712      1.0  0.91040  0.57548  0.65044  1.0000
  H   H853      1.0  0.52577  0.81969  0.82811  1.0000
  H   H854      1.0  0.85382  0.57998  0.57475  1.0000
  S   S190      1.0  0.89568  0.95288  0.47854  1.0000
  C   C713      1.0  0.94953  0.54767  0.62115  1.0000
  H   H855      1.0  0.52909  0.49354  0.81059  1.0000
  C   C714      1.0  0.51422  0.66301  0.65447  1.0000
  Fe  Fe95      1.0  0.90312  0.97484  0.52530  1.0000
  S   S191      1.0  0.92832  0.50045  0.89404  1.0000
  S   S192      1.0  0.84902  0.98100  0.53151  1.0000
  Fe  Fe96      1.0  0.90858  0.49888  0.94511  1.0000
  C   C715      1.0  0.78753  0.97304  0.78146  1.0000
  C   C716      1.0  0.62976  0.97183  0.77371  1.0000
  H   H856      1.0  0.73589  0.48683  0.66579  1.0000
  C   C717      1.0  0.50998  0.69820  0.60218  1.0000
  H   H857      1.0  0.74738  0.50394  0.96898  1.0000
  C   C718      1.0  0.50562  0.49880  0.53520  1.0000
  C   C719      1.0  0.98211  0.98084  0.48597  1.0000
  H   H858      1.0  0.52283  0.50806  0.55134  1.0000
  H   H859      1.0  0.50022  0.93162  0.94967  1.0000
  C   C720      1.0  0.99776  0.50317  0.82477  1.0000
  H   H860      1.0  0.99301  0.53611  0.64648  1.0000
  H   H861      1.0  0.99452  0.91082  0.48234  1.0000
  H   H862      1.0  0.94591  0.49710  0.82844  1.0000
  H   H863      1.0  0.99823  0.50098  0.79936  1.0000
  H   H864      1.0  0.69601  0.98242  0.76316  1.0000
