data_image0
_chemical_formula_structural       C3H3CNCHSCH2C3HCHSC2SCH8CHCH2C3SC2HCHFeSHFeH2SCHCHC2H4SCFeS2H2FeS2FeS2FeSFeS3C6H4SC2H2C5H2NH2C2HFeC3HC2H2FeH2NFeCSHNH3C2H4SH2CH2SC3HCHCH2C4H6CH5SCH2C4H3CHCHCHCHCH3CH2CHCH2FeS2FeS2FeS2FeS2FeCFeS3C6H4C3H2CHC3H8CHC3H3CHCHNC8H12CH3CNFeC2H2C2HCNHC2H5CHCH2C3HC2H3CHN2SFeSFeS4HC7H4C2H2C2H4CSC2H9CHCHCH2CH3C3HCH4C2SCH5FeC2FeH3C2FeNHC5SC2H4C6HNHSCH2CSH2CH3C3H2FeHCH3C2HSHFeCH3CHC2H2CH3CH4C6SFeSC3HC2H3CHC2HCH2C2H2CH3CHCH2C2H2SC3HCHCH5CHCH3CN2HC4HS2FeS2FeS2FeSFeS3H2SCH2C3H2C6H4C6H4C2H3CH4CH2NHNC9H14SC2SNHNHC5HC3H2CH3SCHC2HCHCH2FeCH2CFeH2CHCH2CH2CH2C4H2CFeCSCHNS2CHC2FeS2FeS2FeHFeHS2HC2H4FeCHNH2C3HC6H2C2H4CHSH2CH3C3H4CH3SCHCH2CFeHCHCH3C3HCHC2HCHCHCH4CNH3CHCSHCH3FeH3FeHSC2FeCHFeS2FeS2FeS2FeSFeS3C5H5C2HC2H2C6H3C2H2C3H2CH2C3H8SN2C9H8S2C4FeH3C2H3CNH2C4HCHCHFeSH5CHCH3CHNSCH6CH3CH3CSHNC6HCHC5SC2H2SH5SCHFeHSH2CFeS2FeS2FeSFeS3FeHSC2H3NSCSHC2H3C6H4CHC6H4C2HSHCNHCHC3HCHC3H3S2H3CH4C3H2CH4CHCHC2HNCH2C4HFeHCH2C2H3FeCSCSCHCSHCH2C3NHCH2SCHC2H3CHC3HCHCSH5NH2FeCHCH2CHS2C2H2FeHC2S3FeSFeSFeS2CNH3CFeH3CH2C6H4CHCHFeCH4NCHC2H3CHCH2C3FeCH2SH2SHSCH2CHSHC4H2SHCHCH2
_chemical_formula_sum              "C480 H576 N32 S128 Fe64"
_cell_length_a       36.5257
_cell_length_b       36.4421
_cell_length_c       47.406
_cell_angle_alpha    89.3059
_cell_angle_beta     90.2532
_cell_angle_gamma    90.998

_space_group_name_H-M_alt    "P 1"
_space_group_IT_number       1

loop_
  _space_group_symop_operation_xyz
  'x, y, z'

loop_
  _atom_site_type_symbol
  _atom_site_label
  _atom_site_symmetry_multiplicity
  _atom_site_fract_x
  _atom_site_fract_y
  _atom_site_fract_z
  _atom_site_occupancy
  C   C1        1.0  0.39907  0.48766  0.28743  1.0000
  C   C2        1.0  0.43255  0.07587  0.01198  1.0000
  C   C3        1.0  0.43287  0.35134  0.03223  1.0000
  H   H1        1.0  0.41432  0.06103  0.28379  1.0000
  H   H2        1.0  0.41983  0.34387  0.05199  1.0000
  H   H3        1.0  0.35993  0.01781  0.27228  1.0000
  C   C4        1.0  0.44132  0.21720  0.00455  1.0000
  N   N1        1.0  0.49239  0.16206  0.16729  1.0000
  C   C5        1.0  0.10014  0.39284  0.00653  1.0000
  H   H4        1.0  0.46376  0.42826  0.02608  1.0000
  S   S1        1.0  0.06759  0.41603  0.02712  1.0000
  C   C6        1.0  0.42639  0.06310  0.23907  1.0000
  H   H5        1.0  0.45685  0.18900  0.04294  1.0000
  H   H6        1.0  0.39967  0.07305  0.23310  1.0000
  C   C7        1.0  0.43450  0.05614  0.26768  1.0000
  C   C8        1.0  0.49462  0.23296  0.03274  1.0000
  C   C9        1.0  0.47136  0.35106  0.03020  1.0000
  H   H7        1.0  0.43854  0.06192  0.03168  1.0000
  C   C10       1.0  0.45221  0.05571  0.21811  1.0000
  H   H8        1.0  0.02057  0.43397  0.10561  1.0000
  S   S2        1.0  0.36290  0.36114  0.01212  1.0000
  C   C11       1.0  0.49508  0.03703  0.25439  1.0000
  C   C12       1.0  0.41114  0.36086  0.00879  1.0000
  S   S3        1.0  0.44022  0.06030  0.18232  1.0000
  C   C13       1.0  0.13732  0.39459  0.01438  1.0000
  H   H9        1.0  0.04505  0.38332  0.07910  1.0000
  H   H10       1.0  0.46694  0.17568  0.20693  1.0000
  H   H11       1.0  0.43965  0.18463  0.17606  1.0000
  H   H12       1.0  0.33170  0.00453  0.30138  1.0000
  H   H13       1.0  0.46752  0.11647  0.14527  1.0000
  H   H14       1.0  0.37478  0.06846  0.01959  1.0000
  H   H15       1.0  0.14555  0.41053  0.03252  1.0000
  H   H16       1.0  0.45919  0.15998  0.12949  1.0000
  C   C14       1.0  0.48031  0.14385  0.14088  1.0000
  H   H17       1.0  0.01066  0.43413  0.17378  1.0000
  C   C15       1.0  0.45978  0.16546  0.18558  1.0000
  H   H18       1.0  0.37317  0.47284  0.24829  1.0000
  H   H19       1.0  0.01473  0.46584  0.14470  1.0000
  C   C16       1.0  0.39546  0.07948  0.00531  1.0000
  C   C17       1.0  0.38830  0.49391  0.25959  1.0000
  C   C18       1.0  0.46373  0.21086  0.02807  1.0000
  S   S4        1.0  0.47936  0.02940  0.31014  1.0000
  C   C19       1.0  0.46445  0.45500  0.03715  1.0000
  C   C20       1.0  0.46868  0.04234  0.27527  1.0000
  H   H20       1.0  0.39190  0.46185  0.29788  1.0000
  C   C21       1.0  0.48687  0.04366  0.22589  1.0000
  H   H21       1.0  0.45359  0.47552  0.02182  1.0000
  Fe  Fe1       1.0  0.00871  0.42716  0.01389  1.0000
  S   S5        1.0  0.47191  0.05578  0.10529  1.0000
  H   H22       1.0  0.44517  0.45185  0.05518  1.0000
  Fe  Fe2       1.0  0.47824  0.03651  0.14997  1.0000
  H   H23       1.0  0.44547  0.13849  0.18891  1.0000
  H   H24       1.0  0.19238  0.37700  0.00553  1.0000
  S   S6        1.0  0.00138  0.49804  0.29475  1.0000
  C   C22       1.0  0.02311  0.37805  0.09405  1.0000
  H   H25       1.0  0.48776  0.34311  0.04824  1.0000
  C   C23       1.0  0.00906  0.40686  0.10963  1.0000
  H   H26       1.0  0.01917  0.32065  0.08456  1.0000
  C   C24       1.0  0.00851  0.34272  0.09709  1.0000
  C   C25       1.0  0.48837  0.36075  0.00473  1.0000
  H   H27       1.0  0.49641  0.07500  0.04405  1.0000
  H   H28       1.0  0.49519  0.03423  0.02319  1.0000
  H   H29       1.0  0.49770  0.43484  0.08596  1.0000
  H   H30       1.0  0.41731  0.19975  0.00202  1.0000
  S   S7        1.0  0.06800  0.37583  0.48452  1.0000
  C   C26       1.0  0.44825  0.14035  0.49886  1.0000
  Fe  Fe3       1.0  0.39038  0.06733  0.39004  1.0000
  S   S8        1.0  0.45146  0.06778  0.38494  1.0000
  S   S9        1.0  0.36050  0.11416  0.41123  1.0000
  H   H31       1.0  0.40821  0.17984  0.51393  1.0000
  H   H32       1.0  0.06287  0.43593  0.60374  1.0000
  Fe  Fe4       1.0  0.33473  0.33388  0.40325  1.0000
  S   S10       1.0  0.31517  0.34099  0.44794  1.0000
  S   S11       1.0  0.34897  0.28355  0.37765  1.0000
  Fe  Fe5       1.0  0.34621  0.41692  0.39400  1.0000
  S   S12       1.0  0.32954  0.42988  0.43808  1.0000
  S   S13       1.0  0.35898  0.45669  0.35818  1.0000
  Fe  Fe6       1.0  0.36278  0.38103  0.45098  1.0000
  S   S14       1.0  0.39849  0.37787  0.49012  1.0000
  Fe  Fe7       1.0  0.28294  0.38937  0.43124  1.0000
  S   S15       1.0  0.22852  0.41751  0.44013  1.0000
  S   S16       1.0  0.38363  0.37171  0.40741  1.0000
  S   S17       1.0  0.29865  0.37868  0.38622  1.0000
  C   C27       1.0  0.35866  0.16135  0.40186  1.0000
  C   C28       1.0  0.37425  0.17532  0.37701  1.0000
  C   C29       1.0  0.37101  0.21283  0.37002  1.0000
  C   C30       1.0  0.35270  0.23685  0.38795  1.0000
  C   C31       1.0  0.33793  0.22309  0.41319  1.0000
  C   C32       1.0  0.34070  0.18546  0.41998  1.0000
  H   H33       1.0  0.38805  0.15709  0.36286  1.0000
  H   H34       1.0  0.38243  0.22323  0.35041  1.0000
  H   H35       1.0  0.32348  0.24120  0.42704  1.0000
  H   H36       1.0  0.32815  0.17483  0.43909  1.0000
  S   S18       1.0  0.38957  0.01677  0.41799  1.0000
  C   C33       1.0  0.46630  0.38646  0.46412  1.0000
  C   C34       1.0  0.44691  0.37852  0.48894  1.0000
  H   H37       1.0  0.23587  0.46717  0.34888  1.0000
  H   H38       1.0  0.45161  0.39179  0.44470  1.0000
  C   C35       1.0  0.11210  0.38727  0.47100  1.0000
  C   C36       1.0  0.15702  0.43160  0.45299  1.0000
  C   C37       1.0  0.18382  0.40438  0.45151  1.0000
  C   C38       1.0  0.17453  0.36845  0.45980  1.0000
  C   C39       1.0  0.13887  0.36004  0.46963  1.0000
  H   H39       1.0  0.19484  0.34725  0.45890  1.0000
  H   H40       1.0  0.13203  0.33225  0.47625  1.0000
  N   N2        1.0  0.42204  0.11290  0.48729  1.0000
  H   H41       1.0  0.43968  0.12243  0.44439  1.0000
  H   H42       1.0  0.06971  0.35700  0.58179  1.0000
  C   C40       1.0  0.20297  0.49927  0.39140  1.0000
  C   C41       1.0  0.09576  0.48927  0.38797  1.0000
  H   H43       1.0  0.42168  0.46518  0.47927  1.0000
  Fe  Fe8       1.0  0.02082  0.41591  0.48601  1.0000
  C   C42       1.0  0.12616  0.39907  0.56008  1.0000
  C   C43       1.0  0.46636  0.37201  0.51399  1.0000
  C   C44       1.0  0.46199  0.19699  0.52482  1.0000
  H   H44       1.0  0.45160  0.36576  0.53324  1.0000
  C   C45       1.0  0.43468  0.09937  0.45958  1.0000
  C   C46       1.0  0.12134  0.42310  0.46247  1.0000
  H   H45       1.0  0.10111  0.44435  0.46347  1.0000
  H   H46       1.0  0.16393  0.45957  0.44700  1.0000
  Fe  Fe9       1.0  0.44141  0.03105  0.34776  1.0000
  H   H47       1.0  0.28205  0.47988  0.35791  1.0000
  H   H48       1.0  0.45703  0.31412  0.40587  1.0000
  N   N3        1.0  0.44489  0.27318  0.43785  1.0000
  Fe  Fe10      1.0  0.45000  0.01595  0.41087  1.0000
  C   C47       1.0  0.10814  0.48940  0.36022  1.0000
  S   S19       1.0  0.46108  0.00267  0.57481  1.0000
  H   H49       1.0  0.48144  0.47884  0.45691  1.0000
  N   N4        1.0  0.08910  0.41095  0.56821  1.0000
  H   H50       1.0  0.26357  0.48230  0.42108  1.0000
  H   H51       1.0  0.06285  0.36732  0.54510  1.0000
  H   H52       1.0  0.40206  0.28251  0.46865  1.0000
  C   C48       1.0  0.44595  0.46913  0.49223  1.0000
  C   C49       1.0  0.25427  0.47453  0.36667  1.0000
  H   H53       1.0  0.45260  0.22115  0.53559  1.0000
  H   H54       1.0  0.09217  0.46573  0.55031  1.0000
  H   H55       1.0  0.38838  0.28930  0.43313  1.0000
  H   H56       1.0  0.36613  0.10662  0.47261  1.0000
  S   S20       1.0  0.37994  0.03472  0.35028  1.0000
  H   H57       1.0  0.41795  0.32248  0.44982  1.0000
  H   H58       1.0  0.42545  0.27912  0.39484  1.0000
  C   C50       1.0  0.47436  0.27689  0.48589  1.0000
  H   H59       1.0  0.04664  0.44887  0.55621  1.0000
  H   H60       1.0  0.45982  0.08276  0.46112  1.0000
  S   S21       1.0  0.49480  0.01257  0.44384  1.0000
  C   C51       1.0  0.38454  0.12725  0.48295  1.0000
  C   C52       1.0  0.08987  0.42488  0.59750  1.0000
  C   C53       1.0  0.06299  0.37937  0.56664  1.0000
  H   H61       1.0  0.38494  0.15193  0.46887  1.0000
  C   C54       1.0  0.47691  0.28146  0.45617  1.0000
  H   H62       1.0  0.41417  0.22534  0.42458  1.0000
  C   C55       1.0  0.45051  0.28422  0.40786  1.0000
  H   H63       1.0  0.00646  0.46225  0.39480  1.0000
  H   H64       1.0  0.40896  0.08999  0.52821  1.0000
  C   C56       1.0  0.47968  0.47673  0.47969  1.0000
  C   C57       1.0  0.41951  0.08153  0.50732  1.0000
  C   C58       1.0  0.14564  0.41458  0.53675  1.0000
  C   C59       1.0  0.14385  0.37093  0.57568  1.0000
  H   H65       1.0  0.11060  0.44744  0.59974  1.0000
  H   H66       1.0  0.44886  0.26889  0.49576  1.0000
  H   H67       1.0  0.20041  0.47382  0.40454  1.0000
  H   H68       1.0  0.40118  0.05923  0.49923  1.0000
  H   H69       1.0  0.18464  0.49538  0.37291  1.0000
  H   H70       1.0  0.13435  0.43557  0.52319  1.0000
  C   C60       1.0  0.47082  0.00447  0.53844  1.0000
  H   H71       1.0  0.42979  0.22338  0.46037  1.0000
  H   H72       1.0  0.07217  0.43121  0.52757  1.0000
  H   H73       1.0  0.47249  0.26827  0.39779  1.0000
  H   H74       1.0  0.41403  0.08073  0.44971  1.0000
  H   H75       1.0  0.01263  0.45163  0.34334  1.0000
  S   S22       1.0  0.03069  0.47646  0.49024  1.0000
  C   C61       1.0  0.43670  0.17287  0.51228  1.0000
  H   H76       1.0  0.03441  0.38760  0.57126  1.0000
  H   H77       1.0  0.46158  0.21749  0.43207  1.0000
  C   C62       1.0  0.41205  0.29260  0.44786  1.0000
  C   C63       1.0  0.43726  0.23311  0.43882  1.0000
  C   C64       1.0  0.18047  0.40242  0.52961  1.0000
  C   C65       1.0  0.07458  0.44055  0.54976  1.0000
  H   H78       1.0  0.44678  0.06945  0.51128  1.0000
  H   H79       1.0  0.09678  0.46438  0.40073  1.0000
  H   H80       1.0  0.37090  0.13372  0.50315  1.0000
  C   C66       1.0  0.00381  0.47801  0.35073  1.0000
  H   H81       1.0  0.09650  0.40312  0.61322  1.0000
  C   C67       1.0  0.48462  0.00929  0.48005  1.0000
  H   H82       1.0  0.22360  0.36488  0.53920  1.0000
  C   C68       1.0  0.17864  0.35888  0.56826  1.0000
  H   H83       1.0  0.11885  0.46443  0.35146  1.0000
  C   C69       1.0  0.44369  0.46481  0.52138  1.0000
  H   H84       1.0  0.19142  0.33700  0.58024  1.0000
  C   C70       1.0  0.19686  0.37455  0.54522  1.0000
  H   H85       1.0  0.19457  0.41417  0.51143  1.0000
  H   H86       1.0  0.13068  0.35770  0.59355  1.0000
  H   H87       1.0  0.25587  0.44930  0.38015  1.0000
  C   C71       1.0  0.48643  0.13341  0.49928  1.0000
  H   H88       1.0  0.47199  0.46429  0.56062  1.0000
  H   H89       1.0  0.41755  0.45756  0.53087  1.0000
  C   C72       1.0  0.47511  0.46840  0.53815  1.0000
  H   H90       1.0  0.49725  0.10831  0.49099  1.0000
  C   C73       1.0  0.49931  0.18980  0.52415  1.0000
  H   H91       1.0  0.21884  0.10348  0.89927  1.0000
  H   H92       1.0  0.44595  0.07948  0.74599  1.0000
  Fe  Fe11      1.0  0.36127  0.05408  0.89322  1.0000
  S   S23       1.0  0.42202  0.06186  0.88885  1.0000
  S   S24       1.0  0.32697  0.09371  0.91804  1.0000
  Fe  Fe12      1.0  0.41415  0.04060  0.84479  1.0000
  S   S25       1.0  0.43752  0.06843  0.80572  1.0000
  S   S26       1.0  0.35290  0.03784  0.84813  1.0000
  Fe  Fe13      1.0  0.31373  0.30980  0.92349  1.0000
  S   S27       1.0  0.29441  0.30492  0.96817  1.0000
  S   S28       1.0  0.33889  0.26564  0.89680  1.0000
  Fe  Fe14      1.0  0.29497  0.39197  0.91962  1.0000
  S   S29       1.0  0.27582  0.39344  0.96460  1.0000
  S   S30       1.0  0.28008  0.43488  0.88689  1.0000
  Fe  Fe15      1.0  0.32547  0.35845  0.97369  1.0000
  C   C74       1.0  0.10042  0.44675  0.91813  1.0000
  Fe  Fe16      1.0  0.24677  0.34024  0.95501  1.0000
  S   S31       1.0  0.18543  0.32776  0.95737  1.0000
  S   S32       1.0  0.34686  0.36167  0.92933  1.0000
  S   S33       1.0  0.26402  0.34016  0.90972  1.0000
  C   C75       1.0  0.33292  0.14143  0.91301  1.0000
  C   C76       1.0  0.35067  0.15583  0.88918  1.0000
  C   C77       1.0  0.35236  0.19402  0.88460  1.0000
  C   C78       1.0  0.33700  0.21803  0.90405  1.0000
  C   C79       1.0  0.32132  0.20371  0.92876  1.0000
  C   C80       1.0  0.31867  0.16548  0.93296  1.0000
  H   H93       1.0  0.36190  0.13750  0.87378  1.0000
  H   H94       1.0  0.36512  0.20493  0.86564  1.0000
  H   H95       1.0  0.31098  0.22198  0.94449  1.0000
  H   H96       1.0  0.30533  0.15441  0.95162  1.0000
  C   C81       1.0  0.38489  0.09565  0.97988  1.0000
  C   C82       1.0  0.42823  0.37044  0.98338  1.0000
  C   C83       1.0  0.42042  0.21810  0.94400  1.0000
  H   H97       1.0  0.39081  0.28878  0.98386  1.0000
  H   H98       1.0  0.41190  0.37837  0.96532  1.0000
  C   C84       1.0  0.20083  0.47658  0.91386  1.0000
  H   H99       1.0  0.22668  0.46789  0.92440  1.0000
  C   C85       1.0  0.15344  0.35405  0.97616  1.0000
  C   C86       1.0  0.11629  0.35238  0.96824  1.0000
  C   C87       1.0  0.08981  0.37201  0.98312  1.0000
  H   H100      1.0  0.10786  0.33564  0.95060  1.0000
  H   H101      1.0  0.35609  0.09726  0.97445  1.0000
  H   H102      1.0  0.04153  0.44354  0.91341  1.0000
  H   H103      1.0  0.44234  0.50196  0.82649  1.0000
  H   H104      1.0  0.26711  0.11179  0.86346  1.0000
  H   H105      1.0  0.44017  0.30865  0.95115  1.0000
  H   H106      1.0  0.20307  0.40565  0.92412  1.0000
  H   H107      1.0  0.16010  0.48385  0.96091  1.0000
  C   C88       1.0  0.41136  0.10880  0.96111  1.0000
  H   H108      1.0  0.44748  0.20633  0.93891  1.0000
  C   C89       1.0  0.47481  0.03262  0.73054  1.0000
  C   C90       1.0  0.45825  0.05356  0.75154  1.0000
  C   C91       1.0  0.45716  0.04095  0.77964  1.0000
  H   H109      1.0  0.15516  0.39546  0.92288  1.0000
  H   H110      1.0  0.06128  0.37029  0.97695  1.0000
  H   H111      1.0  0.14571  0.43674  0.96317  1.0000
  C   C92       1.0  0.46036  0.08841  0.99306  1.0000
  H   H112      1.0  0.34107  0.46851  0.91768  1.0000
  C   C93       1.0  0.06672  0.45733  0.90676  1.0000
  H   H113      1.0  0.40285  0.12040  0.94098  1.0000
  N   N5        1.0  0.20790  0.23076  0.91116  1.0000
  C   C94       1.0  0.23684  0.24505  0.93018  1.0000
  C   C95       1.0  0.19855  0.25993  0.89028  1.0000
  C   C96       1.0  0.17463  0.22321  0.92840  1.0000
  C   C97       1.0  0.22194  0.19791  0.89693  1.0000
  C   C98       1.0  0.25004  0.20148  0.87639  1.0000
  C   C99       1.0  0.21080  0.16157  0.90470  1.0000
  C   C100      1.0  0.26528  0.17074  0.86395  1.0000
  C   C101      1.0  0.22678  0.13100  0.89248  1.0000
  H   H114      1.0  0.37482  0.24196  0.98391  1.0000
  H   H115      1.0  0.24519  0.22378  0.94586  1.0000
  H   H116      1.0  0.26169  0.25403  0.91830  1.0000
  H   H117      1.0  0.22745  0.26910  0.94215  1.0000
  H   H118      1.0  0.22300  0.27157  0.87929  1.0000
  H   H119      1.0  0.18577  0.28390  0.90058  1.0000
  H   H120      1.0  0.17914  0.24930  0.87404  1.0000
  H   H121      1.0  0.18051  0.20507  0.94686  1.0000
  H   H122      1.0  0.16370  0.24887  0.93758  1.0000
  H   H123      1.0  0.15234  0.21057  0.91549  1.0000
  H   H124      1.0  0.26173  0.22796  0.87062  1.0000
  H   H125      1.0  0.19046  0.15594  0.92067  1.0000
  C   C102      1.0  0.16687  0.45563  0.95416  1.0000
  H   H126      1.0  0.17825  0.41229  0.89179  1.0000
  H   H127      1.0  0.19315  0.44786  0.96446  1.0000
  H   H128      1.0  0.40380  0.19669  0.95521  1.0000
  C   C103      1.0  0.43829  0.28155  0.94071  1.0000
  N   N6        1.0  0.16896  0.45348  0.92295  1.0000
  Fe  Fe17      1.0  0.42436  0.00240  0.90173  1.0000
  C   C104      1.0  0.13371  0.46479  0.91018  1.0000
  C   C105      1.0  0.47315  0.00750  0.78670  1.0000
  H   H129      1.0  0.46801  0.11590  0.95225  1.0000
  H   H130      1.0  0.10010  0.42436  0.93331  1.0000
  C   C106      1.0  0.25394  0.13557  0.87217  1.0000
  C   C107      1.0  0.46664  0.37038  0.98138  1.0000
  H   H131      1.0  0.28725  0.17415  0.84878  1.0000
  C   C108      1.0  0.44856  0.10564  0.96763  1.0000
  N   N7        1.0  0.42480  0.25236  0.96043  1.0000
  H   H132      1.0  0.47463  0.04207  0.70882  1.0000
  C   C109      1.0  0.16394  0.37566  0.99909  1.0000
  C   C110      1.0  0.30187  0.47830  0.88453  1.0000
  H   H133      1.0  0.41925  0.28540  0.92244  1.0000
  H   H134      1.0  0.10960  0.48069  0.68200  1.0000
  H   H135      1.0  0.47959  0.37799  0.96161  1.0000
  H   H136      1.0  0.40613  0.22307  0.92357  1.0000
  H   H137      1.0  0.36943  0.26980  0.95302  1.0000
  C   C111      1.0  0.33120  0.48797  0.90213  1.0000
  H   H138      1.0  0.26655  0.49638  0.85075  1.0000
  C   C112      1.0  0.17655  0.41509  0.91511  1.0000
  H   H139      1.0  0.20603  0.47426  0.89080  1.0000
  H   H140      1.0  0.46554  0.27489  0.93191  1.0000
  C   C113      1.0  0.38845  0.26359  0.97078  1.0000
  C   C114      1.0  0.44938  0.24590  0.98486  1.0000
  C   C115      1.0  0.13118  0.49344  0.88961  1.0000
  H   H141      1.0  0.48964  0.29036  0.97659  1.0000
  C   C116      1.0  0.48128  0.26772  0.99015  1.0000
  C   C117      1.0  0.06520  0.48574  0.88690  1.0000
  H   H142      1.0  0.03905  0.49388  0.87813  1.0000
  H   H143      1.0  0.07863  0.50027  0.70698  1.0000
  H   H144      1.0  0.06299  0.49025  0.67246  1.0000
  C   C118      1.0  0.08720  0.50065  0.68442  1.0000
  H   H145      1.0  0.40453  0.49729  0.80238  1.0000
  N   N8        1.0  0.49994  0.08438  0.99908  1.0000
  N   N9        1.0  0.35417  0.95906  0.27880  1.0000
  S   S34       1.0  0.05949  0.66623  0.25950  1.0000
  Fe  Fe18      1.0  0.36777  0.67519  0.26219  1.0000
  S   S35       1.0  0.40654  0.65686  0.22799  1.0000
  Fe  Fe19      1.0  0.28508  0.67812  0.27711  1.0000
  S   S36       1.0  0.23320  0.64864  0.26081  1.0000
  S   S37       1.0  0.38495  0.69966  0.30323  1.0000
  S   S38       1.0  0.32388  0.71608  0.25324  1.0000
  S   S39       1.0  0.32834  0.63525  0.28223  1.0000
  H   H146      1.0  0.20792  0.54514  0.18638  1.0000
  C   C119      1.0  0.38792  0.95782  0.29631  1.0000
  C   C120      1.0  0.10773  0.66043  0.26206  1.0000
  C   C121      1.0  0.12403  0.62714  0.25557  1.0000
  C   C122      1.0  0.16232  0.62387  0.25656  1.0000
  C   C123      1.0  0.18509  0.65384  0.26369  1.0000
  C   C124      1.0  0.16893  0.68692  0.27098  1.0000
  C   C125      1.0  0.13041  0.69015  0.27015  1.0000
  H   H147      1.0  0.10737  0.60396  0.24925  1.0000
  H   H148      1.0  0.17447  0.59810  0.25096  1.0000
  H   H149      1.0  0.18608  0.71030  0.27647  1.0000
  H   H150      1.0  0.11819  0.71607  0.27529  1.0000
  C   C126      1.0  0.45469  0.65953  0.23166  1.0000
  C   C127      1.0  0.47150  0.67433  0.25563  1.0000
  H   H151      1.0  0.12793  0.66466  0.12938  1.0000
  H   H152      1.0  0.17874  0.65676  0.19582  1.0000
  C   C128      1.0  0.43674  0.85847  0.20058  1.0000
  C   C129      1.0  0.47661  0.64647  0.20983  1.0000
  H   H153      1.0  0.45501  0.68477  0.27250  1.0000
  H   H154      1.0  0.06005  0.61580  0.17361  1.0000
  H   H155      1.0  0.08178  0.67895  0.13605  1.0000
  H   H156      1.0  0.46382  0.63476  0.19130  1.0000
  C   C130      1.0  0.22725  0.57347  0.32154  1.0000
  S   S40       1.0  0.36137  0.79865  0.29563  1.0000
  C   C131      1.0  0.47501  0.89849  0.23047  1.0000
  C   C132      1.0  0.48988  0.76953  0.21287  1.0000
  H   H157      1.0  0.32076  0.94202  0.31436  1.0000
  H   H158      1.0  0.14396  0.69923  0.17305  1.0000
  H   H159      1.0  0.40316  0.85863  0.26699  1.0000
  H   H160      1.0  0.29975  0.93484  0.28094  1.0000
  H   H161      1.0  0.04545  0.56205  0.31049  1.0000
  H   H162      1.0  0.38194  0.96245  0.31902  1.0000
  H   H163      1.0  0.38829  0.53231  0.22478  1.0000
  H   H164      1.0  0.41389  0.85120  0.31670  1.0000
  H   H165      1.0  0.47855  0.96938  0.21570  1.0000
  C   C133      1.0  0.18811  0.56661  0.18319  1.0000
  H   H166      1.0  0.43080  0.84668  0.18015  1.0000
  C   C134      1.0  0.07159  0.57768  0.30794  1.0000
  H   H167      1.0  0.06205  0.64007  0.33321  1.0000
  C   C135      1.0  0.07305  0.63974  0.18423  1.0000
  H   H168      1.0  0.40853  0.97927  0.29021  1.0000
  H   H169      1.0  0.48383  0.88783  0.18573  1.0000
  C   C136      1.0  0.39606  0.96359  0.20543  1.0000
  H   H170      1.0  0.22226  0.60835  0.20212  1.0000
  H   H171      1.0  0.41002  0.74358  0.24632  1.0000
  H   H172      1.0  0.33754  0.89161  0.19550  1.0000
  C   C137      1.0  0.47669  0.55698  0.07928  1.0000
  C   C138      1.0  0.35192  0.91366  0.20630  1.0000
  C   C139      1.0  0.49542  0.73565  0.16800  1.0000
  H   H173      1.0  0.09703  0.70822  0.18023  1.0000
  C   C140      1.0  0.24418  0.60530  0.33152  1.0000
  H   H174      1.0  0.24522  0.62994  0.31851  1.0000
  H   H175      1.0  0.49332  0.70878  0.17921  1.0000
  H   H176      1.0  0.40406  0.99256  0.24358  1.0000
  H   H177      1.0  0.40101  0.93064  0.29487  1.0000
  C   C141      1.0  0.42111  0.86552  0.24949  1.0000
  C   C142      1.0  0.41407  0.84995  0.22334  1.0000
  S   S41       1.0  0.04089  0.56556  0.23828  1.0000
  C   C143      1.0  0.45127  0.77921  0.26403  1.0000
  H   H178      1.0  0.07722  0.63193  0.20671  1.0000
  H   H179      1.0  0.21526  0.57370  0.30055  1.0000
  H   H180      1.0  0.11620  0.51998  0.32224  1.0000
  H   H181      1.0  0.10302  0.57864  0.15669  1.0000
  H   H182      1.0  0.39094  0.83115  0.22084  1.0000
  Fe  Fe20      1.0  0.01874  0.62122  0.24604  1.0000
  C   C144      1.0  0.34454  0.92040  0.23472  1.0000
  C   C145      1.0  0.35810  0.83220  0.32224  1.0000
  Fe  Fe21      1.0  0.33942  0.73944  0.29576  1.0000
  H   H183      1.0  0.12363  0.68515  0.20634  1.0000
  H   H184      1.0  0.33402  0.51048  0.31891  1.0000
  H   H185      1.0  0.44215  0.73432  0.20259  1.0000
  C   C146      1.0  0.45508  0.75248  0.21763  1.0000
  C   C147      1.0  0.19624  0.60223  0.19185  1.0000
  Fe  Fe22      1.0  0.34208  0.66266  0.32287  1.0000
  N   N10       1.0  0.10815  0.65146  0.17100  1.0000
  H   H186      1.0  0.14804  0.53090  0.16385  1.0000
  C   C148      1.0  0.11885  0.68752  0.18316  1.0000
  C   C149      1.0  0.10194  0.65696  0.14032  1.0000
  C   C150      1.0  0.13592  0.62278  0.17545  1.0000
  C   C151      1.0  0.17070  0.63004  0.18806  1.0000
  C   C152      1.0  0.12872  0.58624  0.16664  1.0000
  S   S42       1.0  0.43219  0.97731  0.06283  1.0000
  C   C153      1.0  0.15443  0.55864  0.17058  1.0000
  C   C154      1.0  0.48485  0.79706  0.25975  1.0000
  H   H187      1.0  0.05246  0.66191  0.18365  1.0000
  H   H188      1.0  0.46792  0.74306  0.15979  1.0000
  H   H189      1.0  0.09083  0.63170  0.13014  1.0000
  H   H190      1.0  0.33611  0.90524  0.29315  1.0000
  C   C155      1.0  0.42487  0.61268  0.30454  1.0000
  C   C156      1.0  0.37747  0.93533  0.19165  1.0000
  C   C157      1.0  0.44192  0.97623  0.02645  1.0000
  C   C158      1.0  0.43620  0.75745  0.24287  1.0000
  C   C159      1.0  0.01751  0.52828  0.10518  1.0000
  C   C160      1.0  0.32652  0.93409  0.29218  1.0000
  H   H191      1.0  0.06541  0.60257  0.29512  1.0000
  N   N11       1.0  0.44706  0.57901  0.30466  1.0000
  H   H192      1.0  0.38275  0.93040  0.16953  1.0000
  S   S43       1.0  0.47656  0.97712  0.13837  1.0000
  C   C161      1.0  0.36267  0.94947  0.24928  1.0000
  H   H193      1.0  0.45269  0.57344  0.08269  1.0000
  H   H194      1.0  0.31486  0.99930  0.26589  1.0000
  C   C162      1.0  0.47640  0.96635  0.01662  1.0000
  S   S44       1.0  0.02872  0.54447  0.16062  1.0000
  H   H195      1.0  0.43677  0.78228  0.28375  1.0000
  H   H196      1.0  0.39763  0.60728  0.31422  1.0000
  C   C163      1.0  0.39678  0.52735  0.24642  1.0000
  H   H197      1.0  0.42179  0.58019  0.24990  1.0000
  H   H198      1.0  0.32444  0.90254  0.24473  1.0000
  H   H199      1.0  0.47827  0.59674  0.26806  1.0000
  C   C164      1.0  0.41594  0.55469  0.26108  1.0000
  C   C165      1.0  0.41822  0.51484  0.30230  1.0000
  C   C166      1.0  0.38910  0.97034  0.23385  1.0000
  H   H200      1.0  0.41545  0.98090  0.19385  1.0000
  H   H201      1.0  0.08985  0.56106  0.29473  1.0000
  Fe  Fe23      1.0  0.47579  0.99691  0.09329  1.0000
  H   H202      1.0  0.43834  0.63527  0.31658  1.0000
  C   C167      1.0  0.45116  0.88934  0.25324  1.0000
  H   H203      1.0  0.49735  0.95798  0.03144  1.0000
  H   H204      1.0  0.41990  0.62361  0.28297  1.0000
  H   H205      1.0  0.12452  0.62830  0.31823  1.0000
  C   C168      1.0  0.47329  0.52315  0.06573  1.0000
  C   C169      1.0  0.42707  0.54941  0.28957  1.0000
  H   H206      1.0  0.33171  0.57788  0.32028  1.0000
  S   S45       1.0  0.29725  0.70430  0.31929  1.0000
  H   H207      1.0  0.30162  0.82080  0.33226  1.0000
  Fe  Fe24      1.0  0.00350  0.56505  0.20070  1.0000
  C   C170      1.0  0.48228  0.58716  0.29021  1.0000
  H   H208      1.0  0.42493  0.50820  0.32396  1.0000
  H   H209      1.0  0.21256  0.51764  0.32973  1.0000
  H   H210      1.0  0.48419  0.80917  0.16577  1.0000
  C   C171      1.0  0.00270  0.54419  0.12927  1.0000
  H   H211      1.0  0.45521  0.89997  0.27419  1.0000
  C   C172      1.0  0.41471  0.98620  0.00701  1.0000
  C   C173      1.0  0.33957  0.99678  0.27957  1.0000
  H   H212      1.0  0.38784  0.99338  0.01446  1.0000
  H   H213      1.0  0.14299  0.58323  0.31992  1.0000
  C   C174      1.0  0.46688  0.88222  0.20402  1.0000
  H   H214      1.0  0.49827  0.60930  0.30093  1.0000
  H   H215      1.0  0.00836  0.51291  0.06185  1.0000
  H   H216      1.0  0.49632  0.81411  0.27625  1.0000
  C   C175      1.0  0.38800  0.85635  0.32674  1.0000
  H   H217      1.0  0.49962  0.56238  0.28947  1.0000
  H   H218      1.0  0.04487  0.51736  0.10589  1.0000
  H   H219      1.0  0.48661  0.95628  0.26754  1.0000
  H   H220      1.0  0.44602  0.51498  0.05923  1.0000
  C   C176      1.0  0.12516  0.60259  0.33120  1.0000
  C   C177      1.0  0.45534  0.56976  0.33461  1.0000
  C   C178      1.0  0.45710  0.89180  0.46621  1.0000
  C   C179      1.0  0.08113  0.52098  0.39911  1.0000
  C   C180      1.0  0.26006  0.57352  0.37487  1.0000
  C   C181      1.0  0.06500  0.61620  0.34799  1.0000
  S   S46       1.0  0.35468  0.63037  0.36297  1.0000
  Fe  Fe25      1.0  0.38444  0.98423  0.37803  1.0000
  S   S47       1.0  0.44505  0.97899  0.37344  1.0000
  C   C182      1.0  0.14541  0.54759  0.63548  1.0000
  C   C183      1.0  0.32144  0.87018  0.35267  1.0000
  C   C184      1.0  0.36512  0.52310  0.38581  1.0000
  H   H221      1.0  0.47252  0.85641  0.53134  1.0000
  C   C185      1.0  0.35299  0.58187  0.36250  1.0000
  C   C186      1.0  0.36431  0.56173  0.38636  1.0000
  H   H222      1.0  0.46977  0.59283  0.34544  1.0000
  H   H223      1.0  0.37319  0.57610  0.40509  1.0000
  H   H224      1.0  0.13397  0.54033  0.56437  1.0000
  C   C187      1.0  0.09240  0.52848  0.59529  1.0000
  H   H225      1.0  0.27403  0.57553  0.39492  1.0000
  C   C188      1.0  0.35093  0.89502  0.35629  1.0000
  C   C189      1.0  0.08373  0.52723  0.62395  1.0000
  H   H226      1.0  0.43756  0.88974  0.44897  1.0000
  C   C190      1.0  0.22634  0.54152  0.33825  1.0000
  H   H227      1.0  0.49025  0.93284  0.44520  1.0000
  H   H228      1.0  0.25409  0.52973  0.42363  1.0000
  C   C191      1.0  0.10971  0.53742  0.64495  1.0000
  C   C192      1.0  0.07823  0.55279  0.38247  1.0000
  H   H229      1.0  0.40768  0.90588  0.34698  1.0000
  H   H230      1.0  0.18123  0.55655  0.59990  1.0000
  C   C193      1.0  0.12750  0.53888  0.58666  1.0000
  H   H231      1.0  0.42912  0.85169  0.49213  1.0000
  H   H232      1.0  0.07728  0.62752  0.36763  1.0000
  H   H233      1.0  0.29532  0.87577  0.36228  1.0000
  C   C194      1.0  0.34139  0.56303  0.33849  1.0000
  H   H234      1.0  0.19220  0.52234  0.40391  1.0000
  C   C195      1.0  0.48686  0.91603  0.46409  1.0000
  H   H235      1.0  0.41758  0.98340  0.52632  1.0000
  H   H236      1.0  0.03679  0.60567  0.35260  1.0000
  C   C196      1.0  0.47733  0.87352  0.51291  1.0000
  C   C197      1.0  0.09026  0.55377  0.35395  1.0000
  H   H237      1.0  0.13877  0.60930  0.35160  1.0000
  H   H238      1.0  0.16697  0.55588  0.64983  1.0000
  S   S48       1.0  0.34349  0.93669  0.37418  1.0000
  C   C198      1.0  0.26411  0.50863  0.40893  1.0000
  C   C199      1.0  0.24319  0.54040  0.36534  1.0000
  C   C200      1.0  0.45063  0.99623  0.48971  1.0000
  H   H239      1.0  0.49308  0.88960  0.56834  1.0000
  C   C201      1.0  0.15401  0.54812  0.60672  1.0000
  H   H240      1.0  0.42977  0.98776  0.47476  1.0000
  C   C202      1.0  0.45238  0.87049  0.49055  1.0000
  H   H241      1.0  0.06542  0.57581  0.39232  1.0000
  H   H242      1.0  0.05607  0.51920  0.62955  1.0000
  H   H243      1.0  0.07045  0.52050  0.42047  1.0000
  H   H244      1.0  0.37475  0.50778  0.40399  1.0000
  H   H245      1.0  0.42974  0.56411  0.34676  1.0000
  C   C203      1.0  0.38456  0.88740  0.34388  1.0000
  H   H246      1.0  0.07137  0.52223  0.57971  1.0000
  C   C204      1.0  0.10604  0.52126  0.34355  1.0000
  H   H247      1.0  0.49798  0.93698  0.55835  1.0000
  H   H248      1.0  0.29333  0.51458  0.40385  1.0000
  H   H249      1.0  0.04297  0.55391  0.66680  1.0000
  C   C205      1.0  0.44386  0.99361  0.51889  1.0000
  N   N12       1.0  0.24142  0.50646  0.38287  1.0000
  N   N13       1.0  0.08785  0.58705  0.33576  1.0000
  H   H250      1.0  0.27407  0.63010  0.36558  1.0000
  C   C206      1.0  0.26031  0.60537  0.35814  1.0000
  C   C207      1.0  0.32499  0.83885  0.33579  1.0000
  C   C208      1.0  0.35467  0.50454  0.36132  1.0000
  C   C209      1.0  0.34245  0.52464  0.33785  1.0000
  H   H251      1.0  0.47337  0.54554  0.33644  1.0000
  S   S49       1.0  0.42221  0.98171  0.85709  1.0000
  S   S50       1.0  0.08510  0.62923  0.72761  1.0000
  Fe  Fe26      1.0  0.34837  0.66694  0.78646  1.0000
  S   S51       1.0  0.37707  0.67428  0.82774  1.0000
  S   S52       1.0  0.38191  0.66294  0.74630  1.0000
  Fe  Fe27      1.0  0.27245  0.66925  0.81347  1.0000
  S   S53       1.0  0.29717  0.67734  0.85671  1.0000
  S   S54       1.0  0.21021  0.66625  0.81762  1.0000
  Fe  Fe28      1.0  0.33577  0.71755  0.83578  1.0000
  S   S55       1.0  0.35850  0.76736  0.85862  1.0000
  Fe  Fe29      1.0  0.33598  0.63354  0.84483  1.0000
  S   S56       1.0  0.35679  0.59185  0.87657  1.0000
  S   S57       1.0  0.30885  0.71307  0.79325  1.0000
  S   S58       1.0  0.30953  0.62262  0.80281  1.0000
  H   H252      1.0  0.34216  0.91026  0.78541  1.0000
  H   H253      1.0  0.39752  0.51471  0.83727  1.0000
  S   S59       1.0  0.32512  0.93661  0.84210  1.0000
  C   C210      1.0  0.12853  0.55084  0.69435  1.0000
  H   H254      1.0  0.46592  0.56294  0.83946  1.0000
  H   H255      1.0  0.15258  0.53260  0.69399  1.0000
  C   C211      1.0  0.33503  0.54845  0.87949  1.0000
  C   C212      1.0  0.34781  0.52296  0.89952  1.0000
  C   C213      1.0  0.30571  0.53875  0.86191  1.0000
  H   H256      1.0  0.37048  0.53040  0.91318  1.0000
  H   H257      1.0  0.29560  0.55824  0.84649  1.0000
  C   C214      1.0  0.34974  0.81428  0.85256  1.0000
  C   C215      1.0  0.36859  0.84041  0.86890  1.0000
  C   C216      1.0  0.36149  0.87802  0.86574  1.0000
  C   C217      1.0  0.33486  0.88968  0.84656  1.0000
  C   C218      1.0  0.31610  0.86361  0.83005  1.0000
  C   C219      1.0  0.32409  0.82607  0.83259  1.0000
  H   H258      1.0  0.38864  0.83149  0.88430  1.0000
  H   H259      1.0  0.37617  0.89789  0.87850  1.0000
  H   H260      1.0  0.29558  0.87251  0.81506  1.0000
  H   H261      1.0  0.31044  0.80638  0.81920  1.0000
  C   C220      1.0  0.12012  0.63729  0.75295  1.0000
  C   C221      1.0  0.11280  0.63684  0.78187  1.0000
  C   C222      1.0  0.14088  0.64527  0.80133  1.0000
  C   C223      1.0  0.17671  0.65349  0.79218  1.0000
  C   C224      1.0  0.18428  0.65307  0.76328  1.0000
  C   C225      1.0  0.15599  0.64531  0.74376  1.0000
  H   H262      1.0  0.08531  0.63082  0.78922  1.0000
  H   H263      1.0  0.13473  0.64560  0.82362  1.0000
  H   H264      1.0  0.21164  0.65963  0.75593  1.0000
  H   H265      1.0  0.16186  0.64596  0.72142  1.0000
  C   C226      1.0  0.43008  0.65819  0.74796  1.0000
  C   C227      1.0  0.44798  0.65278  0.77373  1.0000
  H   H266      1.0  0.42266  0.81533  0.71320  1.0000
  H   H267      1.0  0.39479  0.93792  0.72237  1.0000
  H   H268      1.0  0.40944  0.96355  0.79448  1.0000
  C   C228      1.0  0.45074  0.65842  0.72299  1.0000
  H   H269      1.0  0.43270  0.65296  0.79301  1.0000
  H   H270      1.0  0.39017  0.59778  0.79367  1.0000
  H   H271      1.0  0.39366  0.79851  0.79998  1.0000
  H   H272      1.0  0.43716  0.66265  0.70292  1.0000
  C   C229      1.0  0.49118  0.99937  0.73773  1.0000
  H   H273      1.0  0.38650  0.86413  0.80579  1.0000
  H   H274      1.0  0.34074  0.91649  0.74792  1.0000
  N   N14       1.0  0.42345  0.55290  0.80814  1.0000
  H   H275      1.0  0.05958  0.56461  0.70085  1.0000
  N   N15       1.0  0.22267  0.76824  0.85934  1.0000
  C   C230      1.0  0.18521  0.76691  0.84694  1.0000
  C   C231      1.0  0.24885  0.76053  0.83654  1.0000
  C   C232      1.0  0.22455  0.73840  0.88091  1.0000
  C   C233      1.0  0.23281  0.80408  0.87186  1.0000
  C   C234      1.0  0.21161  0.83611  0.86772  1.0000
  C   C235      1.0  0.26633  0.80843  0.88686  1.0000
  C   C236      1.0  0.22364  0.87023  0.87781  1.0000
  C   C237      1.0  0.27787  0.84256  0.89706  1.0000
  C   C238      1.0  0.25678  0.87347  0.89230  1.0000
  H   H276      1.0  0.18264  0.78594  0.82852  1.0000
  H   H277      1.0  0.17820  0.73905  0.83866  1.0000
  H   H278      1.0  0.16414  0.77345  0.86290  1.0000
  H   H279      1.0  0.24887  0.78266  0.82017  1.0000
  H   H280      1.0  0.24190  0.73441  0.82579  1.0000
  H   H281      1.0  0.27733  0.75805  0.84467  1.0000
  H   H282      1.0  0.20681  0.74426  0.89928  1.0000
  H   H283      1.0  0.21564  0.71138  0.87211  1.0000
  H   H284      1.0  0.25279  0.73410  0.88893  1.0000
  H   H285      1.0  0.18603  0.83574  0.85625  1.0000
  H   H286      1.0  0.28489  0.78585  0.88974  1.0000
  H   H287      1.0  0.20761  0.89454  0.87389  1.0000
  H   H288      1.0  0.30412  0.84533  0.90772  1.0000
  H   H289      1.0  0.26662  0.90014  0.89929  1.0000
  S   S60       1.0  0.36386  0.99547  0.90879  1.0000
  C   C239      1.0  0.38726  0.56896  0.80156  1.0000
  C   C240      1.0  0.48879  0.65239  0.72383  1.0000
  S   S61       1.0  0.46852  0.98408  0.93215  1.0000
  N   N16       1.0  0.09894  0.53799  0.67501  1.0000
  H   H290      1.0  0.40766  0.97250  0.74669  1.0000
  N   N17       1.0  0.39482  0.91963  0.76607  1.0000
  H   H291      1.0  0.45333  0.57319  0.71274  1.0000
  C   C241      1.0  0.41189  0.93323  0.79256  1.0000
  C   C242      1.0  0.40984  0.94256  0.74250  1.0000
  C   C243      1.0  0.40114  0.87985  0.76261  1.0000
  C   C244      1.0  0.41114  0.86444  0.73634  1.0000
  C   C245      1.0  0.41504  0.82650  0.73341  1.0000
  H   H292      1.0  0.07496  0.59146  0.67115  1.0000
  C   C246      1.0  0.39503  0.85483  0.78538  1.0000
  C   C247      1.0  0.45710  0.97927  0.96818  1.0000
  C   C248      1.0  0.41677  0.51506  0.81901  1.0000
  H   H293      1.0  0.44148  0.92660  0.79365  1.0000
  H   H294      1.0  0.11901  0.55157  0.71668  1.0000
  C   C249      1.0  0.35489  0.92568  0.76750  1.0000
  H   H295      1.0  0.43938  0.93713  0.73906  1.0000
  H   H296      1.0  0.41595  0.88108  0.71768  1.0000
  H   H297      1.0  0.44733  0.60334  0.82339  1.0000
  S   S62       1.0  0.02561  0.54771  0.75607  1.0000
  C   C250      1.0  0.40884  0.80282  0.75627  1.0000
  H   H298      1.0  0.42187  0.57767  0.84931  1.0000
  C   C251      1.0  0.43731  0.56336  0.75591  1.0000
  C   C252      1.0  0.48392  0.96784  0.98754  1.0000
  H   H299      1.0  0.49702  0.73414  0.77053  1.0000
  C   C253      1.0  0.48567  0.64598  0.77456  1.0000
  H   H300      1.0  0.41036  0.57365  0.75127  1.0000
  C   C254      1.0  0.44822  0.55206  0.78350  1.0000
  H   H301      1.0  0.47327  0.99803  0.80839  1.0000
  H   H302      1.0  0.34865  0.95516  0.77076  1.0000
  Fe  Fe30      1.0  0.02883  0.60519  0.73882  1.0000
  C   C255      1.0  0.39894  0.81699  0.78223  1.0000
  H   H303      1.0  0.41130  0.77339  0.75381  1.0000
  H   H304      1.0  0.39831  0.92205  0.81184  1.0000
  C   C256      1.0  0.44047  0.57509  0.83095  1.0000
  Fe  Fe31      1.0  0.36128  0.97976  0.86307  1.0000
  H   H305      1.0  0.13741  0.57958  0.68922  1.0000
  H   H306      1.0  0.49899  0.64086  0.79462  1.0000
  C   C257      1.0  0.49760  0.84894  0.76510  1.0000
  H   H307      1.0  0.47891  0.86070  0.78006  1.0000
  C   C258      1.0  0.42242  0.98832  0.97801  1.0000
  H   H308      1.0  0.49605  0.79719  0.78574  1.0000
  H   H309      1.0  0.36948  0.56967  0.82054  1.0000
  C   C259      1.0  0.49025  0.98690  0.76584  1.0000
  H   H310      1.0  0.37181  0.55261  0.78566  1.0000
  H   H311      1.0  0.40164  0.99738  0.96338  1.0000
  C   C260      1.0  0.49778  0.55212  0.73749  1.0000
  H   H312      1.0  0.09587  0.52570  0.86274  1.0000
  H   H313      1.0  0.15491  0.50848  0.88191  1.0000
  C   C261      1.0  0.46185  0.56322  0.73335  1.0000
  C   C262      1.0  0.06783  0.56302  0.67840  1.0000
  C   C263      1.0  0.48473  0.53981  0.78673  1.0000
  C   C264      1.0  0.09733  0.50364  0.87829  1.0000
  H   H314      1.0  0.19715  0.50596  0.91910  1.0000
  H   H315      1.0  0.49492  0.53043  0.80693  1.0000
  C   C265      1.0  0.28923  0.50374  0.86443  1.0000
  Fe  Fe32      1.0  0.53317  0.05760  0.10356  1.0000
  C   C266      1.0  0.79359  0.50020  0.12214  1.0000
  S   S63       1.0  0.55275  0.10648  0.07662  1.0000
  C   C267      1.0  0.52846  0.25029  0.13165  1.0000
  H   H316      1.0  0.96835  0.30846  0.11790  1.0000
  N   N18       1.0  0.74140  0.45634  0.10830  1.0000
  S   S64       1.0  0.62658  0.32072  0.03467  1.0000
  S   S65       1.0  0.96587  0.43646  0.04704  1.0000
  C   C268      1.0  0.54248  0.26928  0.15470  1.0000
  H   H317      1.0  0.50724  0.03897  0.20992  1.0000
  C   C269      1.0  0.78352  0.41199  0.01603  1.0000
  C   C270      1.0  0.52327  0.21931  0.18561  1.0000
  Fe  Fe33      1.0  0.61749  0.31455  0.08154  1.0000
  S   S66       1.0  0.88223  0.36921  0.03797  1.0000
  S   S67       1.0  0.61985  0.26302  0.10897  1.0000
  Fe  Fe34      1.0  0.60628  0.39659  0.08929  1.0000
  S   S68       1.0  0.61342  0.40870  0.04339  1.0000
  S   S69       1.0  0.59401  0.43998  0.12146  1.0000
  Fe  Fe35      1.0  0.57831  0.35847  0.03624  1.0000
  H   H318      1.0  0.73727  0.44794  0.06324  1.0000
  Fe  Fe36      1.0  0.66115  0.37048  0.04585  1.0000
  H   H319      1.0  0.52190  0.02732  0.26030  1.0000
  S   S70       1.0  0.56708  0.34914  0.08226  1.0000
  S   S71       1.0  0.65593  0.36155  0.09258  1.0000
  H   H320      1.0  0.69086  0.46390  0.13103  1.0000
  C   C271      1.0  0.83461  0.37767  0.03526  1.0000
  C   C272      1.0  0.80444  0.45358  0.08732  1.0000
  H   H321      1.0  0.52730  0.27870  0.01758  1.0000
  H   H322      1.0  0.79589  0.43062  0.07453  1.0000
  H   H323      1.0  0.52651  0.14685  0.20300  1.0000
  H   H324      1.0  0.54457  0.13563  0.16909  1.0000
  Fe  Fe37      1.0  0.95199  0.48661  0.02195  1.0000
  C   C273      1.0  0.75823  0.38787  0.02911  1.0000
  H   H325      1.0  0.56096  0.17360  0.04533  1.0000
  N   N19       1.0  0.96502  0.43224  0.14482  1.0000
  H   H326      1.0  0.58682  0.23504  0.05718  1.0000
  H   H327      1.0  0.71968  0.49054  0.07506  1.0000
  C   C274      1.0  0.61269  0.48490  0.11877  1.0000
  C   C275      1.0  0.98011  0.40099  0.12919  1.0000
  C   C276      1.0  0.77967  0.47028  0.10606  1.0000
  H   H328      1.0  0.94339  0.35739  0.14568  1.0000
  C   C277      1.0  0.57069  0.14992  0.08654  1.0000
  C   C278      1.0  0.58489  0.15642  0.11347  1.0000
  C   C279      1.0  0.60003  0.19115  0.12000  1.0000
  C   C280      1.0  0.60079  0.21974  0.09977  1.0000
  C   C281      1.0  0.58614  0.21334  0.07295  1.0000
  C   C282      1.0  0.57143  0.17850  0.06634  1.0000
  H   H329      1.0  0.58531  0.13439  0.12894  1.0000
  H   H330      1.0  0.75165  0.39945  0.09846  1.0000
  C   C283      1.0  0.96577  0.36454  0.13179  1.0000
  C   C284      1.0  0.85342  0.49548  0.10057  1.0000
  H   H331      1.0  0.75846  0.41137  0.13489  1.0000
  H   H332      1.0  0.96620  0.46788  0.10823  1.0000
  H   H333      1.0  0.54344  0.43990  0.07312  1.0000
  H   H334      1.0  0.81923  0.33086  0.06112  1.0000
  C   C285      1.0  0.71939  0.47533  0.12985  1.0000
  H   H335      1.0  0.75208  0.34021  0.05605  1.0000
  S   S72       1.0  0.53947  0.04215  0.14951  1.0000
  H   H336      1.0  0.77369  0.43444  0.00308  1.0000
  H   H337      1.0  0.53726  0.05863  0.02863  1.0000
  C   C286      1.0  0.97991  0.33597  0.11589  1.0000
  H   H338      1.0  0.61140  0.19591  0.14077  1.0000
  H   H339      1.0  0.94942  0.40168  0.18221  1.0000
  H   H340      1.0  0.73145  0.47221  0.15132  1.0000
  C   C287      1.0  0.84065  0.46612  0.08456  1.0000
  C   C288      1.0  0.53975  0.25391  0.18166  1.0000
  C   C289      1.0  0.72251  0.46103  0.08077  1.0000
  H   H341      1.0  0.51167  0.22844  0.05118  1.0000
  H   H342      1.0  0.69462  0.44818  0.08099  1.0000
  H   H343      1.0  0.55093  0.26876  0.19950  1.0000
  H   H344      1.0  0.52182  0.20855  0.20692  1.0000
  C   C290      1.0  0.80933  0.35380  0.04874  1.0000
  H   H345      1.0  0.71320  0.40597  0.12047  1.0000
  H   H346      1.0  0.55624  0.29562  0.15149  1.0000
  H   H347      1.0  0.92795  0.44526  0.17853  1.0000
  S   S73       1.0  0.71094  0.39496  0.02321  1.0000
  C   C291      1.0  0.99494  0.45260  0.15952  1.0000
  H   H348      1.0  0.50382  0.13913  0.12650  1.0000
  C   C292      1.0  0.52606  0.46568  0.02156  1.0000
  H   H349      1.0  0.63655  0.47796  0.07782  1.0000
  H   H350      1.0  0.55550  0.46906  0.02713  1.0000
  C   C293      1.0  0.82143  0.40721  0.01939  1.0000
  Fe  Fe38      1.0  0.92562  0.40762  0.01873  1.0000
  H   H351      1.0  0.50413  0.13532  0.02124  1.0000
  C   C294      1.0  0.77126  0.35905  0.04591  1.0000
  H   H352      1.0  0.85884  0.45306  0.06977  1.0000
  C   C295      1.0  0.74131  0.41666  0.11584  1.0000
  H   H353      1.0  0.84039  0.42618  0.00943  1.0000
  H   H354      1.0  0.53165  0.26211  0.11067  1.0000
  H   H355      1.0  0.92421  0.44313  0.11305  1.0000
  C   C296      1.0  0.51238  0.21546  0.13526  1.0000
  C   C297      1.0  0.50739  0.06209  0.02482  1.0000
  C   C298      1.0  0.94690  0.45737  0.12454  1.0000
  H   H356      1.0  0.51878  0.48845  0.00683  1.0000
  C   C299      1.0  0.51701  0.12112  0.00323  1.0000
  H   H357      1.0  0.52385  0.43952  0.00965  1.0000
  C   C300      1.0  0.93759  0.42118  0.16651  1.0000
  C   C301      1.0  0.51449  0.43583  0.06640  1.0000
  H   H358      1.0  0.93569  0.48181  0.13517  1.0000
  C   C302      1.0  0.63265  0.49654  0.09510  1.0000
  H   H359      1.0  0.91270  0.40842  0.15684  1.0000
  C   C303      1.0  0.50340  0.26123  0.01379  1.0000
  H   H360      1.0  0.50351  0.20183  0.11628  1.0000
  C   C304      1.0  0.51890  0.13750  0.18152  1.0000
  H   H361      1.0  0.51287  0.40831  0.05651  1.0000
  H   H362      1.0  0.56337  0.49941  0.06833  1.0000
  H   H363      1.0  0.59137  0.50086  0.15905  1.0000
  H   H364      1.0  0.92000  0.49580  0.31151  1.0000
  C   C305      1.0  0.50937  0.19881  0.16250  1.0000
  N   N20       1.0  0.50205  0.46510  0.04676  1.0000
  H   H365      1.0  0.50746  0.10913  0.18424  1.0000
  H   H366      1.0  0.98436  0.47544  0.17245  1.0000
  H   H367      1.0  0.54676  0.11908  0.00832  1.0000
  C   C306      1.0  0.50438  0.50104  0.06101  1.0000
  H   H368      1.0  0.64029  0.47002  0.58531  1.0000
  C   C307      1.0  0.51167  0.01962  0.49960  1.0000
  S   S74       1.0  0.97808  0.42200  0.45198  1.0000
  H   H369      1.0  0.56788  0.30757  0.45456  1.0000
  C   C308      1.0  0.80736  0.38411  0.48868  1.0000
  H   H370      1.0  0.75050  0.37020  0.49723  1.0000
  H   H371      1.0  0.80388  0.38332  0.46602  1.0000
  H   H372      1.0  0.56159  0.29847  0.50593  1.0000
  Fe  Fe39      1.0  0.50869  0.00275  0.60561  1.0000
  H   H373      1.0  0.84018  0.45344  0.43235  1.0000
  H   H374      1.0  0.54047  0.15206  0.51149  1.0000
  H   H375      1.0  0.68272  0.43214  0.64356  1.0000
  Fe  Fe40      1.0  0.57481  0.04182  0.63095  1.0000
  H   H376      1.0  0.50194  0.28012  0.52623  1.0000
  S   S75       1.0  0.61009  0.09403  0.63673  1.0000
  C   C309      1.0  0.84030  0.46646  0.41088  1.0000
  C   C310      1.0  0.87593  0.49973  0.37539  1.0000
  Fe  Fe41      1.0  0.98659  0.47308  0.52320  1.0000
  C   C311      1.0  0.51138  0.48002  0.49622  1.0000
  H   H377      1.0  0.57322  0.44591  0.57353  1.0000
  Fe  Fe42      1.0  0.93667  0.42367  0.48732  1.0000
  S   S76       1.0  0.87978  0.39988  0.47688  1.0000
  S   S77       1.0  0.94174  0.48476  0.49195  1.0000
  Fe  Fe43      1.0  0.61987  0.30378  0.56785  1.0000
  S   S78       1.0  0.64659  0.32328  0.52746  1.0000
  S   S79       1.0  0.59972  0.24385  0.56522  1.0000
  Fe  Fe44      1.0  0.61953  0.38381  0.59033  1.0000
  S   S80       1.0  0.64528  0.40721  0.55119  1.0000
  S   S81       1.0  0.60378  0.42108  0.62629  1.0000
  Fe  Fe45      1.0  0.60607  0.36916  0.52852  1.0000
  S   S82       1.0  0.57288  0.38697  0.49016  1.0000
  Fe  Fe46      1.0  0.68300  0.35918  0.55443  1.0000
  S   S83       1.0  0.74515  0.36436  0.55906  1.0000
  S   S84       1.0  0.57805  0.34847  0.56754  1.0000
  S   S85       1.0  0.65858  0.33699  0.59504  1.0000
  C   C312      1.0  0.84218  0.39230  0.50010  1.0000
  C   C313      1.0  0.84633  0.39295  0.52943  1.0000
  C   C314      1.0  0.81616  0.38486  0.54705  1.0000
  C   C315      1.0  0.78135  0.37672  0.53566  1.0000
  C   C316      1.0  0.77700  0.37668  0.50632  1.0000
  H   H378      1.0  0.87293  0.39902  0.53855  1.0000
  H   H379      1.0  0.81991  0.38471  0.56971  1.0000
  H   H380      1.0  0.51884  0.20849  0.53403  1.0000
  H   H381      1.0  0.58378  0.46667  0.51354  1.0000
  H   H382      1.0  0.99259  0.43633  0.64851  1.0000
  C   C317      1.0  0.54184  0.29812  0.46311  1.0000
  C   C318      1.0  0.98402  0.49372  0.65626  1.0000
  H   H383      1.0  0.66695  0.23372  0.53028  1.0000
  C   C319      1.0  0.61136  0.46930  0.62474  1.0000
  C   C320      1.0  0.50464  0.28281  0.50353  1.0000
  H   H384      1.0  0.75299  0.29486  0.52913  1.0000
  H   H385      1.0  0.52539  0.02661  0.54349  1.0000
  C   C321      1.0  0.60608  0.13589  0.61722  1.0000
  C   C322      1.0  0.58484  0.13821  0.59269  1.0000
  C   C323      1.0  0.58327  0.17151  0.57730  1.0000
  C   C324      1.0  0.60230  0.20317  0.58637  1.0000
  C   C325      1.0  0.62332  0.20103  0.61108  1.0000
  C   C326      1.0  0.62540  0.16748  0.62627  1.0000
  H   H386      1.0  0.56998  0.11419  0.58535  1.0000
  H   H387      1.0  0.56721  0.17266  0.55817  1.0000
  H   H388      1.0  0.63807  0.22508  0.61844  1.0000
  C   C327      1.0  0.50997  0.47622  0.52611  1.0000
  C   C328      1.0  0.52434  0.38278  0.48995  1.0000
  H   H389      1.0  0.83393  0.44445  0.39544  1.0000
  H   H390      1.0  0.77269  0.45565  0.58830  1.0000
  C   C329      1.0  0.62934  0.48637  0.60197  1.0000
  C   C330      1.0  0.59863  0.49111  0.64674  1.0000
  C   C331      1.0  0.70560  0.48701  0.64612  1.0000
  H   H391      1.0  0.51970  0.39561  0.44559  1.0000
  H   H392      1.0  0.68560  0.49381  0.66185  1.0000
  C   C332      1.0  0.72761  0.44010  0.61494  1.0000
  H   H393      1.0  0.72563  0.41246  0.60676  1.0000
  H   H394      1.0  0.58487  0.47822  0.66454  1.0000
  C   C333      1.0  0.57697  0.48875  0.52866  1.0000
  C   C334      1.0  0.70358  0.45122  0.63576  1.0000
  C   C335      1.0  0.98921  0.46316  0.63893  1.0000
  H   H395      1.0  0.70008  0.26524  0.51607  1.0000
  H   H396      1.0  0.84174  0.19569  0.54613  1.0000
  H   H397      1.0  0.90413  0.44591  0.43156  1.0000
  H   H398      1.0  0.52538  0.43622  0.57333  1.0000
  H   H399      1.0  0.81740  0.30486  0.51811  1.0000
  H   H400      1.0  0.86215  0.25573  0.52629  1.0000
  H   H401      1.0  0.55321  0.42201  0.54446  1.0000
  H   H402      1.0  0.77800  0.18410  0.55794  1.0000
  S   S86       1.0  0.97899  0.41176  0.52113  1.0000
  N   N21       1.0  0.54282  0.47967  0.54441  1.0000
  N   N22       1.0  0.71927  0.23311  0.55169  1.0000
  C   C336      1.0  0.71017  0.19642  0.56410  1.0000
  C   C337      1.0  0.70834  0.26100  0.57241  1.0000
  C   C338      1.0  0.69676  0.23750  0.52579  1.0000
  C   C339      1.0  0.75853  0.23844  0.54469  1.0000
  C   C340      1.0  0.77136  0.27239  0.53306  1.0000
  C   C341      1.0  0.78501  0.21077  0.54918  1.0000
  C   C342      1.0  0.80828  0.27843  0.52660  1.0000
  C   C343      1.0  0.82192  0.21706  0.54249  1.0000
  C   C344      1.0  0.83352  0.25082  0.53129  1.0000
  H   H403      1.0  0.72495  0.19175  0.58438  1.0000
  H   H404      1.0  0.68038  0.19352  0.56892  1.0000
  H   H405      1.0  0.71649  0.17394  0.54930  1.0000
  H   H406      1.0  0.72559  0.25963  0.59181  1.0000
  H   H407      1.0  0.67919  0.25728  0.57885  1.0000
  H   H408      1.0  0.71113  0.28943  0.56387  1.0000
  H   H409      1.0  0.70436  0.21719  0.50957  1.0000
  H   H410      1.0  0.93269  0.46880  0.40649  1.0000
  S   S87       1.0  0.51486  0.04117  0.64232  1.0000
  S   S88       1.0  0.56773  0.00603  0.59267  1.0000
  C   C345      1.0  0.75408  0.46459  0.60453  1.0000
  C   C346      1.0  0.51173  0.29233  0.44525  1.0000
  C   C347      1.0  0.99041  0.46723  0.60928  1.0000
  C   C348      1.0  0.53836  0.29314  0.49214  1.0000
  Fe  Fe47      1.0  0.98520  0.48240  0.45882  1.0000
  H   H411      1.0  0.64198  0.16602  0.64519  1.0000
  H   H412      1.0  0.90119  0.43263  0.39559  1.0000
  H   H413      1.0  0.53801  0.02972  0.49222  1.0000
  C   C349      1.0  0.54873  0.44449  0.55960  1.0000
  C   C350      1.0  0.90482  0.45677  0.40953  1.0000
  H   H414      1.0  0.51901  0.36851  0.53393  1.0000
  H   H415      1.0  0.99461  0.44367  0.59613  1.0000
  H   H416      1.0  0.51641  0.29704  0.42304  1.0000
  C   C351      1.0  0.51148  0.15807  0.51139  1.0000
  N   N23       1.0  0.87612  0.48450  0.40454  1.0000
  H   H417      1.0  0.60101  0.49145  0.54307  1.0000
  H   H418      1.0  0.92188  0.46873  0.35833  1.0000
  C   C352      1.0  0.50478  0.37388  0.51447  1.0000
  C   C353      1.0  0.50488  0.38883  0.46471  1.0000
  C   C354      1.0  0.50471  0.01753  0.52868  1.0000
  C   C355      1.0  0.90100  0.48876  0.35432  1.0000
  H   H419      1.0  0.81737  0.48607  0.41040  1.0000
  C   C356      1.0  0.00021  0.48393  0.37986  1.0000
  H   H420      1.0  0.53670  0.48468  0.48498  1.0000
  C   C357      1.0  0.75647  0.50041  0.61481  1.0000
  H   H421      1.0  0.59851  0.02388  0.76341  1.0000
  Fe  Fe48      1.0  0.95676  0.44578  0.96604  1.0000
  S   S89       1.0  0.97000  0.39250  0.98820  1.0000
  H   H422      1.0  0.90787  0.38530  0.94718  1.0000
  H   H423      1.0  0.88535  0.34238  0.95329  1.0000
  H   H424      1.0  0.60260  0.02562  0.71626  1.0000
  H   H425      1.0  0.85825  0.34419  0.90521  1.0000
  H   H426      1.0  0.78184  0.39910  0.91541  1.0000
  C   C358      1.0  0.74531  0.34110  0.96426  1.0000
  H   H427      1.0  0.88450  0.38604  0.90003  1.0000
  C   C359      1.0  0.96289  0.49663  0.84534  1.0000
  H   H428      1.0  0.53511  0.12306  0.75202  1.0000
  H   H429      1.0  0.62352  0.05972  0.69427  1.0000
  H   H430      1.0  0.71882  0.33162  0.97194  1.0000
  C   C360      1.0  0.74749  0.36620  0.94193  1.0000
  H   H431      1.0  0.95273  0.44038  0.85820  1.0000
  N   N24       1.0  0.58442  0.08072  0.72391  1.0000
  S   S90       1.0  0.95089  0.43898  0.91865  1.0000
  C   C361      1.0  0.54075  0.06505  0.80786  1.0000
  H   H432      1.0  0.82978  0.43767  0.92296  1.0000
  H   H433      1.0  0.83478  0.33263  0.98023  1.0000
  H   H434      1.0  0.61272  0.12222  0.69891  1.0000
  H   H435      1.0  0.51004  0.11353  0.79916  1.0000
  H   H436      1.0  0.83653  0.38504  0.89248  1.0000
  H   H437      1.0  0.84060  0.43438  0.95983  1.0000
  C   C362      1.0  0.54504  0.10014  0.76433  1.0000
  H   H438      1.0  0.50378  0.04014  0.96969  1.0000
  H   H439      1.0  0.87832  0.38022  0.97691  1.0000
  H   H440      1.0  0.62179  0.12395  0.73629  1.0000
  C   C363      1.0  0.81142  0.34242  0.96847  1.0000
  H   H441      1.0  0.72252  0.37576  0.93205  1.0000
  H   H442      1.0  0.63729  0.05645  0.73057  1.0000
  H   H443      1.0  0.87622  0.43853  0.93397  1.0000
  C   C364      1.0  0.51820  0.06627  0.97515  1.0000
  S   S91       1.0  0.99757  0.47993  0.99051  1.0000
  H   H444      1.0  0.57259  0.01620  0.81009  1.0000
  N   N25       1.0  0.85017  0.38486  0.93695  1.0000
  C   C365      1.0  0.88161  0.37255  0.95443  1.0000
  C   C366      1.0  0.85757  0.37456  0.90738  1.0000
  C   C367      1.0  0.56552  0.04002  0.79741  1.0000
  C   C368      1.0  0.81460  0.36870  0.94611  1.0000
  C   C369      1.0  0.84903  0.42551  0.93851  1.0000
  C   C370      1.0  0.78158  0.37961  0.93275  1.0000
  H   H445      1.0  0.51446  0.13901  0.98421  1.0000
  C   C371      1.0  0.57051  0.07531  0.75301  1.0000
  H   H446      1.0  0.57922  0.13989  0.72175  1.0000
  C   C372      1.0  0.60019  0.11831  0.72021  1.0000
  C   C373      1.0  0.55369  0.07594  0.70376  1.0000
  C   C374      1.0  0.58023  0.04484  0.77038  1.0000
  C   C375      1.0  0.61327  0.05445  0.71613  1.0000
  C   C376      1.0  0.95755  0.46814  0.86531  1.0000
  S   S92       1.0  0.98671  0.48859  0.69349  1.0000
  C   C377      1.0  0.95845  0.47540  0.89437  1.0000
  C   C378      1.0  0.77720  0.32888  0.97721  1.0000
  H   H447      1.0  0.54713  0.05946  0.98013  1.0000
  H   H448      1.0  0.51895  0.08351  0.95571  1.0000
  S   S93       1.0  0.90985  0.45821  0.99485  1.0000
  H   H449      1.0  0.53070  0.09464  0.70796  1.0000
  H   H450      1.0  0.56253  0.08152  0.68171  1.0000
  H   H451      1.0  0.96212  0.49082  0.82301  1.0000
  H   H452      1.0  0.54256  0.04736  0.70470  1.0000
  H   H453      1.0  0.52833  0.06055  0.82838  1.0000
  S   S94       1.0  0.53646  0.36094  0.00071  1.0000
  C   C379      1.0  0.53057  0.09505  0.79136  1.0000
  H   H454      1.0  0.77531  0.30977  0.99489  1.0000
  Fe  Fe49      1.0  0.53779  0.98296  0.13487  1.0000
  H   H455      1.0  0.74854  0.69146  0.11371  1.0000
  S   S95       1.0  0.57177  0.94107  0.15956  1.0000
  H   H456      1.0  0.77380  0.60495  0.15251  1.0000
  H   H457      1.0  0.54151  0.89227  0.20594  1.0000
  C   C380      1.0  0.96142  0.53956  0.07907  1.0000
  Fe  Fe50      1.0  0.62670  0.72769  0.15174  1.0000
  S   S96       1.0  0.64621  0.72830  0.19667  1.0000
  S   S97       1.0  0.59957  0.77410  0.12674  1.0000
  Fe  Fe51      1.0  0.64658  0.64568  0.14527  1.0000
  S   S98       1.0  0.66598  0.64042  0.19018  1.0000
  S   S99       1.0  0.65778  0.60290  0.11195  1.0000
  Fe  Fe52      1.0  0.61617  0.67386  0.20039  1.0000
  S   S100      1.0  0.57999  0.66628  0.23896  1.0000
  Fe  Fe53      1.0  0.69417  0.69480  0.18241  1.0000
  S   S101      1.0  0.75463  0.70792  0.19084  1.0000
  S   S102      1.0  0.59442  0.67452  0.15599  1.0000
  S   S103      1.0  0.67681  0.69883  0.13699  1.0000
  Fe  Fe54      1.0  0.93908  0.59532  0.23329  1.0000
  H   H458      1.0  0.73232  0.60900  0.13219  1.0000
  S   S104      1.0  0.87649  0.59469  0.23122  1.0000
  C   C381      1.0  0.94689  0.55638  0.10296  1.0000
  C   C382      1.0  0.50373  0.79273  0.23443  1.0000
  H   H459      1.0  0.72839  0.65467  0.09433  1.0000
  H   H460      1.0  0.97834  0.56178  0.32614  1.0000
  H   H461      1.0  0.75480  0.54707  0.05232  1.0000
  N   N26       1.0  0.51107  0.76443  0.18670  1.0000
  S   S105      1.0  0.97226  0.60025  0.27355  1.0000
  C   C383      1.0  0.51221  0.79934  0.17038  1.0000
  S   S106      1.0  0.93450  0.53443  0.04842  1.0000
  H   H462      1.0  0.88135  0.50553  0.09795  1.0000
  C   C384      1.0  0.64072  0.55749  0.11534  1.0000
  C   C385      1.0  0.62091  0.54582  0.13905  1.0000
  H   H463      1.0  0.54442  0.87970  0.24266  1.0000
  H   H464      1.0  0.61607  0.56475  0.15601  1.0000
  H   H465      1.0  0.66162  0.54173  0.07488  1.0000
  C   C386      1.0  0.78817  0.67625  0.20246  1.0000
  C   C387      1.0  0.77884  0.64032  0.21066  1.0000
  C   C388      1.0  0.80632  0.61584  0.21923  1.0000
  C   C389      1.0  0.84345  0.62683  0.21960  1.0000
  C   C390      1.0  0.85288  0.66262  0.21106  1.0000
  C   C391      1.0  0.82532  0.68722  0.20267  1.0000
  H   H466      1.0  0.75040  0.63153  0.21081  1.0000
  H   H467      1.0  0.79871  0.58829  0.22595  1.0000
  H   H468      1.0  0.88128  0.67153  0.21136  1.0000
  H   H469      1.0  0.83284  0.71498  0.19641  1.0000
  C   C392      1.0  0.96736  0.55836  0.12814  1.0000
  H   H470      1.0  0.86745  0.57667  0.06600  1.0000
  C   C393      1.0  0.59372  0.82083  0.13591  1.0000
  C   C394      1.0  0.57342  0.84357  0.11768  1.0000
  C   C395      1.0  0.56640  0.88032  0.12459  1.0000
  C   C396      1.0  0.58002  0.89496  0.14974  1.0000
  C   C397      1.0  0.60026  0.87222  0.16804  1.0000
  C   C398      1.0  0.60691  0.83530  0.16129  1.0000
  H   H471      1.0  0.56296  0.83265  0.09804  1.0000
  H   H472      1.0  0.55083  0.89740  0.11026  1.0000
  H   H473      1.0  0.61127  0.88332  0.18742  1.0000
  H   H474      1.0  0.62264  0.81821  0.17549  1.0000
  C   C399      1.0  0.60693  0.50964  0.14072  1.0000
  C   C400      1.0  0.90030  0.50422  0.32715  1.0000
  H   H475      1.0  0.82059  0.53875  0.04199  1.0000
  S   S107      1.0  0.98338  0.62227  0.20657  1.0000
  H   H476      1.0  0.52957  0.80724  0.23198  1.0000
  C   C401      1.0  0.53184  0.66354  0.23564  1.0000
  N   N27       1.0  0.77863  0.64104  0.11632  1.0000
  H   H477      1.0  0.76899  0.67781  0.08126  1.0000
  C   C402      1.0  0.75702  0.62421  0.13970  1.0000
  H   H478      1.0  0.51295  0.73139  0.14913  1.0000
  C   C403      1.0  0.79083  0.61220  0.09690  1.0000
  C   C404      1.0  0.82837  0.60644  0.09061  1.0000
  C   C405      1.0  0.76464  0.58973  0.08269  1.0000
  H   H479      1.0  0.56822  0.55865  0.09160  1.0000
  C   C406      1.0  0.77532  0.56351  0.06319  1.0000
  H   H480      1.0  0.53169  0.63867  0.19472  1.0000
  C   C407      1.0  0.80924  0.66254  0.12920  1.0000
  C   C408      1.0  0.83005  0.51230  0.11946  1.0000
  C   C409      1.0  0.75516  0.66724  0.10067  1.0000
  H   H481      1.0  0.91961  0.56737  0.10215  1.0000
  H   H482      1.0  0.82713  0.64492  0.14256  1.0000
  H   H483      1.0  0.52782  0.97415  0.21500  1.0000
  S   S108      1.0  0.53696  0.99895  0.08855  1.0000
  S   S109      1.0  0.95788  0.53783  0.22476  1.0000
  H   H484      1.0  0.82604  0.67714  0.11294  1.0000
  H   H485      1.0  0.56596  0.92130  0.22939  1.0000
  H   H486      1.0  0.56465  0.74601  0.17473  1.0000
  C   C410      1.0  0.83869  0.58034  0.07086  1.0000
  H   H487      1.0  0.95581  0.57079  0.14664  1.0000
  H   H488      1.0  0.52278  0.68756  0.27627  1.0000
  H   H489      1.0  0.79894  0.68423  0.14337  1.0000
  H   H490      1.0  0.74665  0.64545  0.15419  1.0000
  C   C411      1.0  0.87502  0.53103  0.32015  1.0000
  C   C412      1.0  0.81227  0.55894  0.05721  1.0000
  C   C413      1.0  0.53865  0.51486  0.07081  1.0000
  H   H491      1.0  0.73557  0.59283  0.08623  1.0000
  H   H492      1.0  0.85033  0.62198  0.10039  1.0000
  C   C414      1.0  0.64670  0.53269  0.09344  1.0000
  H   H493      1.0  0.51505  0.91838  0.27866  1.0000
  H   H494      1.0  0.52597  0.79588  0.14969  1.0000
  H   H495      1.0  0.84013  0.53528  0.13180  1.0000
  H   H496      1.0  0.77690  0.51478  0.13688  1.0000
  C   C415      1.0  0.54112  0.90320  0.22772  1.0000
  H   H497      1.0  0.54941  0.72981  0.20854  1.0000
  C   C416      1.0  0.50993  0.67602  0.25769  1.0000
  H   H498      1.0  0.52755  0.82141  0.18159  1.0000
  C   C417      1.0  0.54913  0.75376  0.19377  1.0000
  C   C418      1.0  0.50445  0.95428  0.21294  1.0000
  H   H499      1.0  0.56556  0.77624  0.20344  1.0000
  N   N28       1.0  0.50717  0.92349  0.23353  1.0000
  C   C419      1.0  0.51091  0.93974  0.26204  1.0000
  H   H500      1.0  0.53505  0.95880  0.26340  1.0000
  H   H501      1.0  0.50535  0.94498  0.19079  1.0000
  C   C420      1.0  0.54172  0.54870  0.08428  1.0000
  C   C421      1.0  0.51082  0.56972  0.08851  1.0000
  C   C422      1.0  0.99686  0.52572  0.08022  1.0000
  C   C423      1.0  0.51505  0.64877  0.21167  1.0000
  H   H502      1.0  0.87503  0.54332  0.29915  1.0000
  Fe  Fe55      1.0  0.99297  0.54450  0.26333  1.0000
  H   H503      1.0  0.51341  0.59589  0.09904  1.0000
  C   C424      1.0  0.99630  0.50614  0.33117  1.0000
  H   H504      1.0  0.71652  0.50508  0.12478  1.0000
  H   H505      1.0  0.83040  0.56323  0.33466  1.0000
  C   C425      1.0  0.61913  0.80088  0.63640  1.0000
  C   C426      1.0  0.98171  0.54618  0.36996  1.0000
  H   H506      1.0  0.55145  0.95724  0.52857  1.0000
  H   H507      1.0  0.75066  0.57501  0.60547  1.0000
  H   H508      1.0  0.97300  0.57262  0.37732  1.0000
  Fe  Fe56      1.0  0.57475  0.95739  0.62212  1.0000
  C   C427      1.0  0.51181  0.91954  0.48642  1.0000
  S   S110      1.0  0.60098  0.90486  0.60703  1.0000
  C   C428      1.0  0.62293  0.80549  0.66553  1.0000
  S   S111      1.0  0.51527  0.95231  0.63261  1.0000
  C   C429      1.0  0.56293  0.92939  0.53161  1.0000
  H   H509      1.0  0.61037  0.82782  0.59614  1.0000
  C   C430      1.0  0.77144  0.55854  0.65822  1.0000
  S   S112      1.0  0.62527  0.59498  0.61994  1.0000
  H   H510      1.0  0.77741  0.51841  0.60602  1.0000
  C   C431      1.0  0.98132  0.53235  0.61417  1.0000
  H   H511      1.0  0.51485  0.50226  0.58033  1.0000
  H   H512      1.0  0.58050  0.92297  0.51328  1.0000
  C   C432      1.0  0.72896  0.57686  0.62168  1.0000
  C   C433      1.0  0.62030  0.54664  0.62260  1.0000
  C   C434      1.0  0.97898  0.52808  0.64359  1.0000
  N   N29       1.0  0.73470  0.55121  0.64579  1.0000
  H   H513      1.0  0.64704  0.53773  0.58291  1.0000
  C   C435      1.0  0.61221  0.83148  0.61869  1.0000
  H   H514      1.0  0.56219  0.51349  0.57873  1.0000
  H   H515      1.0  0.83042  0.53659  0.38227  1.0000
  S   S113      1.0  0.98592  0.52761  0.42573  1.0000
  C   C436      1.0  0.60800  0.86671  0.63000  1.0000
  H   H516      1.0  0.90842  0.52999  0.41990  1.0000
  C   C437      1.0  0.73215  0.51284  0.63583  1.0000
  C   C438      1.0  0.51317  0.91109  0.56160  1.0000
  H   H517      1.0  0.97394  0.55166  0.65641  1.0000
  H   H518      1.0  0.62239  0.77398  0.62745  1.0000
  H   H519      1.0  0.56587  0.85647  0.52150  1.0000
  C   C439      1.0  0.60323  0.52958  0.64577  1.0000
  H   H520      1.0  0.59284  0.54605  0.66269  1.0000
  C   C440      1.0  0.63343  0.52483  0.60076  1.0000
  C   C441      1.0  0.88259  0.51458  0.42489  1.0000
  C   C442      1.0  0.55126  0.86545  0.54072  1.0000
  H   H521      1.0  0.53197  0.91518  0.57984  1.0000
  C   C443      1.0  0.85024  0.52683  0.36741  1.0000
  H   H522      1.0  0.86013  0.53469  0.42491  1.0000
  C   C444      1.0  0.61094  0.87109  0.65918  1.0000
  S   S114      1.0  0.67559  0.66726  0.66609  1.0000
  H   H523      1.0  0.58152  0.93112  0.55030  1.0000
  H   H524      1.0  0.57172  0.86697  0.55823  1.0000
  H   H525      1.0  0.67878  0.55595  0.65959  1.0000
  H   H526      1.0  0.53366  0.93955  0.48344  1.0000
  H   H527      1.0  0.79384  0.55596  0.64264  1.0000
  N   N30       1.0  0.53345  0.90125  0.53580  1.0000
  H   H528      1.0  0.72876  0.60600  0.62858  1.0000
  H   H529      1.0  0.70214  0.57120  0.61117  1.0000
  Fe  Fe57      1.0  0.62653  0.62960  0.65953  1.0000
  C   C445      1.0  0.98491  0.54013  0.34092  1.0000
  H   H530      1.0  0.53134  0.84340  0.54678  1.0000
  C   C446      1.0  0.98940  0.51819  0.38951  1.0000
  H   H531      1.0  0.97877  0.55941  0.60476  1.0000
  H   H532      1.0  0.53108  0.53558  0.55480  1.0000
  C   C447      1.0  0.84996  0.54224  0.34022  1.0000
  H   H533      1.0  0.57480  0.51530  0.51700  1.0000
  S   S115      1.0  0.58795  0.99314  0.65913  1.0000
  S   S116      1.0  0.99556  0.51043  0.56061  1.0000
  C   C448      1.0  0.53739  0.50898  0.56539  1.0000
  C   C449      1.0  0.50770  0.89837  0.51165  1.0000
  H   H534      1.0  0.88507  0.50394  0.44694  1.0000
  H   H535      1.0  0.60822  0.89806  0.66814  1.0000
  Fe  Fe58      1.0  0.52761  0.99066  0.66812  1.0000
  H   H536      1.0  0.77380  0.58689  0.66675  1.0000
  C   C450      1.0  0.70720  0.55985  0.66759  1.0000
  C   C451      1.0  0.98731  0.50211  0.59687  1.0000
  S   S117      1.0  0.98481  0.62586  0.76696  1.0000
  S   S118      1.0  0.64205  0.68168  0.72845  1.0000
  S   S119      1.0  0.63121  0.60122  0.70140  1.0000
  Fe  Fe59      1.0  0.59447  0.64513  0.71714  1.0000
  S   S120      1.0  0.55328  0.63558  0.75223  1.0000
  Fe  Fe60      1.0  0.67847  0.64029  0.70886  1.0000
  S   S121      1.0  0.72691  0.61142  0.72928  1.0000
  Fe  Fe61      1.0  0.94366  0.60921  0.73385  1.0000
  S   S122      1.0  0.93577  0.55171  0.75054  1.0000
  S   S123      1.0  0.89756  0.64763  0.72139  1.0000
  C   C452      1.0  0.90972  0.66016  0.80765  1.0000
  N   N31       1.0  0.54620  0.75829  0.75261  1.0000
  H   H537      1.0  0.85256  0.60664  0.84717  1.0000
  H   H538      1.0  0.51712  0.55354  0.72020  1.0000
  H   H539      1.0  0.53115  0.74893  0.79623  1.0000
  C   C453      1.0  0.58564  0.75974  0.76009  1.0000
  Fe  Fe62      1.0  0.97904  0.56745  0.78259  1.0000
  H   H540      1.0  0.76766  0.67456  0.70555  1.0000
  H   H541      1.0  0.86679  0.65317  0.85422  1.0000
  H   H542      1.0  0.55868  0.74931  0.70844  1.0000
  C   C454      1.0  0.96484  0.51129  0.90339  1.0000
  H   H543      1.0  0.60244  0.77329  0.74332  1.0000
  H   H544      1.0  0.93493  0.64729  0.81641  1.0000
  C   C455      1.0  0.77407  0.62048  0.72341  1.0000
  C   C456      1.0  0.78692  0.65389  0.71214  1.0000
  C   C457      1.0  0.82489  0.66140  0.71093  1.0000
  C   C458      1.0  0.85030  0.63534  0.72033  1.0000
  C   C459      1.0  0.83736  0.60102  0.72985  1.0000
  C   C460      1.0  0.79945  0.59392  0.73185  1.0000
  H   H545      1.0  0.59685  0.73173  0.76320  1.0000
  H   H546      1.0  0.62254  0.84486  0.69914  1.0000
  H   H547      1.0  0.85646  0.58017  0.73623  1.0000
  H   H548      1.0  0.78974  0.56786  0.74033  1.0000
  C   C461      1.0  0.51133  0.87050  0.74295  1.0000
  H   H549      1.0  0.97466  0.56757  0.89056  1.0000
  C   C462      1.0  0.96891  0.53261  0.85438  1.0000
  H   H550      1.0  0.91532  0.66529  0.78481  1.0000
  Fe  Fe63      1.0  0.63485  0.70623  0.68489  1.0000
  C   C463      1.0  0.84257  0.65219  0.80081  1.0000
  H   H551      1.0  0.80707  0.60678  0.81494  1.0000
  H   H552      1.0  0.86065  0.58115  0.79907  1.0000
  H   H553      1.0  0.86637  0.70166  0.78053  1.0000
  H   H554      1.0  0.90856  0.58765  0.80503  1.0000
  N   N32       1.0  0.87687  0.63606  0.81175  1.0000
  C   C464      1.0  0.80903  0.69974  0.77470  1.0000
  H   H555      1.0  0.88778  0.60673  0.77408  1.0000
  C   C465      1.0  0.96989  0.53979  0.88343  1.0000
  C   C466      1.0  0.84185  0.68594  0.78542  1.0000
  H   H556      1.0  0.96570  0.51716  0.92570  1.0000
  H   H557      1.0  0.90666  0.68695  0.81829  1.0000
  H   H558      1.0  0.75061  0.63136  0.79518  1.0000
  C   C467      1.0  0.80858  0.63318  0.80439  1.0000
  H   H559      1.0  0.83462  0.68790  0.70329  1.0000
  C   C468      1.0  0.87374  0.62802  0.84243  1.0000
  H   H560      1.0  0.59046  0.77532  0.77984  1.0000
  H   H561      1.0  0.75111  0.69029  0.76920  1.0000
  C   C469      1.0  0.61901  0.84080  0.67672  1.0000
  C   C470      1.0  0.77623  0.68033  0.77860  1.0000
  C   C471      1.0  0.77602  0.64707  0.79333  1.0000
  Fe  Fe64      1.0  0.98307  0.53837  0.72201  1.0000
  C   C472      1.0  0.88361  0.60134  0.79693  1.0000
  H   H562      1.0  0.55034  0.70884  0.72829  1.0000
  H   H563      1.0  0.89989  0.61727  0.85129  1.0000
  S   S124      1.0  0.58540  0.67092  0.67450  1.0000
  H   H564      1.0  0.80923  0.72492  0.76228  1.0000
  H   H565      1.0  0.51254  0.73740  0.71875  1.0000
  S   S125      1.0  0.98827  0.59510  0.70364  1.0000
  H   H566      1.0  0.51074  0.96057  0.98005  1.0000
  S   S126      1.0  0.97458  0.56969  0.83040  1.0000
  C   C473      1.0  0.50915  0.54028  0.76409  1.0000
  H   H567      1.0  0.50306  0.96131  0.77157  1.0000
  H   H568      1.0  0.53734  0.53227  0.76724  1.0000
  C   C474      1.0  0.54161  0.73781  0.72588  1.0000
  H   H569      1.0  0.71088  0.54305  0.68714  1.0000
  S   S127      1.0  0.63320  0.76868  0.68907  1.0000
  H   H570      1.0  0.54647  0.87250  0.70671  1.0000
  C   C475      1.0  0.54636  0.81911  0.72693  1.0000
  C   C476      1.0  0.53557  0.85557  0.72384  1.0000
  C   C477      1.0  0.53283  0.79624  0.74912  1.0000
  C   C478      1.0  0.52691  0.73677  0.77504  1.0000
  H   H571      1.0  0.56594  0.80906  0.71199  1.0000
  H   H572      1.0  0.53750  0.70833  0.77678  1.0000
  S   S128      1.0  0.51183  0.97164  0.71230  1.0000
  H   H573      1.0  0.50437  0.65201  0.70448  1.0000
  C   C479      1.0  0.50620  0.64547  0.74967  1.0000
  H   H574      1.0  0.70942  0.58903  0.67409  1.0000
  C   C480      1.0  0.50786  0.81226  0.76817  1.0000
  H   H575      1.0  0.77707  0.53922  0.67604  1.0000
  H   H576      1.0  0.50345  0.89893  0.74062  1.0000
