data_image0
_chemical_formula_structural       FeS2CFeS2HSH2SNCHFeHC2HCHC2H3CH2C4H2FeH5SFeH4CHCNC3H2SCHCH5C2H2C2HFeH2S2FeS2FeS2FeSFeS3FeS2FeS2FeSFeS3FeSFeS2FeSFeS3FeSFeS2FeSFeS3FeHSCH3C3SH3CH2NCH2C2HCH2C3HC2H4C6H4C6H4C6H4C6H4C6H4C6H5CNC7H12NC8H12C5H4C2SCNCH2SH2SH2C4HC3H3CH5NC2H6C2H2C4H2CHC2H2C5H3CH2CH4CHCH3CHCH2CH2CHNC3HNH5C2H2CH2C2HSH2CH2CHCH5CHCH2CHCSCH2CHC5HNHC3HSHCH3CHCNH2CHC2NHCH2CH2C3H2CH3FeCH2C4HC3H3SCHNH4CH3C3H3CFeH2FeS2FeS2FeS2C2FeSFeSHC3H3C2HC2HC3HSH2C5FeHC2HCH2C2H9CHC2HNCH3CSH2CH2CSH4SHC4HSC2H2CSC3HCHCHC2H2CHCH2FeS2FeSH2SHFe2CFeS2HC2S2FeCSH2C2HCH2FeCHSN2FeCHC6H4C6H4CH3C3SH4C2H2CH2CHCH3NH2CHCH2C2HNC5H11SH3C2H3C2HC2SCHCSCHC4SH3CSH4NC2HCH5CH2CHCSCH4NHC2H2C2HCHSFeS2FeS2FeSFeS3FeS2CHCHFe2S3CS2FeSHSFeS2HCHFeC6H5C2HC6H5S2H2CSH3FeC2HCH2FeHFeHC6H4C3H2CH3C6H2NCH2C8HCHC2H4CH2NC9H13CNC9H14NC9H15NC6HCH2CH6C2H2CHSCHFeCH3C3H7NCHFeCH2C2SCSHCH2FeCH2SCH3SHC5HCH2CFeS2FeS2FeSFeS3HSC2SH3FeSCSFeS2FeSFeSFeS3FeS2FeS2Fe2S3HCHC7H4C6H4C6HCH2CHC4HC2H3CHC6H4C6H4C6H4CHC5HNHC5H2FeH7NC9H15SCNCH2C2HCSCNHCH2CH2CH3C2H11C2SHC2HC2H4NS2HFeH2C2HNHCH3C2H2CH4CH6C5HC4HC2H5CH6C2H6C2FeCHNC2SHCHNC2H6CNH4CH3CHC2HCHSFeS2FeS2FeSFeS3FeSCSHFeSFeHSHFeS2FeS2FeSFeS3FeS2FeS2FeSFeS3C2HC4H2C6H4C7H4C6H4C6H4C6H4C2HC2H3CH2C6H4NC9H11SCHCHCHNH2C2HCH2CHC3HSCH4C4HCH4C2H2CHCHNH2C3H4C3H2SNC9H14NC2H3C2HCH4CHC2HCH5C2FeCH4CHC3H3CH2C2H3CHNCH2C2H2CH4CH4CNH3C3H2NCH7C3HSC3FeH4CH3SCHC2N2C2HCH4C2H2FeS2FeNH2CSHS2FeS2FeSHFeHFeSCS2HNHC2HC4HC2H3C7H2CHC6HSH4CHCSHCH2FeSC6H4SNC8H10NC9H8CH2C2HSH3CHSCHC2HCHCHCH2CHCHFeCHCHCHC2H4C2H4CH4CHCH7CHNH2CHC2H2SCHCSC3HC2NH2CH2CH3C2H2CH2CHCHC2HCH6CHCHC2HC2HC2HSH2CHCFeH2C2FeS2FeS2Fe2S3FeS2FeSC2FeSCSFeHSFeS2FeSCS2FeNFeS3FeHS2C5H5C6H4C6H4C6H5NCHCNHCH3CHC4H4C3SH3NCHC2H2CH6CHSH3CHC3H6CSH2CH3FeHCH5C2H3NC2SHC4H2NH2SCHC5HC3HC3HCH2CHCSNC9H5FeH9CH3CH3C2SC2H8CH2CSFeSCFeS2HFeSHSFeS2FeS2FeNSC6H4CH2C2HC2SHCHCH4CH4SHCHCH2C2FeCSHCH4CSHCH2C2HCSHNC2H3C3HCH5NH3CH3CHC3HCH2C2H3CH5FeCHCHSCHCHFeS2FeS2FeSFeS3CSH5FeSHSCHFeS2FeS2FeSFeS3FeS2FeS2FeSFeS3C6H4C6H4C6H6C7H4C6H4C6H7CHC2H2CNH2CHC3HCH3C2NC7H9C2H4NC9H12SFeCH2C2NH4C2H2C2HC2H2C4H2CH2C3HC2H2C2HC4HCHCH2C2HNH2CH2CSHC2HC2H4C3H2C4NCH4CHNH4C2HCNH2C3H3C3H2CH7CH2C2H2CHCHCHCFeH2C2H3CSHC2H2C2H2FeS2FeSFeSFeS3FeS2FeS2FeHFeS2C6H4CHCH6CH2CHCH4FeC5H2NC6H2C2HCNCH2CH2SHCH5C3HSH3NHCHCHCH2SHC2SCH5CH4CH4C3H3CH
_chemical_formula_sum              "Fe144 S288 C1080 H1296 N72"
_cell_length_a       85.6274
_cell_length_b       88.171
_cell_length_c       33.4792
_cell_angle_alpha    89.5043
_cell_angle_beta     84.689
_cell_angle_gamma    110.037

_space_group_name_H-M_alt    "P 1"
_space_group_IT_number       1

loop_
  _space_group_symop_operation_xyz
  'x, y, z'

loop_
  _atom_site_type_symbol
  _atom_site_label
  _atom_site_symmetry_multiplicity
  _atom_site_fract_x
  _atom_site_fract_y
  _atom_site_fract_z
  _atom_site_occupancy
  Fe  Fe1       1.0  0.03367  0.47835  0.70657  1.0000
  S   S1        1.0  0.05555  0.46993  0.70955  1.0000
  S   S2        1.0  0.00724  0.46304  0.72982  1.0000
  C   C1        1.0  0.07114  0.47365  0.50946  1.0000
  Fe  Fe2       1.0  0.02742  0.47224  0.29251  1.0000
  S   S3        1.0  0.04641  0.46269  0.31458  1.0000
  S   S4        1.0  0.00709  0.46076  0.25253  1.0000
  H   H1        1.0  0.99890  0.48928  0.62987  1.0000
  S   S5        1.0  0.03374  0.46312  0.43568  1.0000
  H   H2        1.0  0.01466  0.41885  0.69759  1.0000
  H   H3        1.0  0.05273  0.46109  0.11687  1.0000
  S   S6        1.0  0.04140  0.48974  0.64472  1.0000
  N   N1        1.0  0.02211  0.42339  0.63375  1.0000
  C   C2        1.0  0.03295  0.44011  0.64074  1.0000
  H   H4        1.0  0.01274  0.49203  0.47506  1.0000
  Fe  Fe3       1.0  0.06517  0.48719  0.29298  1.0000
  H   H5        1.0  0.07297  0.45678  0.23992  1.0000
  C   C3        1.0  0.03668  0.46673  0.51616  1.0000
  C   C4        1.0  0.99775  0.41729  0.59075  1.0000
  H   H6        1.0  0.02848  0.43159  0.49419  1.0000
  C   C5        1.0  0.06568  0.46321  0.12087  1.0000
  H   H7        1.0  0.05154  0.42746  0.16439  1.0000
  C   C6        1.0  0.08779  0.46245  0.16022  1.0000
  C   C7        1.0  0.06438  0.44598  0.22633  1.0000
  H   H8        1.0  0.03727  0.41238  0.66288  1.0000
  H   H9        1.0  0.07124  0.43759  0.21825  1.0000
  H   H10       1.0  0.00692  0.46341  0.64254  1.0000
  C   C8        1.0  0.04519  0.46919  0.55084  1.0000
  H   H11       1.0  0.08446  0.47600  0.50674  1.0000
  H   H12       1.0  0.00208  0.43569  0.31492  1.0000
  C   C9        1.0  0.06244  0.47236  0.54780  1.0000
  C   C10       1.0  0.09452  0.47426  0.09245  1.0000
  C   C11       1.0  0.06268  0.47173  0.47457  1.0000
  C   C12       1.0  0.04534  0.46795  0.47787  1.0000
  H   H13       1.0  0.00089  0.40519  0.66643  1.0000
  H   H14       1.0  0.06949  0.47252  0.44530  1.0000
  Fe  Fe4       1.0  0.04269  0.47462  0.37265  1.0000
  H   H15       1.0  0.03952  0.43258  0.55905  1.0000
  H   H16       1.0  0.07380  0.47455  0.06151  1.0000
  H   H17       1.0  0.04411  0.44466  0.61830  1.0000
  H   H18       1.0  0.02479  0.40017  0.62660  1.0000
  H   H19       1.0  0.00113  0.42567  0.67100  1.0000
  S   S7        1.0  0.02228  0.48225  0.35122  1.0000
  Fe  Fe5       1.0  0.06406  0.48283  0.64838  1.0000
  H   H20       1.0  0.04232  0.46532  0.18052  1.0000
  H   H21       1.0  0.18668  0.48970  0.94010  1.0000
  H   H22       1.0  0.04336  0.41699  0.61060  1.0000
  H   H23       1.0  0.09270  0.46012  0.18726  1.0000
  C   C13       1.0  0.03231  0.41276  0.63341  1.0000
  H   H24       1.0  0.03783  0.44099  0.67060  1.0000
  C   C14       1.0  0.00909  0.41798  0.66854  1.0000
  N   N2        1.0  0.05747  0.45064  0.19093  1.0000
  C   C15       1.0  0.09959  0.47004  0.12796  1.0000
  C   C16       1.0  0.04854  0.46167  0.20468  1.0000
  C   C17       1.0  0.01520  0.42290  0.59461  1.0000
  H   H25       1.0  0.05436  0.43977  0.25068  1.0000
  H   H26       1.0  0.03791  0.43828  0.15376  1.0000
  S   S8        1.0  0.07312  0.47333  0.59128  1.0000
  C   C18       1.0  0.07038  0.45868  0.15750  1.0000
  H   H27       1.0  0.11282  0.47324  0.13100  1.0000
  C   C19       1.0  0.04519  0.43571  0.17711  1.0000
  H   H28       1.0  0.03575  0.42897  0.20211  1.0000
  H   H29       1.0  0.03851  0.45592  0.22936  1.0000
  H   H30       1.0  0.02600  0.44866  0.63964  1.0000
  H   H31       1.0  0.03823  0.46795  0.57993  1.0000
  H   H32       1.0  0.05730  0.47286  0.21610  1.0000
  C   C20       1.0  0.07761  0.47088  0.08893  1.0000
  C   C21       1.0  0.02609  0.42794  0.55860  1.0000
  H   H33       1.0  0.02326  0.46370  0.51913  1.0000
  H   H34       1.0  0.19328  0.49215  0.86435  1.0000
  C   C22       1.0  0.01990  0.42738  0.52121  1.0000
  C   C23       1.0  0.00275  0.42191  0.51854  1.0000
  H   H35       1.0  0.10379  0.48068  0.06811  1.0000
  Fe  Fe6       1.0  0.06892  0.49406  0.73567  1.0000
  H   H36       1.0  0.00733  0.49525  0.25092  1.0000
  H   H37       1.0  0.99806  0.42168  0.48950  1.0000
  S   S9        1.0  0.09034  0.49068  0.25683  1.0000
  S   S10       1.0  0.04630  0.49579  0.26747  1.0000
  Fe  Fe7       1.0  0.09316  0.63350  0.37525  1.0000
  S   S11       1.0  0.08898  0.64959  0.32796  1.0000
  S   S12       1.0  0.08641  0.63619  0.44149  1.0000
  Fe  Fe8       1.0  0.09885  0.61081  0.31197  1.0000
  S   S13       1.0  0.09506  0.62490  0.25990  1.0000
  S   S14       1.0  0.10456  0.58803  0.30424  1.0000
  Fe  Fe9       1.0  0.11099  0.64648  0.29088  1.0000
  S   S15       1.0  0.13397  0.66729  0.26399  1.0000
  Fe  Fe10      1.0  0.07345  0.62664  0.30131  1.0000
  S   S16       1.0  0.04715  0.62390  0.28835  1.0000
  S   S17       1.0  0.11626  0.63198  0.34058  1.0000
  S   S18       1.0  0.07619  0.61091  0.35086  1.0000
  Fe  Fe11      1.0  0.11396  0.61313  0.70220  1.0000
  S   S19       1.0  0.09868  0.61965  0.75196  1.0000
  S   S20       1.0  0.11971  0.59035  0.70585  1.0000
  Fe  Fe12      1.0  0.11863  0.64288  0.65164  1.0000
  S   S21       1.0  0.10412  0.65254  0.69859  1.0000
  S   S22       1.0  0.13042  0.65267  0.58888  1.0000
  Fe  Fe13      1.0  0.11815  0.64454  0.74395  1.0000
  S   S23       1.0  0.12457  0.65309  0.80682  1.0000
  Fe  Fe14      1.0  0.08597  0.62691  0.70365  1.0000
  S   S24       1.0  0.05793  0.62091  0.71269  1.0000
  S   S25       1.0  0.13427  0.63722  0.69655  1.0000
  S   S26       1.0  0.09956  0.61801  0.65417  1.0000
  Fe  Fe15      1.0  0.21721  0.71549  0.01121  1.0000
  S   S27       1.0  0.20509  0.69458  0.05714  1.0000
  Fe  Fe16      1.0  0.19344  0.69831  0.94864  1.0000
  S   S28       1.0  0.17974  0.67685  0.98971  1.0000
  S   S29       1.0  0.18930  0.69889  0.88233  1.0000
  Fe  Fe17      1.0  0.18050  0.69433  0.03856  1.0000
  S   S30       1.0  0.15553  0.68694  0.07755  1.0000
  Fe  Fe18      1.0  0.20488  0.67827  0.00581  1.0000
  S   S31       1.0  0.21155  0.65558  0.01018  1.0000
  S   S32       1.0  0.19223  0.71621  0.99570  1.0000
  S   S33       1.0  0.21900  0.69882  0.96165  1.0000
  Fe  Fe19      1.0  0.17928  0.53933  0.00308  1.0000
  S   S34       1.0  0.16476  0.55028  0.04751  1.0000
  Fe  Fe20      1.0  0.15259  0.53251  0.94304  1.0000
  S   S35       1.0  0.13677  0.54295  0.98252  1.0000
  S   S36       1.0  0.14792  0.52376  0.87931  1.0000
  Fe  Fe21      1.0  0.16052  0.56282  0.99287  1.0000
  S   S37       1.0  0.15682  0.58702  0.98954  1.0000
  Fe  Fe22      1.0  0.14170  0.52967  0.03504  1.0000
  S   S38       1.0  0.11719  0.51851  0.07633  1.0000
  S   S39       1.0  0.17636  0.55349  0.94945  1.0000
  S   S40       1.0  0.15621  0.51767  0.99433  1.0000
  Fe  Fe23      1.0  0.05622  0.51187  0.67453  1.0000
  H   H38       1.0  0.05645  0.51314  0.53581  1.0000
  S   S41       1.0  0.05572  0.53617  0.65632  1.0000
  C   C24       1.0  0.18087  0.60579  0.88209  1.0000
  H   H39       1.0  0.18835  0.50782  0.96710  1.0000
  H   H40       1.0  0.15492  0.59762  0.21808  1.0000
  H   H41       1.0  0.07366  0.60642  0.58365  1.0000
  C   C25       1.0  0.13028  0.57039  0.09459  1.0000
  C   C26       1.0  0.06690  0.55431  0.47901  1.0000
  C   C27       1.0  0.23535  0.53467  0.02485  1.0000
  S   S42       1.0  0.03771  0.52822  0.33460  1.0000
  H   H42       1.0  0.02219  0.60909  0.71516  1.0000
  H   H43       1.0  0.06312  0.59625  0.66117  1.0000
  H   H44       1.0  0.06770  0.57114  0.59442  1.0000
  C   C28       1.0  0.12165  0.68505  0.44557  1.0000
  H   H45       1.0  0.02679  0.54749  0.73727  1.0000
  H   H46       1.0  0.15353  0.61763  0.79383  1.0000
  N   N3        1.0  0.19694  0.51191  0.90387  1.0000
  C   C29       1.0  0.11037  0.51144  0.12721  1.0000
  H   H47       1.0  0.01336  0.60357  0.14122  1.0000
  H   H48       1.0  0.11284  0.51702  0.91087  1.0000
  C   C30       1.0  0.06541  0.57099  0.79176  1.0000
  C   C31       1.0  0.19108  0.73487  0.10499  1.0000
  H   H49       1.0  0.05853  0.59194  0.77979  1.0000
  C   C32       1.0  0.17454  0.72857  0.09637  1.0000
  H   H50       1.0  0.12908  0.68539  0.55958  1.0000
  H   H51       1.0  0.07904  0.55927  0.85425  1.0000
  C   C33       1.0  0.12868  0.51752  0.85676  1.0000
  C   C34       1.0  0.11328  0.51507  0.87899  1.0000
  C   C35       1.0  0.22704  0.52268  0.87468  1.0000
  H   H52       1.0  0.08947  0.55100  0.74958  1.0000
  C   C36       1.0  0.11392  0.50958  0.79638  1.0000
  C   C37       1.0  0.12888  0.51487  0.81527  1.0000
  H   H53       1.0  0.03168  0.56689  0.42185  1.0000
  H   H54       1.0  0.06847  0.55566  0.54166  1.0000
  H   H55       1.0  0.11432  0.50742  0.76460  1.0000
  H   H56       1.0  0.14068  0.51678  0.79761  1.0000
  C   C38       1.0  0.19619  0.63636  0.00630  1.0000
  C   C39       1.0  0.20079  0.62252  0.00542  1.0000
  C   C40       1.0  0.18881  0.60715  0.00124  1.0000
  C   C41       1.0  0.17218  0.60561  0.99788  1.0000
  C   C42       1.0  0.16756  0.61940  0.99951  1.0000
  C   C43       1.0  0.17948  0.63466  0.00384  1.0000
  H   H57       1.0  0.21369  0.62369  0.00749  1.0000
  H   H58       1.0  0.19249  0.59656  0.99996  1.0000
  H   H59       1.0  0.15471  0.61828  0.99700  1.0000
  H   H60       1.0  0.17566  0.64507  0.00498  1.0000
  C   C44       1.0  0.10230  0.57549  0.69005  1.0000
  C   C45       1.0  0.08684  0.57770  0.69410  1.0000
  C   C46       1.0  0.07269  0.56573  0.68248  1.0000
  C   C47       1.0  0.07388  0.55143  0.66745  1.0000
  C   C48       1.0  0.08940  0.54934  0.66244  1.0000
  C   C49       1.0  0.10365  0.56138  0.67384  1.0000
  H   H61       1.0  0.08563  0.58848  0.70700  1.0000
  H   H62       1.0  0.06073  0.56739  0.68607  1.0000
  H   H63       1.0  0.09052  0.53858  0.64935  1.0000
  H   H64       1.0  0.11566  0.55974  0.67022  1.0000
  C   C50       1.0  0.14287  0.66590  0.82655  1.0000
  C   C51       1.0  0.15749  0.67452  0.80222  1.0000
  C   C52       1.0  0.17155  0.68469  0.81969  1.0000
  C   C53       1.0  0.17126  0.68610  0.86159  1.0000
  C   C54       1.0  0.15676  0.67720  0.88591  1.0000
  C   C55       1.0  0.14264  0.66726  0.86844  1.0000
  H   H65       1.0  0.15783  0.67366  0.76996  1.0000
  H   H66       1.0  0.18268  0.69159  0.80058  1.0000
  H   H67       1.0  0.15628  0.67825  0.91814  1.0000
  H   H68       1.0  0.13136  0.66075  0.88754  1.0000
  C   C56       1.0  0.13997  0.67210  0.21185  1.0000
  C   C57       1.0  0.15643  0.68218  0.19897  1.0000
  C   C58       1.0  0.16162  0.68639  0.15784  1.0000
  C   C59       1.0  0.15024  0.68087  0.12924  1.0000
  C   C60       1.0  0.13381  0.67079  0.14216  1.0000
  C   C61       1.0  0.12875  0.66625  0.18311  1.0000
  H   H69       1.0  0.16520  0.68680  0.22097  1.0000
  H   H70       1.0  0.17424  0.69428  0.14843  1.0000
  H   H71       1.0  0.12486  0.66657  0.12034  1.0000
  H   H72       1.0  0.11603  0.65856  0.19249  1.0000
  C   C62       1.0  0.09900  0.63984  0.48189  1.0000
  C   C63       1.0  0.09134  0.63989  0.52083  1.0000
  C   C64       1.0  0.10075  0.64300  0.55403  1.0000
  C   C65       1.0  0.11805  0.64664  0.54842  1.0000
  C   C66       1.0  0.12573  0.64648  0.50950  1.0000
  C   C67       1.0  0.11622  0.64286  0.47638  1.0000
  H   H73       1.0  0.07806  0.63772  0.52537  1.0000
  H   H74       1.0  0.09472  0.64327  0.58376  1.0000
  H   H75       1.0  0.13912  0.64932  0.50497  1.0000
  H   H76       1.0  0.12228  0.64265  0.44671  1.0000
  C   C68       1.0  0.08595  0.57152  0.31336  1.0000
  C   C69       1.0  0.08648  0.55640  0.32438  1.0000
  C   C70       1.0  0.07167  0.54305  0.33059  1.0000
  C   C71       1.0  0.05628  0.54484  0.32658  1.0000
  C   C72       1.0  0.05573  0.56001  0.31591  1.0000
  C   C73       1.0  0.07059  0.57330  0.30878  1.0000
  H   H77       1.0  0.09830  0.55501  0.32852  1.0000
  H   H78       1.0  0.07220  0.53145  0.33915  1.0000
  H   H79       1.0  0.04387  0.56140  0.31215  1.0000
  H   H80       1.0  0.07015  0.58480  0.29878  1.0000
  H   H81       1.0  0.04322  0.50000  0.47656  1.0000
  C   C74       1.0  0.04743  0.54588  0.76738  1.0000
  N   N4        1.0  0.17930  0.64360  0.13090  1.0000
  C   C75       1.0  0.18959  0.65883  0.14800  1.0000
  C   C76       1.0  0.19087  0.63563  0.11305  1.0000
  C   C77       1.0  0.17085  0.64774  0.09785  1.0000
  C   C78       1.0  0.16673  0.63351  0.16266  1.0000
  C   C79       1.0  0.15472  0.63942  0.18232  1.0000
  C   C80       1.0  0.16630  0.61798  0.17601  1.0000
  C   C81       1.0  0.14337  0.63069  0.21410  1.0000
  H   H82       1.0  0.19571  0.65632  0.17395  1.0000
  H   H83       1.0  0.19958  0.66655  0.12530  1.0000
  H   H84       1.0  0.18206  0.66634  0.15872  1.0000
  H   H85       1.0  0.19813  0.63265  0.13593  1.0000
  H   H86       1.0  0.20034  0.64364  0.08990  1.0000
  H   H87       1.0  0.18409  0.62445  0.09775  1.0000
  H   H88       1.0  0.18006  0.65507  0.07320  1.0000
  H   H89       1.0  0.16258  0.63665  0.08477  1.0000
  H   H90       1.0  0.16308  0.65513  0.10767  1.0000
  H   H91       1.0  0.15423  0.65104  0.17362  1.0000
  H   H92       1.0  0.17473  0.61229  0.16255  1.0000
  H   H93       1.0  0.13456  0.63571  0.22910  1.0000
  N   N5        1.0  0.10720  0.55874  0.20007  1.0000
  C   C82       1.0  0.10193  0.54100  0.19581  1.0000
  C   C83       1.0  0.11816  0.56287  0.23302  1.0000
  C   C84       1.0  0.09187  0.56263  0.21175  1.0000
  C   C85       1.0  0.11632  0.56819  0.16307  1.0000
  C   C86       1.0  0.12095  0.58529  0.16129  1.0000
  C   C87       1.0  0.12131  0.56098  0.12858  1.0000
  C   C88       1.0  0.12991  0.59457  0.12714  1.0000
  C   C89       1.0  0.13458  0.58712  0.09386  1.0000
  H   H94       1.0  0.11285  0.53692  0.18983  1.0000
  H   H95       1.0  0.09477  0.53415  0.22373  1.0000
  H   H96       1.0  0.09371  0.53712  0.17119  1.0000
  H   H97       1.0  0.12993  0.56036  0.22506  1.0000
  H   H98       1.0  0.11192  0.55575  0.26125  1.0000
  H   H99       1.0  0.12161  0.57580  0.24030  1.0000
  H   H100      1.0  0.09467  0.57516  0.22199  1.0000
  H   H101      1.0  0.08405  0.56113  0.18630  1.0000
  H   H102      1.0  0.08398  0.55467  0.23739  1.0000
  H   H103      1.0  0.11773  0.59161  0.18650  1.0000
  H   H104      1.0  0.11848  0.54808  0.12688  1.0000
  H   H105      1.0  0.13325  0.60760  0.12651  1.0000
  C   C90       1.0  0.10163  0.68177  0.39447  1.0000
  C   C91       1.0  0.10816  0.68150  0.47646  1.0000
  C   C92       1.0  0.14052  0.68895  0.49864  1.0000
  C   C93       1.0  0.11095  0.68193  0.51701  1.0000
  C   C94       1.0  0.12707  0.68566  0.52807  1.0000
  H   H106      1.0  0.09330  0.66953  0.40637  1.0000
  H   H107      1.0  0.09680  0.69097  0.40809  1.0000
  H   H108      1.0  0.10029  0.68215  0.36174  1.0000
  H   H109      1.0  0.09527  0.67792  0.47025  1.0000
  C   C95       1.0  0.99982  0.57659  0.51056  1.0000
  C   C96       1.0  0.12111  0.50923  0.15396  1.0000
  S   S43       1.0  0.00747  0.56074  0.63386  1.0000
  C   C97       1.0  0.09933  0.60099  0.54217  1.0000
  N   N6        1.0  0.11925  0.68487  0.40227  1.0000
  C   C98       1.0  0.13791  0.68867  0.45798  1.0000
  H   H110      1.0  0.11696  0.65998  0.39728  1.0000
  H   H111      1.0  0.03760  0.60355  0.36183  1.0000
  S   S44       1.0  0.20325  0.53462  0.01772  1.0000
  H   H112      1.0  0.14872  0.69104  0.43633  1.0000
  H   H113      1.0  0.12652  0.71075  0.39689  1.0000
  S   S45       1.0  0.23918  0.73718  0.03074  1.0000
  H   H114      1.0  0.12307  0.67162  0.35050  1.0000
  H   H115      1.0  0.13752  0.63350  0.85957  1.0000
  C   C99       1.0  0.12454  0.67206  0.38325  1.0000
  C   C100      1.0  0.12953  0.70068  0.38215  1.0000
  C   C101      1.0  0.15489  0.60932  0.20795  1.0000
  C   C102      1.0  0.14354  0.61572  0.22717  1.0000
  H   H116      1.0  0.12743  0.70114  0.34984  1.0000
  C   C103      1.0  0.04987  0.59406  0.66609  1.0000
  C   C104      1.0  0.03736  0.55393  0.75340  1.0000
  C   C105      1.0  0.01845  0.49820  0.50072  1.0000
  H   H117      1.0  0.11139  0.61859  0.83215  1.0000
  H   H118      1.0  0.14314  0.70319  0.38254  1.0000
  H   H119      1.0  0.13787  0.67382  0.38604  1.0000
  C   C106      1.0  0.13836  0.62150  0.86728  1.0000
  H   H120      1.0  0.13109  0.61780  0.89723  1.0000
  H   H121      1.0  0.13425  0.61027  0.77122  1.0000
  H   H122      1.0  0.04438  0.58087  0.38302  1.0000
  H   H123      1.0  0.15172  0.62334  0.87001  1.0000
  H   H124      1.0  0.14151  0.59428  0.06731  1.0000
  N   N7        1.0  0.13162  0.60957  0.83656  1.0000
  C   C107      1.0  0.11359  0.60694  0.83658  1.0000
  C   C108      1.0  0.14030  0.61696  0.79687  1.0000
  H   H125      1.0  0.10649  0.60115  0.86551  1.0000
  H   H126      1.0  0.14017  0.62944  0.79207  1.0000
  H   H127      1.0  0.13391  0.56463  0.06851  1.0000
  H   H128      1.0  0.12975  0.55811  0.79809  1.0000
  H   H129      1.0  0.10805  0.59910  0.81199  1.0000
  H   H130      1.0  0.13485  0.60912  0.25229  1.0000
  C   C109      1.0  0.22533  0.54055  0.00229  1.0000
  C   C110      1.0  0.13368  0.59381  0.84415  1.0000
  H   H131      1.0  0.14012  0.59724  0.90652  1.0000
  H   H132      1.0  0.12686  0.58428  0.78564  1.0000
  C   C111      1.0  0.13058  0.58201  0.81444  1.0000
  C   C112      1.0  0.13782  0.58931  0.88164  1.0000
  C   C113      1.0  0.13918  0.57415  0.88823  1.0000
  C   C114      1.0  0.13203  0.56690  0.82135  1.0000
  H   H133      1.0  0.12316  0.50100  0.21363  1.0000
  H   H134      1.0  0.05725  0.59062  0.56338  1.0000
  C   C115      1.0  0.13637  0.56301  0.85815  1.0000
  H   H135      1.0  0.14242  0.57099  0.91699  1.0000
  C   C116      1.0  0.18655  0.62204  0.89170  1.0000
  C   C117      1.0  0.06957  0.56253  0.44187  1.0000
  H   H136      1.0  0.07806  0.58572  0.41059  1.0000
  H   H137      1.0  0.13750  0.55131  0.86349  1.0000
  C   C118      1.0  0.03567  0.50270  0.50145  1.0000
  C   C119      1.0  0.03263  0.60491  0.27835  1.0000
  C   C120      1.0  0.03779  0.59219  0.26526  1.0000
  C   C121      1.0  0.04406  0.60434  0.68992  1.0000
  C   C122      1.0  0.07048  0.59881  0.55710  1.0000
  H   H138      1.0  0.08902  0.57209  0.58158  1.0000
  H   H139      1.0  0.17497  0.58897  0.83494  1.0000
  H   H140      1.0  0.04297  0.57264  0.63145  1.0000
  C   C123      1.0  0.02677  0.60119  0.69670  1.0000
  H   H141      1.0  0.08451  0.58693  0.61184  1.0000
  H   H142      1.0  0.07105  0.60711  0.53141  1.0000
  C   C124      1.0  0.09334  0.50760  0.14083  1.0000
  H   H143      1.0  0.00283  0.57802  0.35949  1.0000
  H   H144      1.0  0.09429  0.56537  0.81040  1.0000
  H   H145      1.0  0.19921  0.53433  0.93143  1.0000
  H   H146      1.0  0.22574  0.55518  0.95016  1.0000
  C   C125      1.0  0.03846  0.58072  0.64927  1.0000
  H   H147      1.0  0.20207  0.53588  0.87769  1.0000
  C   C126      1.0  0.00875  0.57520  0.26059  1.0000
  H   H148      1.0  0.24193  0.50730  0.96766  1.0000
  H   H149      1.0  0.05096  0.59389  0.26115  1.0000
  H   H150      1.0  0.13421  0.51205  0.14398  1.0000
  C   C127      1.0  0.00357  0.58775  0.27483  1.0000
  H   H151      1.0  0.19501  0.72968  0.13002  1.0000
  C   C128      1.0  0.19122  0.50393  0.86636  1.0000
  H   H152      1.0  0.21138  0.66240  0.81758  1.0000
  H   H153      1.0  0.15297  0.69133  0.50757  1.0000
  C   C129      1.0  0.19085  0.63467  0.86170  1.0000
  H   H154      1.0  0.02174  0.57473  0.34383  1.0000
  H   H155      1.0  0.19206  0.63870  0.79638  1.0000
  C   C130      1.0  0.04124  0.57041  0.75860  1.0000
  H   H156      1.0  0.22176  0.65269  0.87741  1.0000
  N   N8        1.0  0.07202  0.54519  0.80235  1.0000
  C   C131      1.0  0.08070  0.57940  0.58551  1.0000
  C   C132      1.0  0.07072  0.56284  0.51399  1.0000
  C   C133      1.0  0.23305  0.55042  0.96792  1.0000
  H   H157      1.0  0.10048  0.67878  0.54013  1.0000
  N   N9        1.0  0.08186  0.58951  0.54884  1.0000
  H   H158      1.0  0.00520  0.53456  0.57125  1.0000
  H   H159      1.0  0.22965  0.52705  0.05150  1.0000
  H   H160      1.0  0.10338  0.60781  0.56946  1.0000
  H   H161      1.0  0.02999  0.56781  0.24483  1.0000
  H   H162      1.0  0.10821  0.59456  0.53378  1.0000
  C   C134      1.0  0.21479  0.51412  0.90615  1.0000
  C   C135      1.0  0.04311  0.51019  0.53472  1.0000
  H   H163      1.0  0.02393  0.53338  0.62277  1.0000
  H   H164      1.0  0.01092  0.50248  0.30017  1.0000
  C   C136      1.0  0.07738  0.58004  0.51263  1.0000
  H   H165      1.0  0.18245  0.61032  0.78094  1.0000
  H   H166      1.0  0.07622  0.57842  0.80532  1.0000
  C   C137      1.0  0.01152  0.57785  0.47739  1.0000
  C   C138      1.0  0.07582  0.57936  0.43960  1.0000
  H   H167      1.0  0.17154  0.65233  0.88366  1.0000
  S   S46       1.0  0.07964  0.50602  0.67460  1.0000
  H   H168      1.0  0.00699  0.56131  0.38141  1.0000
  H   H169      1.0  0.06901  0.52419  0.84043  1.0000
  C   C139      1.0  0.02778  0.60157  0.38751  1.0000
  H   H170      1.0  0.20519  0.67629  0.84812  1.0000
  H   H171      1.0  0.10104  0.61036  0.51823  1.0000
  C   C140      1.0  0.05532  0.57896  0.77728  1.0000
  H   H172      1.0  0.03346  0.60984  0.41129  1.0000
  C   C141      1.0  0.06139  0.53046  0.82659  1.0000
  H   H173      1.0  0.05318  0.52121  0.80826  1.0000
  H   H174      1.0  0.04002  0.51940  0.59173  1.0000
  H   H175      1.0  0.01466  0.51668  0.25931  1.0000
  H   H176      1.0  0.17763  0.59640  0.90578  1.0000
  H   H177      1.0  0.07211  0.53281  0.74691  1.0000
  C   C142      1.0  0.03571  0.57973  0.41077  1.0000
  H   H178      1.0  0.18758  0.62465  0.92299  1.0000
  C   C143      1.0  0.03343  0.51358  0.56703  1.0000
  H   H179      1.0  0.04326  0.58766  0.43287  1.0000
  H   H180      1.0  0.06202  0.54120  0.48061  1.0000
  C   C144      1.0  0.02119  0.57758  0.65602  1.0000
  H   H181      1.0  0.02243  0.57502  0.48312  1.0000
  C   C145      1.0  0.08710  0.50167  0.18056  1.0000
  S   S47       1.0  0.06307  0.49818  0.35341  1.0000
  C   C146      1.0  0.18913  0.62999  0.82131  1.0000
  H   H182      1.0  0.05335  0.53342  0.85107  1.0000
  H   H183      1.0  0.09204  0.54765  0.83944  1.0000
  C   C147      1.0  0.18299  0.65466  0.89933  1.0000
  H   H184      1.0  0.17952  0.64703  0.92748  1.0000
  C   C148      1.0  0.01535  0.58785  0.67984  1.0000
  C   C149      1.0  0.02589  0.57745  0.25593  1.0000
  C   C150      1.0  0.18355  0.61366  0.81195  1.0000
  C   C151      1.0  0.09848  0.50667  0.81888  1.0000
  C   C152      1.0  0.01549  0.60260  0.28322  1.0000
  H   H185      1.0  0.00625  0.52418  0.65792  1.0000
  N   N10       1.0  0.00516  0.51276  0.60073  1.0000
  H   H186      1.0  0.06689  0.55586  0.41474  1.0000
  C   C153      1.0  0.08487  0.55489  0.82780  1.0000
  C   C154      1.0  0.22064  0.50851  0.93974  1.0000
  C   C155      1.0  0.17937  0.60160  0.84227  1.0000
  H   H187      1.0  0.21629  0.66822  0.90357  1.0000
  S   S48       1.0  0.04613  0.50136  0.73634  1.0000
  H   H188      1.0  0.16562  0.71861  0.11474  1.0000
  C   C156      1.0  0.00610  0.50464  0.27183  1.0000
  H   H189      1.0  0.01141  0.61241  0.29327  1.0000
  H   H190      1.0  0.18154  0.52676  0.90267  1.0000
  H   H191      1.0  0.19773  0.51145  0.83899  1.0000
  C   C157      1.0  0.00034  0.59758  0.13651  1.0000
  H   H192      1.0  0.04425  0.53325  0.76113  1.0000
  C   C158      1.0  0.00862  0.50137  0.53310  1.0000
  N   N11       1.0  0.02118  0.58447  0.40275  1.0000
  H   H193      1.0  0.03354  0.57666  0.74714  1.0000
  H   H194      1.0  0.08842  0.53306  0.77689  1.0000
  C   C159      1.0  0.07945  0.58803  0.47440  1.0000
  H   H195      1.0  0.20884  0.64817  0.92431  1.0000
  C   C160      1.0  0.20097  0.66357  0.83831  1.0000
  C   C161      1.0  0.21147  0.65531  0.89543  1.0000
  N   N12       1.0  0.19651  0.65176  0.87308  1.0000
  H   H196      1.0  0.19003  0.66228  0.82131  1.0000
  C   C162      1.0  0.06160  0.55407  0.78774  1.0000
  H   H197      1.0  0.08404  0.60109  0.47103  1.0000
  H   H198      1.0  0.18684  0.66739  0.90858  1.0000
  C   C163      1.0  0.08085  0.54028  0.76749  1.0000
  H   H199      1.0  0.00207  0.58555  0.68523  1.0000
  H   H200      1.0  0.02112  0.51423  0.64807  1.0000
  C   C164      1.0  0.18564  0.50191  0.93797  1.0000
  C   C165      1.0  0.01583  0.50929  0.56719  1.0000
  C   C166      1.0  0.19487  0.52791  0.90382  1.0000
  H   H201      1.0  0.08489  0.50920  0.12040  1.0000
  H   H202      1.0  0.22363  0.52775  0.84878  1.0000
  C   C167      1.0  0.01459  0.52145  0.63366  1.0000
  H   H203      1.0  0.17229  0.50014  0.93480  1.0000
  H   H204      1.0  0.01796  0.60562  0.37630  1.0000
  H   H205      1.0  0.07403  0.49898  0.19039  1.0000
  Fe  Fe24      1.0  0.04276  0.50492  0.32853  1.0000
  C   C168      1.0  0.09832  0.50960  0.86022  1.0000
  H   H206      1.0  0.21245  0.50256  0.96600  1.0000
  H   H207      1.0  0.00226  0.61050  0.08060  1.0000
  C   C169      1.0  0.24402  0.52538  0.87665  1.0000
  C   C170      1.0  0.01280  0.57419  0.37065  1.0000
  C   C171      1.0  0.09775  0.49911  0.20709  1.0000
  C   C172      1.0  0.00903  0.58277  0.43853  1.0000
  H   H208      1.0  0.08650  0.50735  0.87807  1.0000
  C   C173      1.0  0.23764  0.51116  0.94119  1.0000
  C   C174      1.0  0.11478  0.50295  0.19348  1.0000
  C   C175      1.0  0.16956  0.73469  0.06327  1.0000
  H   H209      1.0  0.15681  0.72924  0.05583  1.0000
  H   H210      1.0  0.17763  0.50161  0.86471  1.0000
  H   H211      1.0  0.00195  0.57294  0.54009  1.0000
  S   S49       1.0  0.07899  0.49919  0.79759  1.0000
  C   C176      1.0  0.20278  0.78015  0.01166  1.0000
  H   H212      1.0  0.23458  0.78601  0.01866  1.0000
  N   N13       1.0  0.21000  0.76756  0.02087  1.0000
  H   H213      1.0  0.23299  0.76763  0.04270  1.0000
  H   H214      1.0  0.19240  0.77581  0.99233  1.0000
  H   H215      1.0  0.19798  0.78448  0.03975  1.0000
  H   H216      1.0  0.22359  0.78077  0.06814  1.0000
  C   C177      1.0  0.22589  0.77584  0.03857  1.0000
  H   H217      1.0  0.21219  0.79083  0.99478  1.0000
  H   H218      1.0  0.21539  0.75141  0.08865  1.0000
  H   H219      1.0  0.22348  0.76986  0.96202  1.0000
  C   C178      1.0  0.18105  0.74735  0.03899  1.0000
  C   C179      1.0  0.19792  0.75442  0.04757  1.0000
  C   C180      1.0  0.21402  0.76060  0.98283  1.0000
  H   H220      1.0  0.20277  0.75501  0.96668  1.0000
  H   H221      1.0  0.21921  0.75090  0.98862  1.0000
  H   H222      1.0  0.17668  0.75114  0.01275  1.0000
  C   C181      1.0  0.20269  0.74753  0.08095  1.0000
  Fe  Fe25      1.0  0.47931  0.09194  0.35884  1.0000
  H   H223      1.0  0.48944  0.10515  0.56258  1.0000
  H   H224      1.0  0.42950  0.05772  0.53559  1.0000
  Fe  Fe26      1.0  0.47650  0.10642  0.27555  1.0000
  S   S50       1.0  0.47103  0.08247  0.24644  1.0000
  S   S51       1.0  0.48550  0.13206  0.24753  1.0000
  Fe  Fe27      1.0  0.45443  0.07204  0.30359  1.0000
  S   S52       1.0  0.42915  0.05233  0.30273  1.0000
  S   S53       1.0  0.45823  0.09637  0.33077  1.0000
  Fe  Fe28      1.0  0.47242  0.07472  0.69558  1.0000
  S   S54       1.0  0.45383  0.08764  0.70052  1.0000
  S   S55       1.0  0.46891  0.04794  0.69433  1.0000
  C   C182      1.0  0.49562  0.24028  0.89571  1.0000
  C   C183      1.0  0.45496  0.00734  0.77407  1.0000
  Fe  Fe29      1.0  0.47230  0.10637  0.73539  1.0000
  S   S56       1.0  0.46651  0.11613  0.79606  1.0000
  Fe  Fe30      1.0  0.46883  0.10198  0.64497  1.0000
  S   S57       1.0  0.45623  0.10514  0.59011  1.0000
  H   H225      1.0  0.48248  0.15340  0.90621  1.0000
  C   C184      1.0  0.46740  0.00142  0.75862  1.0000
  C   C185      1.0  0.48536  0.15139  0.87496  1.0000
  C   C186      1.0  0.46408  0.09949  0.47000  1.0000
  H   H226      1.0  0.48212  0.12134  0.37487  1.0000
  H   H227      1.0  0.46663  0.11627  0.18147  1.0000
  H   H228      1.0  0.48182  0.21228  0.94309  1.0000
  C   C187      1.0  0.47536  0.13738  0.85710  1.0000
  C   C188      1.0  0.47537  0.12795  0.17046  1.0000
  H   H229      1.0  0.39666  0.01093  0.37811  1.0000
  C   C189      1.0  0.44955  0.03202  0.69405  1.0000
  C   C190      1.0  0.44939  0.01697  0.68018  1.0000
  H   H230      1.0  0.40983  0.01362  0.41830  1.0000
  C   C191      1.0  0.41932  0.00545  0.69704  1.0000
  C   C192      1.0  0.41945  0.02056  0.71034  1.0000
  C   C193      1.0  0.43450  0.03382  0.70876  1.0000
  H   H231      1.0  0.46101  0.01545  0.66907  1.0000
  S   S58       1.0  0.48538  0.12175  0.68011  1.0000
  H   H232      1.0  0.40788  0.02195  0.72246  1.0000
  H   H233      1.0  0.43452  0.04527  0.72016  1.0000
  C   C194      1.0  0.48606  0.13785  0.19623  1.0000
  C   C195      1.0  0.42567  0.02572  0.59977  1.0000
  C   C196      1.0  0.48223  0.10338  0.53711  1.0000
  C   C197      1.0  0.42952  0.03268  0.29466  1.0000
  C   C198      1.0  0.41462  0.01978  0.29074  1.0000
  Fe  Fe31      1.0  0.49094  0.07922  0.28092  1.0000
  H   H234      1.0  0.48352  0.19908  0.90452  1.0000
  C   C199      1.0  0.44467  0.01392  0.28897  1.0000
  C   C200      1.0  0.44455  0.02968  0.29311  1.0000
  H   H235      1.0  0.40297  0.02207  0.29127  1.0000
  C   C201      1.0  0.42984  0.00099  0.28572  1.0000
  H   H236      1.0  0.45636  0.01180  0.28841  1.0000
  H   H237      1.0  0.45612  0.03951  0.29515  1.0000
  C   C202      1.0  0.46580  0.10325  0.54208  1.0000
  C   C203      1.0  0.45681  0.10148  0.50828  1.0000
  H   H238      1.0  0.43334  0.07639  0.56054  1.0000
  H   H239      1.0  0.41262  0.06231  0.56260  1.0000
  H   H240      1.0  0.49275  0.23768  0.96131  1.0000
  H   H241      1.0  0.48174  0.00750  0.27261  1.0000
  H   H242      1.0  0.44416  0.10159  0.51172  1.0000
  H   H243      1.0  0.45423  0.07194  0.59802  1.0000
  H   H244      1.0  0.42517  0.05760  0.66376  1.0000
  H   H245      1.0  0.47083  0.21149  0.89960  1.0000
  H   H246      1.0  0.49347  0.13206  0.43702  1.0000
  C   C204      1.0  0.41560  0.00940  0.60146  1.0000
  H   H247      1.0  0.46673  0.12596  0.11145  1.0000
  C   C205      1.0  0.42381  0.06347  0.63536  1.0000
  C   C206      1.0  0.42588  0.06326  0.56305  1.0000
  H   H248      1.0  0.37736  0.01315  0.61172  1.0000
  N   N14       1.0  0.42873  0.05553  0.59986  1.0000
  C   C207      1.0  0.39087  0.01674  0.60768  1.0000
  H   H249      1.0  0.48999  0.00715  0.37678  1.0000
  H   H250      1.0  0.48004  0.00990  0.75601  1.0000
  H   H251      1.0  0.41072  0.06319  0.63654  1.0000
  C   C208      1.0  0.48635  0.14884  0.11612  1.0000
  S   S59       1.0  0.48541  0.15541  0.06628  1.0000
  H   H252      1.0  0.45190  0.05399  0.57179  1.0000
  H   H253      1.0  0.45005  0.05350  0.62626  1.0000
  C   C209      1.0  0.48049  0.09951  0.46530  1.0000
  H   H254      1.0  0.43898  0.02826  0.59801  1.0000
  H   H255      1.0  0.45825  0.01988  0.78205  1.0000
  C   C210      1.0  0.49241  0.14589  0.79388  1.0000
  S   S60       1.0  0.49072  0.09792  0.41802  1.0000
  H   H256      1.0  0.46489  0.12866  0.87494  1.0000
  H   H257      1.0  0.43166  0.07651  0.63525  1.0000
  H   H258      1.0  0.41607  0.00766  0.37026  1.0000
  H   H259      1.0  0.42856  0.00228  0.78794  1.0000
  S   S61       1.0  0.48640  0.08816  0.63866  1.0000
  H   H260      1.0  0.39446  0.04179  0.60669  1.0000
  C   C211      1.0  0.40080  0.03310  0.60528  1.0000
  C   C212      1.0  0.48274  0.21129  0.90996  1.0000
  C   C213      1.0  0.47898  0.13439  0.81663  1.0000
  C   C214      1.0  0.48377  0.13394  0.36530  1.0000
  H   H261      1.0  0.45705  0.09808  0.44420  1.0000
  S   S62       1.0  0.47419  0.06709  0.33571  1.0000
  C   C215      1.0  0.47540  0.13350  0.13079  1.0000
  C   C216      1.0  0.44698  0.05875  0.59893  1.0000
  H   H262      1.0  0.47225  0.13632  0.37687  1.0000
  H   H263      1.0  0.48436  0.13443  0.33199  1.0000
  C   C217      1.0  0.40514  0.00595  0.39274  1.0000
  S   S63       1.0  0.48946  0.09202  0.73504  1.0000
  C   C218      1.0  0.41853  0.03811  0.60185  1.0000
  C   C219      1.0  0.41478  0.00395  0.28597  1.0000
  C   C220      1.0  0.43433  0.00374  0.68145  1.0000
  H   H264      1.0  0.48549  0.14811  0.43616  1.0000
  C   C221      1.0  0.39826  0.00492  0.60593  1.0000
  H   H265      1.0  0.48733  0.22030  0.83174  1.0000
  C   C222      1.0  0.48954  0.10161  0.49892  1.0000
  H   H266      1.0  0.42125  0.00012  0.60126  1.0000
  C   C223      1.0  0.49339  0.24534  0.93533  1.0000
  C   C224      1.0  0.49306  0.00461  0.27016  1.0000
  H   H267      1.0  0.49030  0.16584  0.38068  1.0000
  H   H268      1.0  0.49526  0.14390  0.76263  1.0000
  C   C225      1.0  0.49636  0.14460  0.42472  1.0000
  H   H269      1.0  0.49596  0.00143  0.71029  1.0000
  C   C226      1.0  0.43821  0.99746  0.77741  1.0000
  H   H270      1.0  0.32032  0.49541  0.16627  1.0000
  H   H271      1.0  0.32562  0.46820  0.81220  1.0000
  Fe  Fe32      1.0  0.46374  0.42327  0.27876  1.0000
  S   S64       1.0  0.46574  0.40002  0.30187  1.0000
  S   S65       1.0  0.44018  0.42490  0.25701  1.0000
  Fe  Fe33      1.0  0.47688  0.41459  0.35391  1.0000
  S   S66       1.0  0.46527  0.40685  0.41811  1.0000
  H   H272      1.0  0.47053  0.35764  0.95014  1.0000
  H   H273      1.0  0.35648  0.48313  0.72239  1.0000
  S   S67       1.0  0.47326  0.43710  0.33227  1.0000
  H   H274      1.0  0.36540  0.48197  0.47324  1.0000
  Fe  Fe34      1.0  0.48018  0.39987  0.71782  1.0000
  Fe  Fe35      1.0  0.48830  0.41995  0.63740  1.0000
  C   C227      1.0  0.46978  0.39086  0.86387  1.0000
  Fe  Fe36      1.0  0.45591  0.41559  0.68965  1.0000
  S   S68       1.0  0.47633  0.43747  0.66155  1.0000
  S   S69       1.0  0.42820  0.40982  0.68715  1.0000
  H   H275      1.0  0.45060  0.49526  0.34729  1.0000
  C   C228      1.0  0.49487  0.38002  0.79072  1.0000
  C   C229      1.0  0.46936  0.40640  0.86834  1.0000
  S   S70       1.0  0.46696  0.39788  0.66167  1.0000
  S   S71       1.0  0.46732  0.41572  0.74760  1.0000
  Fe  Fe37      1.0  0.39081  0.47943  0.66572  1.0000
  C   C230      1.0  0.45309  0.37366  0.56119  1.0000
  S   S72       1.0  0.38209  0.45227  0.66890  1.0000
  H   H276      1.0  0.49252  0.36649  0.93198  1.0000
  H   H277      1.0  0.39480  0.46668  0.84170  1.0000
  C   C231      1.0  0.47578  0.37529  0.51138  1.0000
  C   C232      1.0  0.33039  0.44659  0.76103  1.0000
  H   H278      1.0  0.44507  0.37285  0.53637  1.0000
  C   C233      1.0  0.47747  0.36978  0.58335  1.0000
  H   H279      1.0  0.46621  0.41254  0.84375  1.0000
  H   H280      1.0  0.40149  0.46909  0.46272  1.0000
  Fe  Fe38      1.0  0.49180  0.40917  0.26952  1.0000
  C   C234      1.0  0.47022  0.38053  0.00175  1.0000
  H   H281      1.0  0.33758  0.47058  0.70382  1.0000
  S   S73       1.0  0.39387  0.49326  0.72212  1.0000
  N   N15       1.0  0.46668  0.36719  0.55007  1.0000
  N   N16       1.0  0.48250  0.38232  0.96615  1.0000
  Fe  Fe39      1.0  0.48886  0.43603  0.71692  1.0000
  C   C235      1.0  0.41314  0.45296  0.43535  1.0000
  H   H282      1.0  0.36474  0.44889  0.74615  1.0000
  C   C236      1.0  0.39594  0.44155  0.67426  1.0000
  C   C237      1.0  0.41318  0.44914  0.67673  1.0000
  C   C238      1.0  0.42349  0.43971  0.68087  1.0000
  C   C239      1.0  0.41650  0.42275  0.68245  1.0000
  C   C240      1.0  0.39933  0.41540  0.68022  1.0000
  C   C241      1.0  0.38916  0.42469  0.67617  1.0000
  H   H283      1.0  0.41847  0.46218  0.67537  1.0000
  H   H284      1.0  0.43671  0.44543  0.68295  1.0000
  H   H285      1.0  0.39382  0.40235  0.68153  1.0000
  H   H286      1.0  0.37592  0.41871  0.67434  1.0000
  C   C242      1.0  0.43922  0.44452  0.25787  1.0000
  C   C243      1.0  0.45287  0.45746  0.26806  1.0000
  C   C244      1.0  0.45175  0.47289  0.27114  1.0000
  C   C245      1.0  0.43715  0.47562  0.26315  1.0000
  C   C246      1.0  0.42345  0.46274  0.25276  1.0000
  C   C247      1.0  0.42450  0.44717  0.25015  1.0000
  H   H287      1.0  0.46436  0.45565  0.27338  1.0000
  H   H288      1.0  0.46233  0.48281  0.27945  1.0000
  H   H289      1.0  0.41215  0.46479  0.24641  1.0000
  H   H290      1.0  0.41389  0.43717  0.24225  1.0000
  C   C248      1.0  0.47609  0.41387  0.46057  1.0000
  H   H291      1.0  0.44485  0.36717  0.58819  1.0000
  H   H292      1.0  0.47022  0.39235  0.01293  1.0000
  H   H293      1.0  0.33865  0.48596  0.78209  1.0000
  C   C249      1.0  0.47496  0.41714  0.53316  1.0000
  C   C250      1.0  0.46686  0.41319  0.49795  1.0000
  C   C251      1.0  0.34105  0.48236  0.28783  1.0000
  S   S74       1.0  0.43697  0.49544  0.26561  1.0000
  H   H294      1.0  0.46774  0.41647  0.56184  1.0000
  H   H295      1.0  0.45338  0.40935  0.49980  1.0000
  H   H296      1.0  0.47566  0.37439  0.11896  1.0000
  H   H297      1.0  0.35478  0.46355  0.70482  1.0000
  C   C252      1.0  0.38393  0.46592  0.82653  1.0000
  C   C253      1.0  0.35575  0.46432  0.78591  1.0000
  H   H298      1.0  0.46902  0.34409  0.53816  1.0000
  H   H299      1.0  0.38892  0.45065  0.78090  1.0000
  C   C254      1.0  0.48103  0.36375  0.65305  1.0000
  H   H300      1.0  0.45731  0.37354  0.99474  1.0000
  H   H301      1.0  0.47959  0.38818  0.18370  1.0000
  C   C255      1.0  0.48291  0.36597  0.95732  1.0000
  H   H302      1.0  0.45829  0.38659  0.56869  1.0000
  C   C256      1.0  0.45753  0.48836  0.69201  1.0000
  H   H303      1.0  0.49457  0.28369  0.91648  1.0000
  H   H304      1.0  0.48775  0.35432  0.80204  1.0000
  H   H305      1.0  0.32063  0.47221  0.76334  1.0000
  N   N17       1.0  0.32777  0.48894  0.30204  1.0000
  H   H306      1.0  0.33132  0.48429  0.21868  1.0000
  H   H307      1.0  0.46695  0.38501  0.83568  1.0000
  C   C257      1.0  0.47798  0.39035  0.93222  1.0000
  H   H308      1.0  0.30829  0.46569  0.30572  1.0000
  C   C258      1.0  0.47136  0.36099  0.62065  1.0000
  H   H309      1.0  0.34695  0.47895  0.31318  1.0000
  H   H310      1.0  0.47995  0.41252  0.96321  1.0000
  C   C259      1.0  0.47075  0.47732  0.63944  1.0000
  C   C260      1.0  0.36668  0.45598  0.77258  1.0000
  H   H311      1.0  0.37591  0.48107  0.86748  1.0000
  N   N18       1.0  0.42611  0.43427  0.40041  1.0000
  C   C261      1.0  0.42996  0.42877  0.36004  1.0000
  C   C262      1.0  0.44189  0.44008  0.41971  1.0000
  C   C263      1.0  0.41427  0.41992  0.42393  1.0000
  C   C264      1.0  0.38060  0.45688  0.79246  1.0000
  C   C265      1.0  0.47307  0.41403  0.90428  1.0000
  H   H312      1.0  0.43969  0.43860  0.34144  1.0000
  H   H313      1.0  0.43499  0.41869  0.36169  1.0000
  H   H314      1.0  0.41868  0.42434  0.34336  1.0000
  H   H315      1.0  0.44789  0.43068  0.42049  1.0000
  H   H316      1.0  0.43990  0.44338  0.45125  1.0000
  H   H317      1.0  0.45108  0.45092  0.40297  1.0000
  H   H318      1.0  0.40193  0.41574  0.41156  1.0000
  H   H319      1.0  0.41905  0.40962  0.42342  1.0000
  H   H320      1.0  0.41215  0.42231  0.45612  1.0000
  H   H321      1.0  0.48477  0.47852  0.20526  1.0000
  H   H322      1.0  0.46535  0.46396  0.71576  1.0000
  S   S75       1.0  0.38614  0.48664  0.28123  1.0000
  H   H323      1.0  0.41001  0.47306  0.33434  1.0000
  H   H324      1.0  0.45961  0.46603  0.64282  1.0000
  H   H325      1.0  0.45885  0.35230  0.62570  1.0000
  C   C266      1.0  0.40475  0.47217  0.39848  1.0000
  C   C267      1.0  0.37330  0.47403  0.84094  1.0000
  H   H326      1.0  0.41404  0.44800  0.46433  1.0000
  H   H327      1.0  0.47458  0.37107  0.88896  1.0000
  H   H328      1.0  0.48656  0.37134  0.50216  1.0000
  C   C268      1.0  0.49368  0.38179  0.58098  1.0000
  C   C269      1.0  0.47414  0.38293  0.89506  1.0000
  H   H329      1.0  0.45212  0.34755  0.51591  1.0000
  C   C270      1.0  0.40605  0.46511  0.43483  1.0000
  C   C271      1.0  0.48735  0.37692  0.13193  1.0000
  S   S76       1.0  0.48189  0.37796  0.75134  1.0000
  C   C272      1.0  0.49231  0.42138  0.53136  1.0000
  H   H330      1.0  0.42203  0.45193  0.33385  1.0000
  C   C273      1.0  0.31412  0.47585  0.32520  1.0000
  S   S77       1.0  0.41505  0.49479  0.63255  1.0000
  C   C274      1.0  0.41076  0.46732  0.36259  1.0000
  H   H331      1.0  0.45003  0.34287  0.56810  1.0000
  C   C275      1.0  0.33117  0.47287  0.78121  1.0000
  C   C276      1.0  0.34783  0.47044  0.72181  1.0000
  C   C277      1.0  0.41890  0.44734  0.39921  1.0000
  C   C278      1.0  0.41772  0.45509  0.36276  1.0000
  S   S78       1.0  0.37142  0.49433  0.39101  1.0000
  H   H332      1.0  0.32614  0.44075  0.79162  1.0000
  H   H333      1.0  0.47299  0.37405  0.02750  1.0000
  H   H334      1.0  0.31912  0.44567  0.74573  1.0000
  C   C279      1.0  0.35938  0.47326  0.82113  1.0000
  S   S79       1.0  0.48873  0.43122  0.24235  1.0000
  H   H335      1.0  0.47600  0.35716  0.68159  1.0000
  H   H336      1.0  0.46516  0.49146  0.18444  1.0000
  H   H337      1.0  0.39919  0.48152  0.39808  1.0000
  H   H338      1.0  0.44686  0.47676  0.69737  1.0000
  N   N19       1.0  0.34149  0.46363  0.76320  1.0000
  C   C280      1.0  0.45917  0.34968  0.54289  1.0000
  C   C281      1.0  0.48955  0.38475  0.16869  1.0000
  H   H339      1.0  0.33672  0.43924  0.74372  1.0000
  C   C282      1.0  0.49451  0.27159  0.91061  1.0000
  H   H340      1.0  0.33613  0.47122  0.27079  1.0000
  H   H341      1.0  0.49148  0.26441  0.97311  1.0000
  H   H342      1.0  0.35120  0.49142  0.26814  1.0000
  H   H343      1.0  0.35177  0.47993  0.83383  1.0000
  H   H344      1.0  0.31878  0.47091  0.35053  1.0000
  C   C283      1.0  0.49352  0.41887  0.45852  1.0000
  H   H345      1.0  0.47271  0.42613  0.90757  1.0000
  H   H346      1.0  0.48048  0.38862  0.51309  1.0000
  C   C284      1.0  0.47642  0.47510  0.70810  1.0000
  H   H347      1.0  0.46758  0.37282  0.48647  1.0000
  C   C285      1.0  0.48704  0.49116  0.21088  1.0000
  S   S80       1.0  0.37564  0.49273  0.63912  1.0000
  C   C286      1.0  0.37596  0.49314  0.47138  1.0000
  H   H348      1.0  0.47972  0.48143  0.73642  1.0000
  H   H349      1.0  0.37931  0.49216  0.53462  1.0000
  H   H350      1.0  0.48683  0.47089  0.69750  1.0000
  H   H351      1.0  0.48155  0.47367  0.62840  1.0000
  N   N20       1.0  0.47334  0.48579  0.67767  1.0000
  H   H352      1.0  0.30403  0.48014  0.33828  1.0000
  C   C287      1.0  0.32380  0.49151  0.22803  1.0000
  C   C288      1.0  0.49531  0.36613  0.81090  1.0000
  H   H353      1.0  0.46886  0.48517  0.61548  1.0000
  H   H354      1.0  0.48613  0.36023  0.98367  1.0000
  C   C289      1.0  0.32088  0.49503  0.26886  1.0000
  C   C290      1.0  0.47725  0.40614  0.93587  1.0000
  H   H355      1.0  0.45853  0.49456  0.72102  1.0000
  C   C291      1.0  0.49276  0.26072  0.94251  1.0000
  H   H356      1.0  0.45387  0.49563  0.66967  1.0000
  S   S81       1.0  0.49649  0.36167  0.06691  1.0000
  Fe  Fe40      1.0  0.33082  0.54678  0.03816  1.0000
  S   S82       1.0  0.35289  0.55264  0.99185  1.0000
  S   S83       1.0  0.33436  0.54462  0.10460  1.0000
  Fe  Fe41      1.0  0.30709  0.55072  0.97787  1.0000
  S   S84       1.0  0.32803  0.55701  0.92693  1.0000
  S   S85       1.0  0.28197  0.55236  0.96041  1.0000
  Fe  Fe42      1.0  0.33509  0.53678  0.95142  1.0000
  S   S86       1.0  0.34676  0.52063  0.91551  1.0000
  Fe  Fe43      1.0  0.34474  0.57250  0.97006  1.0000
  S   S87       1.0  0.36474  0.59625  0.94631  1.0000
  S   S88       1.0  0.31319  0.52914  0.99987  1.0000
  S   S89       1.0  0.32361  0.56798  0.01893  1.0000
  Fe  Fe44      1.0  0.44605  0.65608  0.02832  1.0000
  S   S90       1.0  0.46002  0.67334  0.07260  1.0000
  S   S91       1.0  0.42163  0.63658  0.05210  1.0000
  C   C292      1.0  0.49226  0.52346  0.22706  1.0000
  H   H357      1.0  0.39968  0.52311  0.40418  1.0000
  C   C293      1.0  0.47363  0.61561  0.53731  1.0000
  H   H358      1.0  0.49070  0.61339  0.83627  1.0000
  Fe  Fe45      1.0  0.48263  0.66840  0.04552  1.0000
  Fe  Fe46      1.0  0.46592  0.69300  0.02376  1.0000
  S   S92       1.0  0.46074  0.71607  0.04401  1.0000
  S   S93       1.0  0.46825  0.64969  0.00464  1.0000
  S   S94       1.0  0.45012  0.67579  0.98158  1.0000
  C   C294      1.0  0.35928  0.51249  0.16286  1.0000
  S   S95       1.0  0.40456  0.52580  0.66160  1.0000
  S   S96       1.0  0.36135  0.51702  0.72604  1.0000
  Fe  Fe47      1.0  0.41696  0.50973  0.68676  1.0000
  S   S97       1.0  0.44112  0.51840  0.71430  1.0000
  H   H359      1.0  0.48157  0.66426  0.15291  1.0000
  S   S98       1.0  0.46070  0.59324  0.72419  1.0000
  Fe  Fe48      1.0  0.40662  0.53297  0.27713  1.0000
  S   S99       1.0  0.37889  0.52111  0.28879  1.0000
  S   S100      1.0  0.42000  0.55963  0.27107  1.0000
  H   H360      1.0  0.33294  0.53079  0.84733  1.0000
  C   C295      1.0  0.49282  0.70136  0.11474  1.0000
  H   H361      1.0  0.37701  0.50930  0.79395  1.0000
  Fe  Fe49      1.0  0.47346  0.67045  0.96021  1.0000
  C   C296      1.0  0.44118  0.56228  0.25981  1.0000
  C   C297      1.0  0.44620  0.54877  0.25753  1.0000
  C   C298      1.0  0.46311  0.55067  0.25126  1.0000
  C   C299      1.0  0.47515  0.56611  0.24818  1.0000
  C   C300      1.0  0.47019  0.57969  0.24838  1.0000
  C   C301      1.0  0.45318  0.57778  0.25445  1.0000
  H   H362      1.0  0.43718  0.53676  0.26191  1.0000
  H   H363      1.0  0.46680  0.54011  0.25125  1.0000
  H   H364      1.0  0.47948  0.59166  0.24450  1.0000
  H   H365      1.0  0.44939  0.58829  0.25591  1.0000
  H   H366      1.0  0.41757  0.60106  0.97226  1.0000
  C   C302      1.0  0.25034  0.55406  0.95616  1.0000
  C   C303      1.0  0.43832  0.55662  0.57642  1.0000
  H   H367      1.0  0.44707  0.55399  0.55314  1.0000
  C   C304      1.0  0.44617  0.53880  0.72421  1.0000
  C   C305      1.0  0.46292  0.54844  0.72435  1.0000
  C   C306      1.0  0.46733  0.56519  0.72627  1.0000
  C   C307      1.0  0.45497  0.57227  0.72845  1.0000
  C   C308      1.0  0.43812  0.56255  0.73105  1.0000
  C   C309      1.0  0.43371  0.54576  0.72886  1.0000
  H   H368      1.0  0.47257  0.54307  0.72123  1.0000
  H   H369      1.0  0.48036  0.57256  0.72456  1.0000
  H   H370      1.0  0.42853  0.56799  0.73315  1.0000
  H   H371      1.0  0.42070  0.53823  0.73041  1.0000
  H   H372      1.0  0.47258  0.59111  0.80409  1.0000
  S   S101      1.0  0.40957  0.51825  0.22491  1.0000
  S   S102      1.0  0.40761  0.52147  0.54707  1.0000
  H   H373      1.0  0.42543  0.57637  0.61846  1.0000
  H   H374      1.0  0.45956  0.62960  0.89308  1.0000
  C   C310      1.0  0.35514  0.51014  0.12316  1.0000
  S   S103      1.0  0.41254  0.51748  0.32238  1.0000
  H   H375      1.0  0.35732  0.50038  0.10690  1.0000
  H   H376      1.0  0.47093  0.51841  0.30728  1.0000
  H   H377      1.0  0.46540  0.57342  0.64463  1.0000
  Fe  Fe50      1.0  0.41341  0.50158  0.27089  1.0000
  C   C311      1.0  0.26034  0.54810  0.97860  1.0000
  C   C312      1.0  0.48796  0.50095  0.67116  1.0000
  H   H378      1.0  0.46484  0.60354  0.48416  1.0000
  C   C313      1.0  0.49000  0.65670  0.82557  1.0000
  H   H379      1.0  0.46936  0.56364  0.60019  1.0000
  H   H380      1.0  0.43895  0.62746  0.94989  1.0000
  Fe  Fe51      1.0  0.38508  0.50397  0.32975  1.0000
  H   H381      1.0  0.47003  0.55693  0.43633  1.0000
  Fe  Fe52      1.0  0.40037  0.50928  0.60971  1.0000
  H   H382      1.0  0.25601  0.56151  0.92925  1.0000
  C   C314      1.0  0.38106  0.60672  0.97528  1.0000
  C   C315      1.0  0.38104  0.60200  0.01528  1.0000
  C   C316      1.0  0.39368  0.61119  0.03824  1.0000
  C   C317      1.0  0.40652  0.62506  0.02138  1.0000
  C   C318      1.0  0.40673  0.62962  0.98116  1.0000
  C   C319      1.0  0.39405  0.62046  0.95820  1.0000
  H   H383      1.0  0.37104  0.59151  0.02880  1.0000
  H   H384      1.0  0.39336  0.60766  0.06942  1.0000
  H   H385      1.0  0.41642  0.64039  0.96800  1.0000
  H   H386      1.0  0.39410  0.62425  0.92737  1.0000
  C   C320      1.0  0.34444  0.53240  0.12569  1.0000
  C   C321      1.0  0.34866  0.53480  0.16536  1.0000
  C   C322      1.0  0.35625  0.52505  0.18371  1.0000
  H   H387      1.0  0.48303  0.62473  0.87146  1.0000
  H   H388      1.0  0.45986  0.57158  0.43661  1.0000
  C   C323      1.0  0.34795  0.52016  0.10445  1.0000
  H   H389      1.0  0.34585  0.54415  0.18211  1.0000
  H   H390      1.0  0.35908  0.52680  0.21450  1.0000
  H   H391      1.0  0.34468  0.51813  0.07400  1.0000
  C   C324      1.0  0.35838  0.51904  0.77865  1.0000
  C   C325      1.0  0.36746  0.51405  0.80538  1.0000
  C   C326      1.0  0.36383  0.51476  0.84713  1.0000
  C   C327      1.0  0.35140  0.52082  0.86264  1.0000
  C   C328      1.0  0.34265  0.52624  0.83586  1.0000
  C   C329      1.0  0.34603  0.52521  0.79412  1.0000
  H   H392      1.0  0.48408  0.65811  0.22417  1.0000
  H   H393      1.0  0.44976  0.61089  0.80237  1.0000
  N   N21       1.0  0.44717  0.56998  0.60181  1.0000
  C   C330      1.0  0.43454  0.57210  0.63255  1.0000
  H   H394      1.0  0.43756  0.57758  0.88089  1.0000
  H   H395      1.0  0.47456  0.54596  0.32493  1.0000
  C   C331      1.0  0.45606  0.58553  0.57911  1.0000
  C   C332      1.0  0.45591  0.58749  0.53692  1.0000
  C   C333      1.0  0.46529  0.59934  0.59934  1.0000
  C   C334      1.0  0.46463  0.60235  0.51652  1.0000
  C   C335      1.0  0.47396  0.61411  0.57863  1.0000
  C   C336      1.0  0.45224  0.50747  0.35612  1.0000
  C   C337      1.0  0.46875  0.73763  0.03433  1.0000
  C   C338      1.0  0.45054  0.61772  0.90165  1.0000
  H   H396      1.0  0.44029  0.58101  0.65497  1.0000
  C   C339      1.0  0.38168  0.50176  0.43426  1.0000
  H   H397      1.0  0.48576  0.70487  0.09227  1.0000
  C   C340      1.0  0.43871  0.61666  0.93423  1.0000
  C   C341      1.0  0.43835  0.58882  0.89453  1.0000
  H   H398      1.0  0.41325  0.53346  0.46564  1.0000
  H   H399      1.0  0.48181  0.56840  0.36600  1.0000
  H   H400      1.0  0.44929  0.57773  0.51892  1.0000
  H   H401      1.0  0.46604  0.59881  0.63138  1.0000
  C   C342      1.0  0.45082  0.60381  0.88089  1.0000
  H   H402      1.0  0.44923  0.74134  0.07420  1.0000
  H   H403      1.0  0.25324  0.53234  0.85290  1.0000
  N   N22       1.0  0.40273  0.56481  0.15018  1.0000
  C   C343      1.0  0.39321  0.56720  0.18742  1.0000
  C   C344      1.0  0.39122  0.56076  0.11812  1.0000
  C   C345      1.0  0.40793  0.55063  0.15698  1.0000
  C   C346      1.0  0.41761  0.57953  0.14033  1.0000
  C   C347      1.0  0.41949  0.58995  0.10612  1.0000
  C   C348      1.0  0.43058  0.58414  0.16610  1.0000
  C   C349      1.0  0.43367  0.60382  0.09805  1.0000
  C   C350      1.0  0.44472  0.59801  0.15769  1.0000
  C   C351      1.0  0.44627  0.60782  0.12368  1.0000
  H   H404      1.0  0.40072  0.56919  0.21358  1.0000
  H   H405      1.0  0.38927  0.57789  0.18390  1.0000
  H   H406      1.0  0.38178  0.55649  0.19571  1.0000
  H   H407      1.0  0.38536  0.57009  0.11402  1.0000
  H   H408      1.0  0.38067  0.54920  0.12536  1.0000
  H   H409      1.0  0.39776  0.55922  0.08897  1.0000
  H   H410      1.0  0.41478  0.55163  0.18404  1.0000
  H   H411      1.0  0.39698  0.53918  0.16209  1.0000
  H   H412      1.0  0.41618  0.54908  0.13083  1.0000
  H   H413      1.0  0.41014  0.58777  0.08527  1.0000
  H   H414      1.0  0.42984  0.57714  0.19328  1.0000
  H   H415      1.0  0.43485  0.61165  0.07193  1.0000
  H   H416      1.0  0.45449  0.60121  0.17783  1.0000
  C   C352      1.0  0.48322  0.74553  0.00855  1.0000
  N   N23       1.0  0.40631  0.68058  0.05485  1.0000
  C   C353      1.0  0.41527  0.69421  0.02543  1.0000
  C   C354      1.0  0.39748  0.68683  0.08729  1.0000
  C   C355      1.0  0.41911  0.67544  0.07222  1.0000
  C   C356      1.0  0.39419  0.66659  0.03714  1.0000
  C   C357      1.0  0.38481  0.65255  0.06142  1.0000
  C   C358      1.0  0.39125  0.66642  0.99595  1.0000
  C   C359      1.0  0.37311  0.63929  0.04565  1.0000
  C   C360      1.0  0.37950  0.65306  0.98053  1.0000
  C   C361      1.0  0.37042  0.63957  0.00534  1.0000
  H   H417      1.0  0.42276  0.69051  0.00095  1.0000
  H   H418      1.0  0.40650  0.69915  0.01203  1.0000
  H   H419      1.0  0.42436  0.70448  0.03965  1.0000
  H   H420      1.0  0.38731  0.69026  0.07574  1.0000
  H   H421      1.0  0.40615  0.69768  0.10046  1.0000
  H   H422      1.0  0.39173  0.67776  0.11251  1.0000
  H   H423      1.0  0.42522  0.66976  0.04922  1.0000
  H   H424      1.0  0.42909  0.68581  0.08364  1.0000
  H   H425      1.0  0.41382  0.66637  0.09757  1.0000
  H   H426      1.0  0.38665  0.65159  0.09270  1.0000
  H   H427      1.0  0.39797  0.67633  0.97486  1.0000
  H   H428      1.0  0.36638  0.62854  0.06449  1.0000
  H   H429      1.0  0.37760  0.65299  0.94895  1.0000
  H   H430      1.0  0.36159  0.62909  0.99304  1.0000
  N   N24       1.0  0.38367  0.57046  0.85320  1.0000
  C   C362      1.0  0.36869  0.56668  0.88276  1.0000
  C   C363      1.0  0.39387  0.58768  0.85700  1.0000
  C   C364      1.0  0.37773  0.56826  0.81264  1.0000
  C   C365      1.0  0.39389  0.56020  0.85912  1.0000
  C   C366      1.0  0.39027  0.54869  0.89179  1.0000
  C   C367      1.0  0.40795  0.56145  0.83143  1.0000
  C   C368      1.0  0.39983  0.53880  0.89561  1.0000
  C   C369      1.0  0.41737  0.55142  0.83544  1.0000
  C   C370      1.0  0.41327  0.54008  0.86737  1.0000
  H   H431      1.0  0.37215  0.56883  0.91397  1.0000
  H   H432      1.0  0.36117  0.57448  0.87746  1.0000
  H   H433      1.0  0.36024  0.55396  0.88131  1.0000
  H   H434      1.0  0.39828  0.58980  0.88742  1.0000
  H   H435      1.0  0.38647  0.59573  0.85310  1.0000
  H   H436      1.0  0.40500  0.59185  0.83448  1.0000
  H   H437      1.0  0.36875  0.57464  0.80842  1.0000
  H   H438      1.0  0.38804  0.57296  0.78816  1.0000
  H   H439      1.0  0.37120  0.55521  0.80769  1.0000
  H   H440      1.0  0.37979  0.54671  0.91432  1.0000
  H   H441      1.0  0.41156  0.57001  0.80603  1.0000
  H   H442      1.0  0.39646  0.52980  0.92019  1.0000
  H   H443      1.0  0.42775  0.55224  0.81335  1.0000
  H   H444      1.0  0.42041  0.53212  0.86999  1.0000
  H   H445      1.0  0.45311  0.55289  0.63886  1.0000
  N   N25       1.0  0.45576  0.55598  0.38628  1.0000
  C   C371      1.0  0.46925  0.56897  0.36211  1.0000
  C   C372      1.0  0.43961  0.55762  0.37856  1.0000
  C   C373      1.0  0.45840  0.55889  0.42918  1.0000
  C   C374      1.0  0.45533  0.53950  0.37656  1.0000
  C   C375      1.0  0.46550  0.53639  0.34386  1.0000
  C   C376      1.0  0.44380  0.52584  0.39890  1.0000
  H   H446      1.0  0.44782  0.55098  0.44996  1.0000
  C   C377      1.0  0.44241  0.51011  0.38893  1.0000
  H   H447      1.0  0.49139  0.68853  0.10974  1.0000
  H   H448      1.0  0.46957  0.58120  0.37103  1.0000
  C   C378      1.0  0.49150  0.65989  0.86635  1.0000
  H   H449      1.0  0.46741  0.56843  0.32966  1.0000
  H   H450      1.0  0.43705  0.55507  0.34676  1.0000
  H   H451      1.0  0.43954  0.57004  0.38387  1.0000
  H   H452      1.0  0.42887  0.54910  0.39784  1.0000
  H   H453      1.0  0.37066  0.51053  0.86760  1.0000
  H   H454      1.0  0.34367  0.51315  0.31220  1.0000
  C   C379      1.0  0.39736  0.51345  0.50428  1.0000
  C   C380      1.0  0.47864  0.51453  0.20700  1.0000
  H   H455      1.0  0.43543  0.52719  0.42364  1.0000
  H   H456      1.0  0.46335  0.62823  0.82472  1.0000
  C   C381      1.0  0.25267  0.53846  0.01334  1.0000
  H   H457      1.0  0.45721  0.61864  0.11738  1.0000
  S   S104      1.0  0.48964  0.68908  0.99896  1.0000
  C   C382      1.0  0.46209  0.61596  0.81447  1.0000
  H   H458      1.0  0.26003  0.53371  0.03103  1.0000
  Fe  Fe53      1.0  0.38221  0.50505  0.23944  1.0000
  C   C383      1.0  0.42650  0.58792  0.92706  1.0000
  H   H459      1.0  0.30350  0.51277  0.18204  1.0000
  H   H460      1.0  0.48223  0.60491  0.88612  1.0000
  H   H461      1.0  0.47189  0.61764  0.78879  1.0000
  C   C384      1.0  0.42670  0.60180  0.94690  1.0000
  C   C385      1.0  0.40301  0.52207  0.46721  1.0000
  C   C386      1.0  0.46265  0.58955  0.82932  1.0000
  H   H462      1.0  0.41715  0.57638  0.93716  1.0000
  H   H463      1.0  0.33888  0.52904  0.77370  1.0000
  H   H464      1.0  0.42737  0.56059  0.64983  1.0000
  H   H465      1.0  0.46428  0.58097  0.85177  1.0000
  H   H466      1.0  0.43191  0.54510  0.59447  1.0000
  H   H467      1.0  0.48651  0.70185  0.14506  1.0000
  H   H468      1.0  0.49357  0.53590  0.23190  1.0000
  N   N26       1.0  0.46373  0.60524  0.84699  1.0000
  C   C387      1.0  0.48060  0.61232  0.86083  1.0000
  H   H469      1.0  0.47507  0.51823  0.68574  1.0000
  Fe  Fe54      1.0  0.38099  0.50814  0.69334  1.0000
  C   C388      1.0  0.39533  0.51622  0.43233  1.0000
  H   H470      1.0  0.45061  0.58388  0.81626  1.0000
  H   H471      1.0  0.26254  0.52226  0.91206  1.0000
  C   C389      1.0  0.46377  0.52057  0.33367  1.0000
  C   C390      1.0  0.45927  0.56477  0.62218  1.0000
  S   S105      1.0  0.47674  0.66710  0.89296  1.0000
  C   C391      1.0  0.49229  0.65568  0.20053  1.0000
  S   S106      1.0  0.49413  0.60506  0.31413  1.0000
  H   H472      1.0  0.48023  0.65909  0.81111  1.0000
  C   C392      1.0  0.48675  0.51652  0.67635  1.0000
  H   H473      1.0  0.48080  0.62695  0.52118  1.0000
  H   H474      1.0  0.46985  0.52004  0.19822  1.0000
  Fe  Fe55      1.0  0.48844  0.60296  0.70855  1.0000
  C   C393      1.0  0.49089  0.65924  0.16007  1.0000
  H   H475      1.0  0.42834  0.55923  0.56158  1.0000
  H   H476      1.0  0.49364  0.58508  0.51078  1.0000
  S   S107      1.0  0.49606  0.56820  0.25084  1.0000
  C   C394      1.0  0.33517  0.50211  0.32945  1.0000
  H   H477      1.0  0.48989  0.73851  0.99308  1.0000
  H   H478      1.0  0.48138  0.62435  0.59450  1.0000
  H   H479      1.0  0.32560  0.50556  0.34810  1.0000
  S   S108      1.0  0.36680  0.49865  0.18644  1.0000
  H   H480      1.0  0.29671  0.51822  0.25273  1.0000
  C   C395      1.0  0.30793  0.50756  0.20620  1.0000
  C   C396      1.0  0.47602  0.49843  0.19898  1.0000
  C   C397      1.0  0.31046  0.50442  0.27699  1.0000
  C   C398      1.0  0.38383  0.49889  0.50623  1.0000
  C   C399      1.0  0.24930  0.51962  0.90984  1.0000
  H   H481      1.0  0.34257  0.49863  0.35130  1.0000
  C   C400      1.0  0.30428  0.51073  0.24600  1.0000
  H   H482      1.0  0.30710  0.50707  0.30734  1.0000
  H   H483      1.0  0.43330  0.49991  0.40605  1.0000
  C   C401      1.0  0.31743  0.49777  0.19735  1.0000
  Fe  Fe56      1.0  0.33699  0.85136  0.03664  1.0000
  S   S109      1.0  0.35805  0.86443  0.99023  1.0000
  S   S110      1.0  0.33555  0.85866  0.10189  1.0000
  Fe  Fe57      1.0  0.31809  0.82606  0.97800  1.0000
  S   S111      1.0  0.33821  0.83770  0.92691  1.0000
  S   S112      1.0  0.29512  0.80457  0.96188  1.0000
  Fe  Fe58      1.0  0.35662  0.83967  0.97199  1.0000
  S   S113      1.0  0.38043  0.83525  0.95031  1.0000
  Fe  Fe59      1.0  0.33836  0.86178  0.94822  1.0000
  S   S114      1.0  0.34114  0.88469  0.91118  1.0000
  S   S115      1.0  0.33685  0.82634  0.02148  1.0000
  S   S116      1.0  0.31694  0.85036  0.99628  1.0000
  H   H484      1.0  0.46253  0.87653  0.90734  1.0000
  S   S117      1.0  0.47320  0.82517  0.08807  1.0000
  C   C402      1.0  0.46670  0.97606  0.23953  1.0000
  C   C403      1.0  0.40627  0.97743  0.46613  1.0000
  S   S118      1.0  0.47415  0.85786  0.03576  1.0000
  H   H485      1.0  0.41660  0.88638  0.78736  1.0000
  H   H486      1.0  0.36259  0.81142  0.01695  1.0000
  H   H487      1.0  0.48280  0.95137  0.52894  1.0000
  Fe  Fe60      1.0  0.45614  0.83283  0.05117  1.0000
  S   S119      1.0  0.43005  0.83113  0.07574  1.0000
  C   C404      1.0  0.32744  0.78892  0.94571  1.0000
  S   S120      1.0  0.46341  0.82246  0.99446  1.0000
  Fe  Fe61      1.0  0.38763  0.92828  0.69452  1.0000
  S   S121      1.0  0.39180  0.92321  0.62910  1.0000
  S   S122      1.0  0.38147  0.90598  0.73728  1.0000
  Fe  Fe62      1.0  0.39793  0.96479  0.67468  1.0000
  S   S123      1.0  0.40288  0.96256  0.60831  1.0000
  Fe  Fe63      1.0  0.37938  0.94096  0.61497  1.0000
  S   S124      1.0  0.35968  0.93611  0.57111  1.0000
  Fe  Fe64      1.0  0.41492  0.94509  0.62671  1.0000
  S   S125      1.0  0.43917  0.94570  0.59353  1.0000
  S   S126      1.0  0.37306  0.94434  0.68061  1.0000
  S   S127      1.0  0.41211  0.94906  0.69281  1.0000
  Fe  Fe65      1.0  0.37665  0.93655  0.33146  1.0000
  S   S128      1.0  0.38254  0.95167  0.27341  1.0000
  S   S129      1.0  0.35707  0.93660  0.38156  1.0000
  Fe  Fe66      1.0  0.40383  0.92296  0.31174  1.0000
  S   S130      1.0  0.41266  0.93709  0.25349  1.0000
  S   S131      1.0  0.41687  0.90660  0.33169  1.0000
  Fe  Fe67      1.0  0.40918  0.95788  0.28661  1.0000
  Fe  Fe68      1.0  0.38542  0.92952  0.24401  1.0000
  S   S132      1.0  0.38128  0.92265  0.17905  1.0000
  S   S133      1.0  0.40298  0.94431  0.34608  1.0000
  S   S134      1.0  0.37686  0.91387  0.30089  1.0000
  H   H488      1.0  0.48273  0.97152  0.66878  1.0000
  C   C405      1.0  0.49246  0.98830  0.26995  1.0000
  H   H489      1.0  0.37458  0.78083  0.95988  1.0000
  C   C406      1.0  0.41745  0.89572  0.21929  1.0000
  C   C407      1.0  0.43536  0.91879  0.34978  1.0000
  C   C408      1.0  0.43525  0.93131  0.37506  1.0000
  C   C409      1.0  0.45014  0.94149  0.38829  1.0000
  C   C410      1.0  0.46520  0.93935  0.37560  1.0000
  C   C411      1.0  0.46533  0.92677  0.35057  1.0000
  C   C412      1.0  0.45038  0.91636  0.33807  1.0000
  H   H490      1.0  0.42361  0.93281  0.38564  1.0000
  H   H491      1.0  0.44998  0.95095  0.40841  1.0000
  H   H492      1.0  0.47693  0.92513  0.34021  1.0000
  H   H493      1.0  0.45054  0.90668  0.31856  1.0000
  C   C413      1.0  0.36052  0.93768  0.51808  1.0000
  C   C414      1.0  0.37534  0.94162  0.49215  1.0000
  C   C415      1.0  0.37476  0.94154  0.44993  1.0000
  C   C416      1.0  0.35933  0.93768  0.43373  1.0000
  C   C417      1.0  0.34475  0.93427  0.45990  1.0000
  C   C418      1.0  0.34533  0.93418  0.50155  1.0000
  H   H494      1.0  0.38713  0.94435  0.50468  1.0000
  H   H495      1.0  0.38619  0.94433  0.43020  1.0000
  H   H496      1.0  0.33279  0.93138  0.44793  1.0000
  H   H497      1.0  0.33381  0.93119  0.52118  1.0000
  C   C419      1.0  0.44890  0.93817  0.62846  1.0000
  C   C420      1.0  0.46630  0.94270  0.62529  1.0000
  C   C421      1.0  0.47405  0.93756  0.65514  1.0000
  C   C422      1.0  0.46439  0.92788  0.68803  1.0000
  C   C423      1.0  0.44699  0.92309  0.69069  1.0000
  C   C424      1.0  0.43925  0.92822  0.66092  1.0000
  H   H498      1.0  0.47381  0.95043  0.60032  1.0000
  C   C425      1.0  0.34732  0.92987  0.13722  1.0000
  H   H499      1.0  0.43945  0.91550  0.71592  1.0000
  H   H500      1.0  0.42577  0.92442  0.66315  1.0000
  C   C426      1.0  0.36199  0.77360  0.03772  1.0000
  H   H501      1.0  0.45076  0.88325  0.21431  1.0000
  C   C427      1.0  0.49384  0.91320  0.59939  1.0000
  C   C428      1.0  0.46332  0.98526  0.74602  1.0000
  C   C429      1.0  0.48079  0.77214  0.02257  1.0000
  C   C430      1.0  0.43111  0.89226  0.23089  1.0000
  H   H502      1.0  0.46372  0.98739  0.23921  1.0000
  C   C431      1.0  0.43380  0.98160  0.76535  1.0000
  C   C432      1.0  0.43193  0.97140  0.45909  1.0000
  H   H503      1.0  0.49332  0.82999  0.92601  1.0000
  H   H504      1.0  0.44040  0.88432  0.08057  1.0000
  H   H505      1.0  0.45398  0.96577  0.31560  1.0000
  C   C433      1.0  0.40859  0.98279  0.42507  1.0000
  H   H506      1.0  0.28772  0.78699  0.04119  1.0000
  C   C434      1.0  0.41688  0.83334  0.04036  1.0000
  C   C435      1.0  0.40236  0.83665  0.05345  1.0000
  C   C436      1.0  0.39143  0.83797  0.02584  1.0000
  C   C437      1.0  0.39471  0.83550  0.98517  1.0000
  C   C438      1.0  0.40929  0.83236  0.97206  1.0000
  C   C439      1.0  0.42043  0.83146  0.99948  1.0000
  H   H507      1.0  0.39953  0.83813  0.08504  1.0000
  H   H508      1.0  0.38025  0.84052  0.03620  1.0000
  H   H509      1.0  0.41193  0.83049  0.94061  1.0000
  H   H510      1.0  0.43159  0.82895  0.98906  1.0000
  C   C440      1.0  0.35178  0.89027  0.86212  1.0000
  C   C441      1.0  0.35560  0.90617  0.84663  1.0000
  C   C442      1.0  0.36433  0.91116  0.80815  1.0000
  C   C443      1.0  0.36923  0.90023  0.78456  1.0000
  C   C444      1.0  0.36511  0.88425  0.79981  1.0000
  C   C445      1.0  0.35653  0.87930  0.83837  1.0000
  H   H511      1.0  0.35186  0.91474  0.86453  1.0000
  H   H512      1.0  0.36735  0.92347  0.79686  1.0000
  H   H513      1.0  0.36859  0.87563  0.78153  1.0000
  H   H514      1.0  0.35343  0.86696  0.84954  1.0000
  C   C446      1.0  0.34950  0.87571  0.12377  1.0000
  C   C447      1.0  0.34662  0.87811  0.16493  1.0000
  C   C448      1.0  0.35671  0.89204  0.18284  1.0000
  C   C449      1.0  0.36959  0.90391  0.15950  1.0000
  C   C450      1.0  0.37269  0.90133  0.11852  1.0000
  C   C451      1.0  0.36288  0.88721  0.10090  1.0000
  H   H515      1.0  0.33635  0.86925  0.18296  1.0000
  H   H516      1.0  0.35411  0.89385  0.21432  1.0000
  H   H517      1.0  0.38262  0.91043  0.10022  1.0000
  H   H518      1.0  0.36547  0.88532  0.06954  1.0000
  C   C452      1.0  0.46626  0.76423  0.04811  1.0000
  H   H519      1.0  0.40214  0.85890  0.82114  1.0000
  C   C453      1.0  0.43895  0.88812  0.84519  1.0000
  C   C454      1.0  0.48920  0.76260  0.00295  1.0000
  C   C455      1.0  0.47183  0.91719  0.47613  1.0000
  C   C456      1.0  0.43580  0.86996  0.91622  1.0000
  C   C457      1.0  0.47816  0.90484  0.61934  1.0000
  H   H520      1.0  0.48407  0.81501  0.89138  1.0000
  N   N27       1.0  0.44576  0.87531  0.13603  1.0000
  H   H521      1.0  0.39390  0.88104  0.90862  1.0000
  C   C458      1.0  0.43971  0.87277  0.09557  1.0000
  C   C459      1.0  0.46351  0.88613  0.13067  1.0000
  C   C460      1.0  0.43592  0.88235  0.16405  1.0000
  C   C461      1.0  0.42185  0.88601  0.15321  1.0000
  C   C462      1.0  0.41285  0.89265  0.18055  1.0000
  H   H522      1.0  0.47714  0.89925  0.64893  1.0000
  H   H523      1.0  0.47323  0.98685  0.66834  1.0000
  Fe  Fe69      1.0  0.49177  0.84988  0.06905  1.0000
  H   H524      1.0  0.44727  0.86740  0.07529  1.0000
  H   H525      1.0  0.42665  0.86408  0.09711  1.0000
  H   H526      1.0  0.46466  0.89839  0.11919  1.0000
  H   H527      1.0  0.37417  0.77740  0.05091  1.0000
  H   H528      1.0  0.47122  0.88133  0.10910  1.0000
  H   H529      1.0  0.41745  0.88384  0.12387  1.0000
  H   H530      1.0  0.40217  0.89542  0.17175  1.0000
  N   N28       1.0  0.37471  0.89528  0.44668  1.0000
  C   C463      1.0  0.35910  0.89554  0.46970  1.0000
  C   C464      1.0  0.37566  0.90261  0.40604  1.0000
  C   C465      1.0  0.37323  0.87811  0.44269  1.0000
  C   C466      1.0  0.39005  0.90405  0.46573  1.0000
  C   C467      1.0  0.38980  0.91196  0.50252  1.0000
  C   C468      1.0  0.40596  0.90489  0.44728  1.0000
  C   C469      1.0  0.40462  0.92057  0.51877  1.0000
  C   C470      1.0  0.42066  0.91323  0.46433  1.0000
  C   C471      1.0  0.42000  0.92118  0.49985  1.0000
  H   H531      1.0  0.35912  0.90809  0.47287  1.0000
  H   H532      1.0  0.34781  0.88904  0.45446  1.0000
  H   H533      1.0  0.35724  0.88972  0.50026  1.0000
  H   H534      1.0  0.38594  0.90126  0.38519  1.0000
  H   H535      1.0  0.37780  0.91575  0.40734  1.0000
  H   H536      1.0  0.36392  0.89705  0.39158  1.0000
  H   H537      1.0  0.37324  0.87236  0.47243  1.0000
  H   H538      1.0  0.36150  0.87100  0.42983  1.0000
  H   H539      1.0  0.38366  0.87674  0.42235  1.0000
  H   H540      1.0  0.37835  0.91193  0.51922  1.0000
  H   H541      1.0  0.40717  0.89923  0.41919  1.0000
  H   H542      1.0  0.40421  0.92689  0.54623  1.0000
  H   H543      1.0  0.43262  0.91373  0.44939  1.0000
  H   H544      1.0  0.43135  0.92788  0.51290  1.0000
  H   H545      1.0  0.48743  0.94087  0.65224  1.0000
  S   S135      1.0  0.40024  0.98895  0.70127  1.0000
  C   C472      1.0  0.44026  0.88571  0.20379  1.0000
  N   N29       1.0  0.47600  0.97883  0.72728  1.0000
  C   C473      1.0  0.31670  0.76335  0.98299  1.0000
  H   H546      1.0  0.41037  0.90076  0.24047  1.0000
  H   H547      1.0  0.35169  0.80453  0.95567  1.0000
  C   C474      1.0  0.34498  0.78193  0.99157  1.0000
  C   C475      1.0  0.33162  0.76704  0.00091  1.0000
  H   H548      1.0  0.45828  0.91279  0.48635  1.0000
  C   C476      1.0  0.25645  0.76097  0.97014  1.0000
  S   S136      1.0  0.48381  0.95253  0.39083  1.0000
  C   C477      1.0  0.37532  0.79098  0.97997  1.0000
  N   N30       1.0  0.36074  0.78658  0.01096  1.0000
  H   H549      1.0  0.46074  0.96625  0.68161  1.0000
  C   C478      1.0  0.28004  0.78563  0.98160  1.0000
  H   H550      1.0  0.48436  0.95658  0.24528  1.0000
  H   H551      1.0  0.43454  0.89464  0.26120  1.0000
  C   C479      1.0  0.36198  0.80074  0.03562  1.0000
  H   H552      1.0  0.44572  0.97659  0.40060  1.0000
  H   H553      1.0  0.48425  0.95671  0.29945  1.0000
  C   C480      1.0  0.27909  0.77986  0.02120  1.0000
  H   H554      1.0  0.43182  0.85088  0.15748  1.0000
  H   H555      1.0  0.36105  0.76251  0.02101  1.0000
  H   H556      1.0  0.46334  0.98714  0.31314  1.0000
  C   C481      1.0  0.26862  0.77599  0.95627  1.0000
  C   C482      1.0  0.26682  0.76490  0.03520  1.0000
  H   H557      1.0  0.35745  0.90362  0.97341  1.0000
  H   H558      1.0  0.46214  0.93798  0.52343  1.0000
  H   H559      1.0  0.43438  0.99214  0.67134  1.0000
  H   H560      1.0  0.30649  0.75209  0.99092  1.0000
  H   H561      1.0  0.39552  0.97721  0.48608  1.0000
  H   H562      1.0  0.48658  0.80926  0.94141  1.0000
  H   H563      1.0  0.46954  0.88760  0.15909  1.0000
  H   H564      1.0  0.44201  0.96332  0.73982  1.0000
  H   H565      1.0  0.46518  0.94877  0.27704  1.0000
  H   H566      1.0  0.36607  0.92274  0.99457  1.0000
  H   H567      1.0  0.26613  0.76080  0.06607  1.0000
  C   C483      1.0  0.34236  0.79278  0.96351  1.0000
  C   C484      1.0  0.33470  0.90674  0.09784  1.0000
  S   S137      1.0  0.47373  0.92186  0.72661  1.0000
  H   H568      1.0  0.47592  0.90650  0.47310  1.0000
  C   C485      1.0  0.25535  0.75531  0.00992  1.0000
  C   C486      1.0  0.31464  0.77425  0.95541  1.0000
  H   H569      1.0  0.45442  0.96602  0.24096  1.0000
  C   C487      1.0  0.35298  0.93198  0.06483  1.0000
  C   C488      1.0  0.33347  0.91669  0.99573  1.0000
  H   H570      1.0  0.46541  0.89265  0.84455  1.0000
  H   H571      1.0  0.38738  0.79441  0.99365  1.0000
  H   H572      1.0  0.47566  0.96500  0.78090  1.0000
  H   H573      1.0  0.33659  0.88365  0.04184  1.0000
  N   N31       1.0  0.47616  0.97486  0.27365  1.0000
  S   S138      1.0  0.48929  0.79377  0.01468  1.0000
  S   S139      1.0  0.43099  0.98143  0.28255  1.0000
  H   H574      1.0  0.39901  0.89222  0.80157  1.0000
  Fe  Fe70      1.0  0.48297  0.84721  0.98145  1.0000
  H   H575      1.0  0.38767  0.89078  0.86946  1.0000
  H   H576      1.0  0.45048  0.86029  0.18169  1.0000
  C   C489      1.0  0.44498  0.85938  0.15266  1.0000
  C   C490      1.0  0.41780  0.97178  0.48264  1.0000
  H   H577      1.0  0.33191  0.91126  0.96568  1.0000
  N   N32       1.0  0.34135  0.90829  0.02171  1.0000
  H   H578      1.0  0.37627  0.80162  0.96061  1.0000
  C   C491      1.0  0.39872  0.88883  0.88072  1.0000
  H   H579      1.0  0.34104  0.92969  0.99008  1.0000
  H   H580      1.0  0.48212  0.85853  0.17191  1.0000
  H   H581      1.0  0.46261  0.95355  0.74472  1.0000
  C   C492      1.0  0.35525  0.93893  0.10221  1.0000
  C   C493      1.0  0.33693  0.91389  0.13498  1.0000
  H   H582      1.0  0.41879  0.90422  0.81606  1.0000
  H   H583      1.0  0.37345  0.80448  0.05171  1.0000
  C   C494      1.0  0.44612  0.97555  0.74987  1.0000
  H   H584      1.0  0.47384  0.97573  0.21026  1.0000
  H   H585      1.0  0.40961  0.86499  0.91825  1.0000
  H   H586      1.0  0.32088  0.91592  0.00964  1.0000
  H   H587      1.0  0.32697  0.89413  0.09871  1.0000
  C   C495      1.0  0.42267  0.88039  0.86533  1.0000
  H   H588      1.0  0.36347  0.95131  0.10424  1.0000
  H   H589      1.0  0.40102  0.97991  0.34758  1.0000
  H   H590      1.0  0.44074  0.96692  0.47207  1.0000
  H   H591      1.0  0.34957  0.93510  0.16626  1.0000
  H   H592      1.0  0.45963  0.77126  0.06366  1.0000
  H   H593      1.0  0.47852  0.87032  0.23800  1.0000
  C   C496      1.0  0.49264  0.81791  0.91547  1.0000
  C   C497      1.0  0.46381  0.90433  0.60207  1.0000
  C   C498      1.0  0.46629  0.97583  0.31179  1.0000
  C   C499      1.0  0.38161  0.98772  0.43375  1.0000
  C   C500      1.0  0.48937  0.87641  0.21714  1.0000
  H   H594      1.0  0.32554  0.79755  0.92505  1.0000
  C   C501      1.0  0.42155  0.87128  0.90136  1.0000
  C   C502      1.0  0.41069  0.89151  0.81223  1.0000
  C   C503      1.0  0.34286  0.91557  0.06152  1.0000
  C   C504      1.0  0.39073  0.97915  0.37109  1.0000
  H   H595      1.0  0.44117  0.89529  0.81753  1.0000
  C   C505      1.0  0.45311  0.88672  0.86040  1.0000
  C   C506      1.0  0.47525  0.94219  0.50922  1.0000
  H   H596      1.0  0.38449  0.86551  0.82982  1.0000
  H   H597      1.0  0.26922  0.78019  0.92550  1.0000
  H   H598      1.0  0.45196  0.85355  0.13188  1.0000
  H   H599      1.0  0.35094  0.79820  0.05831  1.0000
  H   H600      1.0  0.47304  0.97508  0.33816  1.0000
  C   C507      1.0  0.47459  0.96342  0.74821  1.0000
  H   H601      1.0  0.33225  0.75810  0.02231  1.0000
  H   H602      1.0  0.39138  0.85725  0.87052  1.0000
  H   H603      1.0  0.33019  0.88576  0.99342  1.0000
  H   H604      1.0  0.35946  0.93948  0.03857  1.0000
  H   H605      1.0  0.36497  0.90478  0.02196  1.0000
  H   H606      1.0  0.38438  0.96616  0.38012  1.0000
  C   C508      1.0  0.35818  0.90997  0.00216  1.0000
  C   C509      1.0  0.33109  0.89084  0.02376  1.0000
  H   H607      1.0  0.31802  0.88862  0.03672  1.0000
  H   H608      1.0  0.33108  0.90678  0.16241  1.0000
  H   H609      1.0  0.48373  0.87322  0.84304  1.0000
  H   H610      1.0  0.40725  0.90078  0.88916  1.0000
  H   H611      1.0  0.42068  0.97417  0.76663  1.0000
  H   H612      1.0  0.43465  0.86286  0.94366  1.0000
  C   C510      1.0  0.45153  0.87766  0.89579  1.0000
  C   C511      1.0  0.43469  0.97679  0.41895  1.0000
  Fe  Fe71      1.0  0.48186  0.81631  0.02952  1.0000
  C   C512      1.0  0.46509  0.91215  0.56474  1.0000
  H   H613      1.0  0.45165  0.89839  0.61850  1.0000
  N   N33       1.0  0.40736  0.88153  0.85020  1.0000
  C   C513      1.0  0.48087  0.92057  0.54323  1.0000
  C   C514      1.0  0.39589  0.86511  0.84262  1.0000
  S   S140      1.0  0.48449  0.85773  0.91788  1.0000
  H   H614      1.0  0.45359  0.91193  0.55348  1.0000
  C   C515      1.0  0.47766  0.95857  0.27373  1.0000
  H   H615      1.0  0.35212  0.77048  0.06358  1.0000
  N   N34       1.0  0.48190  0.92879  0.50377  1.0000
  C   C516      1.0  0.42326  0.98243  0.40214  1.0000
  C   C517      1.0  0.47307  0.97573  0.68468  1.0000
  H   H616      1.0  0.47313  0.92277  0.44544  1.0000
  H   H617      1.0  0.48453  0.95871  0.73608  1.0000
  H   H618      1.0  0.24788  0.75384  0.95004  1.0000
  H   H619      1.0  0.47546  0.94847  0.48002  1.0000
  H   H620      1.0  0.41567  0.96756  0.51391  1.0000
  H   H621      1.0  0.30296  0.77150  0.94207  1.0000
  C   C518      1.0  0.49348  0.99000  0.72817  1.0000
  N   N35       1.0  0.39666  0.98877  0.40633  1.0000
  H   H622      1.0  0.40331  0.99413  0.28240  1.0000
  H   H623      1.0  0.38163  0.98321  0.35627  1.0000
  H   H624      1.0  0.38493  0.99531  0.46018  1.0000
  H   H625      1.0  0.37444  0.97500  0.44451  1.0000
  C   C519      1.0  0.49133  0.86971  0.17962  1.0000
  H   H626      1.0  0.42600  0.98649  0.37086  1.0000
  H   H627      1.0  0.39053  0.99224  0.60926  1.0000
  H   H628      1.0  0.37279  0.99203  0.41843  1.0000
  C   C520      1.0  0.46038  0.74717  0.05403  1.0000
  H   H629      1.0  0.49650  0.99294  0.75948  1.0000
  C   C521      1.0  0.49525  0.92097  0.56194  1.0000
  C   C522      1.0  0.49546  0.87997  0.85435  1.0000
  H   H630      1.0  0.53505  0.10190  0.21074  1.0000
  C   C523      1.0  0.49881  0.16288  0.85215  1.0000
  H   H631      1.0  0.52698  0.05395  0.42157  1.0000
  S   S141      1.0  0.52938  0.11879  0.66656  1.0000
  Fe  Fe72      1.0  0.66565  0.17623  0.99079  1.0000
  S   S142      1.0  0.64653  0.17908  0.03794  1.0000
  S   S143      1.0  0.65265  0.15255  0.96087  1.0000
  Fe  Fe73      1.0  0.69263  0.20768  0.01573  1.0000
  S   S144      1.0  0.67490  0.21167  0.06501  1.0000
  S   S145      1.0  0.71848  0.22663  0.99331  1.0000
  Fe  Fe74      1.0  0.66652  0.18476  0.07980  1.0000
  S   S146      1.0  0.65716  0.17506  0.14471  1.0000
  Fe  Fe75      1.0  0.65618  0.20527  0.01961  1.0000
  S   S147      1.0  0.64071  0.22061  0.00550  1.0000
  S   S148      1.0  0.68562  0.18089  0.03368  1.0000
  S   S149      1.0  0.67394  0.20228  0.96940  1.0000
  Fe  Fe76      1.0  0.52145  0.21239  0.00096  1.0000
  S   S150      1.0  0.53844  0.20676  0.95195  1.0000
  C   C524      1.0  0.53606  0.14781  0.83768  1.0000
  S   S151      1.0  0.52027  0.16851  0.98043  1.0000
  H   H632      1.0  0.52612  0.10120  0.88006  1.0000
  Fe  Fe77      1.0  0.54180  0.18954  0.99769  1.0000
  S   S152      1.0  0.56344  0.18112  0.00776  1.0000
  Fe  Fe78      1.0  0.51548  0.18591  0.93862  1.0000
  H   H633      1.0  0.66090  0.13579  0.02730  1.0000
  S   S153      1.0  0.52657  0.19642  0.04812  1.0000
  H   H634      1.0  0.54346  0.12631  0.39076  1.0000
  Fe  Fe79      1.0  0.58792  0.09500  0.77001  1.0000
  S   S154      1.0  0.60669  0.08811  0.80117  1.0000
  S   S155      1.0  0.56470  0.09717  0.80174  1.0000
  Fe  Fe80      1.0  0.60613  0.09694  0.68580  1.0000
  S   S156      1.0  0.62677  0.09065  0.71063  1.0000
  S   S157      1.0  0.59877  0.09786  0.62236  1.0000
  Fe  Fe81      1.0  0.60614  0.07177  0.74943  1.0000
  S   S158      1.0  0.60474  0.04556  0.75290  1.0000
  Fe  Fe82      1.0  0.62534  0.10769  0.76037  1.0000
  S   S159      1.0  0.64734  0.12806  0.78160  1.0000
  S   S160      1.0  0.58576  0.07720  0.72207  1.0000
  S   S161      1.0  0.60628  0.11541  0.73185  1.0000
  Fe  Fe83      1.0  0.59327  0.09720  0.34759  1.0000
  S   S162      1.0  0.59894  0.08197  0.29874  1.0000
  S   S163      1.0  0.57083  0.10473  0.35744  1.0000
  Fe  Fe84      1.0  0.62274  0.09837  0.39267  1.0000
  S   S164      1.0  0.63123  0.08360  0.34687  1.0000
  S   S165      1.0  0.63712  0.10708  0.44668  1.0000
  Fe  Fe85      1.0  0.62548  0.09915  0.30029  1.0000
  S   S166      1.0  0.64391  0.10881  0.24426  1.0000
  Fe  Fe86      1.0  0.60417  0.06785  0.34907  1.0000
  S   S167      1.0  0.59460  0.04124  0.36864  1.0000
  S   S168      1.0  0.61924  0.11520  0.34618  1.0000
  S   S169      1.0  0.59624  0.08185  0.39763  1.0000
  C   C525      1.0  0.58417  0.02369  0.34331  1.0000
  C   C526      1.0  0.58111  0.02421  0.30307  1.0000
  H   H635      1.0  0.58575  0.03559  0.28590  1.0000
  C   C527      1.0  0.53378  0.14706  0.75507  1.0000
  C   C528      1.0  0.58403  0.01423  0.74525  1.0000
  C   C529      1.0  0.58497  0.03017  0.75273  1.0000
  C   C530      1.0  0.57018  0.03352  0.76045  1.0000
  H   H636      1.0  0.53396  0.15804  0.05211  1.0000
  H   H637      1.0  0.57071  0.04567  0.76683  1.0000
  C   C531      1.0  0.60998  0.09934  0.57447  1.0000
  C   C532      1.0  0.60084  0.09573  0.54090  1.0000
  C   C533      1.0  0.60902  0.09779  0.50181  1.0000
  C   C534      1.0  0.62647  0.10349  0.49575  1.0000
  C   C535      1.0  0.63564  0.10685  0.52938  1.0000
  C   C536      1.0  0.62743  0.10471  0.56866  1.0000
  H   H638      1.0  0.58734  0.09155  0.54504  1.0000
  H   H639      1.0  0.60180  0.09528  0.47634  1.0000
  H   H640      1.0  0.64915  0.11128  0.52503  1.0000
  H   H641      1.0  0.63461  0.10760  0.59427  1.0000
  C   C537      1.0  0.55460  0.02102  0.76138  1.0000
  C   C538      1.0  0.61884  0.21063  0.01034  1.0000
  C   C539      1.0  0.60839  0.21776  0.99374  1.0000
  C   C540      1.0  0.59110  0.20920  0.99428  1.0000
  C   C541      1.0  0.58430  0.19345  0.01123  1.0000
  C   C542      1.0  0.59469  0.18659  0.02880  1.0000
  C   C543      1.0  0.61181  0.19521  0.02882  1.0000
  H   H642      1.0  0.61371  0.22974  0.97961  1.0000
  H   H643      1.0  0.58316  0.21455  0.98054  1.0000
  H   H644      1.0  0.58947  0.17448  0.04229  1.0000
  H   H645      1.0  0.61956  0.18986  0.04305  1.0000
  C   C544      1.0  0.65274  0.15592  0.16971  1.0000
  C   C545      1.0  0.66145  0.14554  0.15849  1.0000
  C   C546      1.0  0.65855  0.13115  0.18146  1.0000
  C   C547      1.0  0.64693  0.12696  0.21591  1.0000
  C   C548      1.0  0.63804  0.13722  0.22675  1.0000
  C   C549      1.0  0.64097  0.15161  0.20383  1.0000
  H   H646      1.0  0.67088  0.14894  0.13308  1.0000
  H   H647      1.0  0.66549  0.12329  0.17279  1.0000
  H   H648      1.0  0.62909  0.13421  0.25314  1.0000
  H   H649      1.0  0.63430  0.15963  0.21310  1.0000
  C   C550      1.0  0.65117  0.14649  0.91037  1.0000
  C   C551      1.0  0.63856  0.13198  0.90263  1.0000
  C   C552      1.0  0.63711  0.12630  0.86343  1.0000
  C   C553      1.0  0.64840  0.13499  0.83141  1.0000
  C   C554      1.0  0.66092  0.14960  0.83907  1.0000
  C   C555      1.0  0.66224  0.15540  0.87827  1.0000
  H   H650      1.0  0.62984  0.12500  0.92703  1.0000
  H   H651      1.0  0.62738  0.11510  0.85801  1.0000
  H   H652      1.0  0.66973  0.15640  0.81452  1.0000
  H   H653      1.0  0.67207  0.16653  0.88371  1.0000
  C   C556      1.0  0.53949  0.11246  0.70297  1.0000
  C   C557      1.0  0.53191  0.09739  0.72309  1.0000
  C   C558      1.0  0.53952  0.09281  0.75406  1.0000
  C   C559      1.0  0.55497  0.10312  0.76402  1.0000
  C   C560      1.0  0.56285  0.11798  0.74301  1.0000
  C   C561      1.0  0.55505  0.12270  0.71263  1.0000
  H   H654      1.0  0.52036  0.08908  0.71428  1.0000
  H   H655      1.0  0.53364  0.08113  0.76959  1.0000
  H   H656      1.0  0.57485  0.12594  0.75056  1.0000
  H   H657      1.0  0.56095  0.13437  0.69716  1.0000
  C   C562      1.0  0.53204  0.14848  0.07458  1.0000
  C   C563      1.0  0.63249  0.10982  0.09713  1.0000
  H   H658      1.0  0.59541  0.01155  0.73916  1.0000
  C   C564      1.0  0.63378  0.13628  0.06825  1.0000
  C   C565      1.0  0.50825  0.01753  0.26677  1.0000
  H   H659      1.0  0.60835  0.06664  0.58170  1.0000
  H   H660      1.0  0.60745  0.04555  0.65749  1.0000
  H   H661      1.0  0.65281  0.13405  0.38266  1.0000
  C   C566      1.0  0.53784  0.01670  0.36639  1.0000
  H   H662      1.0  0.50834  0.02989  0.26688  1.0000
  H   H663      1.0  0.59679  0.03264  0.84902  1.0000
  C   C567      1.0  0.52826  0.07924  0.28323  1.0000
  C   C568      1.0  0.54464  0.08097  0.26850  1.0000
  C   C569      1.0  0.55790  0.08871  0.29125  1.0000
  C   C570      1.0  0.55470  0.09474  0.32849  1.0000
  C   C571      1.0  0.53830  0.09269  0.34334  1.0000
  C   C572      1.0  0.52510  0.08470  0.32109  1.0000
  H   H664      1.0  0.54712  0.07671  0.23919  1.0000
  H   H665      1.0  0.57059  0.09045  0.27943  1.0000
  H   H666      1.0  0.53567  0.09707  0.37235  1.0000
  H   H667      1.0  0.51245  0.08273  0.33356  1.0000
  N   N36       1.0  0.56862  0.12251  0.57837  1.0000
  C   C573      1.0  0.56271  0.10894  0.60898  1.0000
  C   C574      1.0  0.58688  0.13058  0.58001  1.0000
  C   C575      1.0  0.56058  0.13456  0.58938  1.0000
  C   C576      1.0  0.56405  0.11625  0.53858  1.0000
  C   C577      1.0  0.57610  0.11764  0.50518  1.0000
  C   C578      1.0  0.54701  0.10831  0.53246  1.0000
  C   C579      1.0  0.57124  0.11160  0.46803  1.0000
  C   C580      1.0  0.54230  0.10240  0.49514  1.0000
  C   C581      1.0  0.55440  0.10408  0.46301  1.0000
  H   H668      1.0  0.56737  0.09902  0.60001  1.0000
  H   H669      1.0  0.56714  0.11278  0.63876  1.0000
  H   H670      1.0  0.54885  0.10375  0.61415  1.0000
  H   H671      1.0  0.59377  0.12216  0.57320  1.0000
  H   H672      1.0  0.58984  0.13487  0.61056  1.0000
  H   H673      1.0  0.59211  0.14127  0.55872  1.0000
  H   H674      1.0  0.54674  0.12942  0.59066  1.0000
  H   H675      1.0  0.56334  0.13917  0.61977  1.0000
  H   H676      1.0  0.56482  0.14503  0.56735  1.0000
  H   H677      1.0  0.58937  0.12323  0.50695  1.0000
  H   H678      1.0  0.53717  0.10663  0.55663  1.0000
  S   S170      1.0  0.51146  0.18112  0.87248  1.0000
  C   C582      1.0  0.56842  0.00173  0.74580  1.0000
  H   H679      1.0  0.55072  0.09954  0.43410  1.0000
  C   C583      1.0  0.58831  0.01876  0.58523  1.0000
  H   H680      1.0  0.50549  0.16086  0.20106  1.0000
  C   C584      1.0  0.53289  0.13990  0.30588  1.0000
  H   H681      1.0  0.56620  0.02545  0.66956  1.0000
  N   N37       1.0  0.51840  0.11833  0.84802  1.0000
  H   H682      1.0  0.58145  0.06591  0.60894  1.0000
  H   H683      1.0  0.59827  0.05043  0.55116  1.0000
  C   C585      1.0  0.69280  0.13980  0.34646  1.0000
  C   C586      1.0  0.52330  0.01460  0.26293  1.0000
  H   H684      1.0  0.51941  0.13234  0.41996  1.0000
  C   C587      1.0  0.68137  0.15058  0.27334  1.0000
  H   H685      1.0  0.69921  0.15236  0.35554  1.0000
  H   H686      1.0  0.54850  0.11117  0.16659  1.0000
  C   C588      1.0  0.53674  0.13139  0.37173  1.0000
  H   H687      1.0  0.53902  0.11000  0.83465  1.0000
  C   C589      1.0  0.66309  0.17060  0.29454  1.0000
  C   C590      1.0  0.67132  0.17206  0.25606  1.0000
  C   C591      1.0  0.55365  0.00507  0.75425  1.0000
  H   H688      1.0  0.54235  0.12331  0.20427  1.0000
  S   S171      1.0  0.51962  0.23729  0.01758  1.0000
  C   C592      1.0  0.62259  0.08725  0.16370  1.0000
  H   H689      1.0  0.63382  0.07298  0.12768  1.0000
  H   H690      1.0  0.61928  0.07893  0.18968  1.0000
  H   H691      1.0  0.64224  0.09206  0.06969  1.0000
  H   H692      1.0  0.58059  0.11278  0.44283  1.0000
  C   C593      1.0  0.67343  0.14897  0.31310  1.0000
  C   C594      1.0  0.63575  0.09507  0.09596  1.0000
  C   C595      1.0  0.62961  0.11351  0.02674  1.0000
  C   C596      1.0  0.57812  0.00880  0.36519  1.0000
  H   H693      1.0  0.67363  0.11861  0.29840  1.0000
  C   C597      1.0  0.57059  0.01930  0.64561  1.0000
  H   H694      1.0  0.54325  0.02372  0.76808  1.0000
  H   H695      1.0  0.55655  0.15887  0.09339  1.0000
  H   H696      1.0  0.52794  0.05940  0.36887  1.0000
  H   H697      1.0  0.66293  0.13142  0.07866  1.0000
  C   C598      1.0  0.51744  0.09482  0.14857  1.0000
  C   C599      1.0  0.62392  0.11272  0.13312  1.0000
  H   H698      1.0  0.63325  0.10301  0.01752  1.0000
  H   H699      1.0  0.68632  0.16288  0.21505  1.0000
  C   C600      1.0  0.63091  0.08402  0.12888  1.0000
  H   H700      1.0  0.67421  0.24120  0.02847  1.0000
  C   C601      1.0  0.61897  0.10147  0.16564  1.0000
  H   H701      1.0  0.67025  0.18062  0.23390  1.0000
  N   N38       1.0  0.52323  0.11093  0.16639  1.0000
  H   H702      1.0  0.50232  0.10191  0.49543  1.0000
  H   H703      1.0  0.52392  0.23403  0.89181  1.0000
  C   C602      1.0  0.50340  0.00986  0.37408  1.0000
  C   C603      1.0  0.52660  0.12385  0.13482  1.0000
  C   C604      1.0  0.52291  0.13508  0.38821  1.0000
  H   H704      1.0  0.51217  0.22556  0.93862  1.0000
  H   H705      1.0  0.56198  0.03768  0.40743  1.0000
  H   H706      1.0  0.51484  0.21250  0.90015  1.0000
  H   H707      1.0  0.55104  0.01877  0.36286  1.0000
  C   C605      1.0  0.58111  0.00190  0.58624  1.0000
  C   C606      1.0  0.51906  0.14366  0.32202  1.0000
  C   C607      1.0  0.57284  0.01388  0.84858  1.0000
  H   H708      1.0  0.53654  0.14145  0.27384  1.0000
  H   H709      1.0  0.49794  0.11002  0.18403  1.0000
  S   S172      1.0  0.49762  0.10371  0.30598  1.0000
  N   N39       1.0  0.61434  0.17095  0.91937  1.0000
  C   C608      1.0  0.61219  0.16225  0.95875  1.0000
  C   C609      1.0  0.63218  0.18150  0.91190  1.0000
  C   C610      1.0  0.60413  0.18159  0.92180  1.0000
  C   C611      1.0  0.60875  0.15905  0.88808  1.0000
  C   C612      1.0  0.59191  0.14836  0.89070  1.0000
  C   C613      1.0  0.61963  0.15755  0.85476  1.0000
  C   C614      1.0  0.58636  0.13683  0.86194  1.0000
  C   C615      1.0  0.61387  0.14608  0.82599  1.0000
  C   C616      1.0  0.59734  0.13569  0.82974  1.0000
  H   H710      1.0  0.61885  0.15338  0.95716  1.0000
  H   H711      1.0  0.61729  0.17069  0.98264  1.0000
  H   H712      1.0  0.59884  0.15560  0.96916  1.0000
  H   H713      1.0  0.64067  0.17434  0.91173  1.0000
  H   H714      1.0  0.63591  0.19038  0.93585  1.0000
  H   H715      1.0  0.63469  0.18860  0.88293  1.0000
  H   H716      1.0  0.59089  0.17510  0.93364  1.0000
  H   H717      1.0  0.60894  0.19161  0.94233  1.0000
  H   H718      1.0  0.60417  0.18717  0.89182  1.0000
  H   H719      1.0  0.58296  0.14878  0.91527  1.0000
  H   H720      1.0  0.63272  0.16484  0.85045  1.0000
  H   H721      1.0  0.57355  0.12855  0.86458  1.0000
  H   H722      1.0  0.65571  0.17819  0.30225  1.0000
  H   H723      1.0  0.59308  0.12660  0.80785  1.0000
  N   N40       1.0  0.54364  0.04581  0.38212  1.0000
  C   C617      1.0  0.55496  0.05217  0.34486  1.0000
  C   C618      1.0  0.59789  0.05113  0.65240  1.0000
  H   H724      1.0  0.53285  0.14673  0.72296  1.0000
  H   H725      1.0  0.50753  0.15273  0.43792  1.0000
  H   H726      1.0  0.58855  0.04780  0.67916  1.0000
  C   C619      1.0  0.53153  0.11255  0.86103  1.0000
  C   C620      1.0  0.50642  0.10495  0.82789  1.0000
  H   H727      1.0  0.50157  0.11485  0.11472  1.0000
  C   C621      1.0  0.49854  0.22031  0.84615  1.0000
  H   H728      1.0  0.54776  0.05250  0.31901  1.0000
  H   H729      1.0  0.56371  0.06468  0.34816  1.0000
  H   H730      1.0  0.56295  0.04482  0.33665  1.0000
  H   H731      1.0  0.50831  0.03455  0.38538  1.0000
  C   C622      1.0  0.59870  0.00894  0.85147  1.0000
  H   H732      1.0  0.69967  0.13799  0.31813  1.0000
  C   C623      1.0  0.60329  0.05321  0.58077  1.0000
  C   C624      1.0  0.55384  0.04495  0.41503  1.0000
  H   H733      1.0  0.52660  0.09392  0.12371  1.0000
  C   C625      1.0  0.51414  0.02563  0.37901  1.0000
  H   H734      1.0  0.65721  0.15866  0.35185  1.0000
  H   H735      1.0  0.54039  0.12167  0.87848  1.0000
  H   H736      1.0  0.59785  0.02423  0.56086  1.0000
  H   H737      1.0  0.61296  0.10413  0.19333  1.0000
  H   H738      1.0  0.66815  0.12822  0.40429  1.0000
  C   C626      1.0  0.51393  0.12390  0.11034  1.0000
  C   C627      1.0  0.66407  0.15926  0.32281  1.0000
  Fe  Fe87      1.0  0.50163  0.10649  0.67827  1.0000
  C   C628      1.0  0.73276  0.24592  0.00586  1.0000
  H   H739      1.0  0.61214  0.01357  0.85235  1.0000
  H   H740      1.0  0.51561  0.08488  0.17130  1.0000
  H   H741      1.0  0.51360  0.12394  0.21046  1.0000
  H   H742      1.0  0.65403  0.11815  0.32239  1.0000
  C   C629      1.0  0.66727  0.12045  0.32748  1.0000
  H   H743      1.0  0.51223  0.16903  0.79321  1.0000
  C   C630      1.0  0.57220  0.00987  0.28490  1.0000
  C   C631      1.0  0.53178  0.02946  0.37578  1.0000
  C   C632      1.0  0.54217  0.13679  0.12788  1.0000
  H   H744      1.0  0.66032  0.11618  0.04222  1.0000
  H   H745      1.0  0.67175  0.14925  0.39620  1.0000
  H   H746      1.0  0.56987  0.04806  0.58474  1.0000
  C   C633      1.0  0.53534  0.05769  0.39307  1.0000
  H   H747      1.0  0.54462  0.06985  0.39756  1.0000
  H   H748      1.0  0.54884  0.17225  0.75305  1.0000
  C   C634      1.0  0.51675  0.13593  0.08038  1.0000
  C   C635      1.0  0.54394  0.16177  0.81318  1.0000
  H   H749      1.0  0.62241  0.14495  0.80104  1.0000
  H   H750      1.0  0.51225  0.14776  0.30125  1.0000
  H   H751      1.0  0.51884  0.12249  0.76412  1.0000
  C   C636      1.0  0.59007  0.01971  0.84999  1.0000
  H   H752      1.0  0.62131  0.12376  0.13753  1.0000
  N   N41       1.0  0.63789  0.12136  0.06193  1.0000
  C   C637      1.0  0.65627  0.12635  0.05218  1.0000
  H   H753      1.0  0.62010  0.13357  0.07467  1.0000
  H   H754      1.0  0.63782  0.14454  0.04109  1.0000
  C   C638      1.0  0.66657  0.13725  0.38296  1.0000
  C   C639      1.0  0.50996  0.11190  0.19682  1.0000
  H   H755      1.0  0.55070  0.17301  0.82641  1.0000
  H   H756      1.0  0.68814  0.14276  0.26320  1.0000
  C   C640      1.0  0.58322  0.02800  0.61504  1.0000
  H   H757      1.0  0.53746  0.14876  0.86935  1.0000
  H   H758      1.0  0.61577  0.10917  0.03318  1.0000
  H   H759      1.0  0.63306  0.12199  0.99993  1.0000
  H   H760      1.0  0.64027  0.14330  0.09310  1.0000
  C   C641      1.0  0.54172  0.13378  0.33070  1.0000
  H   H761      1.0  0.55226  0.13058  0.31816  1.0000
  H   H762      1.0  0.50682  0.13583  0.06231  1.0000
  H   H763      1.0  0.58043  0.00829  0.39632  1.0000
  H   H764      1.0  0.57010  0.01028  0.25361  1.0000
  C   C642      1.0  0.68041  0.16204  0.24547  1.0000
  N   N42       1.0  0.67492  0.13690  0.34220  1.0000
  H   H765      1.0  0.66741  0.11089  0.34928  1.0000
  H   H766      1.0  0.69432  0.13135  0.36951  1.0000
  H   H767      1.0  0.50516  0.09214  0.13649  1.0000
  C   C643      1.0  0.54283  0.16139  0.77193  1.0000
  C   C644      1.0  0.52570  0.13308  0.77934  1.0000
  C   C645      1.0  0.57660  0.05250  0.61153  1.0000
  H   H768      1.0  0.56729  0.04922  0.63846  1.0000
  H   H769      1.0  0.56244  0.05712  0.42180  1.0000
  N   N43       1.0  0.59023  0.04588  0.61462  1.0000
  C   C646      1.0  0.52644  0.13306  0.82161  1.0000
  H   H770      1.0  0.61418  0.04910  0.58198  1.0000
  H   H771      1.0  0.60407  0.06451  0.65235  1.0000
  H   H772      1.0  0.55249  0.13798  0.14525  1.0000
  H   H773      1.0  0.52920  0.09649  0.49110  1.0000
  H   H774      1.0  0.56623  0.02236  0.84678  1.0000
  H   H775      1.0  0.54577  0.03942  0.44308  1.0000
  H   H776      1.0  0.50999  0.22882  0.82901  1.0000
  C   C647      1.0  0.54473  0.14892  0.09815  1.0000
  C   C648      1.0  0.52703  0.00101  0.36159  1.0000
  C   C649      1.0  0.51271  0.22409  0.90563  1.0000
  H   H777      1.0  0.51719  0.12995  0.90476  1.0000
  S   S173      1.0  0.51176  0.07134  0.25365  1.0000
  C   C650      1.0  0.53802  0.11197  0.18770  1.0000
  C   C651      1.0  0.50900  0.12187  0.88415  1.0000
  C   C652      1.0  0.51374  0.14155  0.36381  1.0000
  Fe  Fe88      1.0  0.50485  0.17623  0.02850  1.0000
  H   H778      1.0  0.53507  0.02460  0.26039  1.0000
  H   H779      1.0  0.50727  0.10253  0.22140  1.0000
  H   H780      1.0  0.51266  0.17103  0.37382  1.0000
  H   H781      1.0  0.51283  0.10030  0.80300  1.0000
  C   C653      1.0  0.56339  0.00247  0.64605  1.0000
  H   H782      1.0  0.50021  0.12775  0.87530  1.0000
  H   H783      1.0  0.50597  0.17028  0.13059  1.0000
  H   H784      1.0  0.50147  0.11073  0.90247  1.0000
  S   S174      1.0  0.49831  0.19238  0.98509  1.0000
  C   C654      1.0  0.52320  0.99878  0.26219  1.0000
  H   H785      1.0  0.67446  0.23727  0.95789  1.0000
  C   C655      1.0  0.49747  0.15849  0.14147  1.0000
  C   C656      1.0  0.50207  0.16013  0.81138  1.0000
  N   N44       1.0  0.49894  0.14549  0.38011  1.0000
  N   N45       1.0  0.49733  0.22431  0.88911  1.0000
  C   C657      1.0  0.68710  0.24678  0.95307  1.0000
  C   C658      1.0  0.50061  0.16210  0.36646  1.0000
  H   H786      1.0  0.49973  0.09435  0.84877  1.0000
  C   C659      1.0  0.49718  0.15308  0.18142  1.0000
  H   H787      1.0  0.50002  0.16319  0.33355  1.0000
  H   H788      1.0  0.69628  0.24040  0.95432  1.0000
  H   H789      1.0  0.69629  0.24486  0.02629  1.0000
  H   H790      1.0  0.49942  0.20802  0.84263  1.0000
  C   C660      1.0  0.56419  0.99728  0.84732  1.0000
  C   C661      1.0  0.50984  0.99758  0.36568  1.0000
  H   H791      1.0  0.49667  0.10892  0.81579  1.0000
  H   H792      1.0  0.72044  0.24698  0.06422  1.0000
  Fe  Fe89      1.0  0.65935  0.45892  0.96127  1.0000
  S   S175      1.0  0.64960  0.47929  0.96933  1.0000
  S   S176      1.0  0.64221  0.43562  0.93742  1.0000
  Fe  Fe90      1.0  0.69545  0.48062  0.97547  1.0000
  N   N46       1.0  0.68943  0.25922  0.98380  1.0000
  H   H793      1.0  0.50421  0.40601  0.78765  1.0000
  H   H794      1.0  0.66351  0.25695  0.98362  1.0000
  C   C662      1.0  0.55189  0.42835  0.90337  1.0000
  S   S177      1.0  0.50258  0.42029  0.69090  1.0000
  H   H795      1.0  0.58377  0.33702  0.96708  1.0000
  S   S178      1.0  0.67341  0.46372  0.01605  1.0000
  S   S179      1.0  0.68167  0.47394  0.92013  1.0000
  Fe  Fe91      1.0  0.53273  0.33573  0.97665  1.0000
  S   S180      1.0  0.55230  0.35759  0.94329  1.0000
  S   S181      1.0  0.53479  0.31121  0.95726  1.0000
  Fe  Fe92      1.0  0.51735  0.35766  0.02580  1.0000
  S   S182      1.0  0.53597  0.38023  0.99636  1.0000
  H   H796      1.0  0.61239  0.43948  0.90586  1.0000
  Fe  Fe93      1.0  0.53145  0.36747  0.93850  1.0000
  H   H797      1.0  0.73797  0.49154  0.03785  1.0000
  Fe  Fe94      1.0  0.55505  0.36865  0.00351  1.0000
  S   S183      1.0  0.57876  0.38253  0.03160  1.0000
  C   C663      1.0  0.57840  0.43023  0.92647  1.0000
  S   S184      1.0  0.53669  0.34653  0.03749  1.0000
  S   S185      1.0  0.51524  0.46909  0.29094  1.0000
  H   H798      1.0  0.56327  0.33216  0.99270  1.0000
  N   N47       1.0  0.62189  0.47252  0.26182  1.0000
  H   H799      1.0  0.68760  0.25893  0.04892  1.0000
  C   C664      1.0  0.74246  0.26836  0.05053  1.0000
  C   C665      1.0  0.61572  0.46460  0.30243  1.0000
  H   H800      1.0  0.67807  0.27342  0.95236  1.0000
  C   C666      1.0  0.70610  0.27210  0.97878  1.0000
  C   C667      1.0  0.51985  0.46949  0.71589  1.0000
  C   C668      1.0  0.52093  0.46521  0.67591  1.0000
  C   C669      1.0  0.53431  0.47438  0.64880  1.0000
  H   H801      1.0  0.51521  0.39420  0.61168  1.0000
  C   C670      1.0  0.72596  0.29700  0.00226  1.0000
  C   C671      1.0  0.53220  0.48305  0.72875  1.0000
  H   H802      1.0  0.51151  0.45478  0.66567  1.0000
  H   H803      1.0  0.53511  0.47089  0.61799  1.0000
  H   H804      1.0  0.52242  0.40834  0.84232  1.0000
  C   C672      1.0  0.49933  0.39223  0.97671  1.0000
  C   C673      1.0  0.53475  0.47349  0.30904  1.0000
  C   C674      1.0  0.53886  0.46180  0.33000  1.0000
  C   C675      1.0  0.55510  0.46534  0.34106  1.0000
  C   C676      1.0  0.56707  0.48064  0.33173  1.0000
  C   C677      1.0  0.51506  0.37539  0.12957  1.0000
  C   C678      1.0  0.54668  0.48882  0.30036  1.0000
  H   H805      1.0  0.52961  0.45006  0.33755  1.0000
  H   H806      1.0  0.55833  0.45628  0.35702  1.0000
  C   C679      1.0  0.60711  0.44494  0.23447  1.0000
  H   H807      1.0  0.51248  0.26390  0.05449  1.0000
  C   C680      1.0  0.53049  0.29073  0.97498  1.0000
  C   C681      1.0  0.52214  0.28467  0.01285  1.0000
  C   C682      1.0  0.51906  0.26840  0.02524  1.0000
  C   C683      1.0  0.52427  0.25787  0.00022  1.0000
  C   C684      1.0  0.53279  0.26399  0.96252  1.0000
  C   C685      1.0  0.53581  0.28024  0.95006  1.0000
  H   H808      1.0  0.55631  0.30793  0.02562  1.0000
  S   S186      1.0  0.58744  0.48523  0.34463  1.0000
  H   H809      1.0  0.51501  0.42571  0.49228  1.0000
  H   H810      1.0  0.54232  0.28471  0.92076  1.0000
  H   H811      1.0  0.74360  0.28491  0.91949  1.0000
  H   H812      1.0  0.59336  0.45471  0.99331  1.0000
  C   C686      1.0  0.55895  0.48711  0.45008  1.0000
  H   H813      1.0  0.63501  0.47822  0.18243  1.0000
  C   C687      1.0  0.62647  0.46606  0.18945  1.0000
  S   S187      1.0  0.72276  0.48094  0.96231  1.0000
  H   H814      1.0  0.55583  0.28014  0.02620  1.0000
  C   C688      1.0  0.55313  0.48216  0.52214  1.0000
  H   H815      1.0  0.57173  0.35018  0.06797  1.0000
  H   H816      1.0  0.51793  0.29245  0.03255  1.0000
  Fe  Fe95      1.0  0.67254  0.49459  0.93184  1.0000
  S   S188      1.0  0.51169  0.34514  0.96733  1.0000
  C   C689      1.0  0.62438  0.42139  0.96435  1.0000
  C   C690      1.0  0.62144  0.42123  0.00617  1.0000
  C   C691      1.0  0.60730  0.40936  0.02638  1.0000
  C   C692      1.0  0.59577  0.39784  0.00492  1.0000
  C   C693      1.0  0.59848  0.39828  0.96305  1.0000
  C   C694      1.0  0.61283  0.40987  0.94295  1.0000
  H   H817      1.0  0.63028  0.43000  0.02296  1.0000
  H   H818      1.0  0.60534  0.40903  0.05880  1.0000
  H   H819      1.0  0.58978  0.38940  0.94622  1.0000
  H   H820      1.0  0.61506  0.40985  0.91060  1.0000
  S   S189      1.0  0.52990  0.38512  0.88997  1.0000
  N   N48       1.0  0.57545  0.46216  0.73058  1.0000
  C   C695      1.0  0.59342  0.46570  0.71716  1.0000
  C   C696      1.0  0.56687  0.46252  0.69417  1.0000
  C   C697      1.0  0.56863  0.44653  0.75387  1.0000
  C   C698      1.0  0.57655  0.44374  0.78724  1.0000
  C   C699      1.0  0.55417  0.43374  0.74446  1.0000
  C   C700      1.0  0.57083  0.42884  0.80862  1.0000
  C   C701      1.0  0.54851  0.41893  0.76625  1.0000
  C   C702      1.0  0.55686  0.41645  0.79811  1.0000
  H   H821      1.0  0.59872  0.47690  0.69770  1.0000
  H   H822      1.0  0.60303  0.44034  0.97711  1.0000
  H   H823      1.0  0.55774  0.40796  0.92398  1.0000
  H   H824      1.0  0.56757  0.45293  0.67345  1.0000
  H   H825      1.0  0.61768  0.49096  0.22630  1.0000
  H   H826      1.0  0.64526  0.49033  0.23559  1.0000
  H   H827      1.0  0.54697  0.43482  0.72043  1.0000
  H   H828      1.0  0.57723  0.42686  0.83356  1.0000
  H   H829      1.0  0.53752  0.40928  0.75843  1.0000
  H   H830      1.0  0.55237  0.40492  0.81493  1.0000
  N   N49       1.0  0.54586  0.44040  0.20493  1.0000
  C   C703      1.0  0.53140  0.44002  0.18319  1.0000
  C   C704      1.0  0.55093  0.42653  0.19210  1.0000
  C   C705      1.0  0.54030  0.43788  0.24859  1.0000
  C   C706      1.0  0.55936  0.45629  0.19705  1.0000
  C   C707      1.0  0.55683  0.47060  0.21034  1.0000
  C   C708      1.0  0.57518  0.45814  0.17597  1.0000
  C   C709      1.0  0.56938  0.48575  0.20361  1.0000
  C   C710      1.0  0.59764  0.31509  0.03508  1.0000
  C   C711      1.0  0.58470  0.48715  0.18282  1.0000
  H   H831      1.0  0.53505  0.44219  0.15030  1.0000
  H   H832      1.0  0.52107  0.42809  0.18792  1.0000
  H   H833      1.0  0.52595  0.44927  0.19351  1.0000
  H   H834      1.0  0.55414  0.42697  0.15902  1.0000
  H   H835      1.0  0.54059  0.41477  0.19924  1.0000
  H   H836      1.0  0.56164  0.42597  0.20776  1.0000
  H   H837      1.0  0.55107  0.44017  0.26672  1.0000
  H   H838      1.0  0.53325  0.44583  0.25907  1.0000
  C   C712      1.0  0.50005  0.37213  0.11226  1.0000
  H   H839      1.0  0.54504  0.47016  0.22605  1.0000
  H   H840      1.0  0.57827  0.44804  0.16430  1.0000
  C   C713      1.0  0.54386  0.47479  0.44499  1.0000
  C   C714      1.0  0.63093  0.49293  0.82309  1.0000
  H   H841      1.0  0.64258  0.48516  0.87031  1.0000
  S   S190      1.0  0.50754  0.39654  0.23394  1.0000
  H   H842      1.0  0.61570  0.49325  0.27936  1.0000
  H   H843      1.0  0.55878  0.32954  0.06581  1.0000
  H   H844      1.0  0.60832  0.29624  0.03795  1.0000
  C   C715      1.0  0.61866  0.46103  0.22896  1.0000
  H   H845      1.0  0.58730  0.45307  0.79689  1.0000
  S   S191      1.0  0.50318  0.42177  0.32403  1.0000
  C   C716      1.0  0.56224  0.42098  0.91852  1.0000
  H   H846      1.0  0.59689  0.47868  0.94546  1.0000
  C   C717      1.0  0.68680  0.25075  0.02361  1.0000
  C   C718      1.0  0.60412  0.43448  0.20256  1.0000
  H   H847      1.0  0.60967  0.32419  0.03764  1.0000
  C   C719      1.0  0.74346  0.48539  0.97743  1.0000
  H   H848      1.0  0.58099  0.47665  0.78274  1.0000
  C   C720      1.0  0.61332  0.48420  0.25569  1.0000
  H   H849      1.0  0.71682  0.26324  0.92552  1.0000
  C   C721      1.0  0.64009  0.48160  0.26175  1.0000
  H   H850      1.0  0.55605  0.48466  0.55261  1.0000
  H   H851      1.0  0.50612  0.35662  0.85684  1.0000
  C   C722      1.0  0.71027  0.28478  0.00612  1.0000
  H   H852      1.0  0.57614  0.33469  0.09529  1.0000
  C   C723      1.0  0.73411  0.28500  0.94320  1.0000
  H   H853      1.0  0.62072  0.48156  0.82343  1.0000
  Fe  Fe96      1.0  0.66462  0.48521  0.02246  1.0000
  C   C724      1.0  0.64329  0.49493  0.84972  1.0000
  H   H854      1.0  0.60133  0.46793  0.74249  1.0000
  C   C725      1.0  0.57195  0.33761  0.06665  1.0000
  H   H855      1.0  0.49890  0.24890  0.83261  1.0000
  C   C726      1.0  0.56794  0.30592  0.02844  1.0000
  H   H856      1.0  0.70153  0.28520  0.03112  1.0000
  C   C727      1.0  0.50563  0.36740  0.84213  1.0000
  C   C728      1.0  0.57663  0.33947  0.99426  1.0000
  H   H857      1.0  0.58597  0.42386  0.93775  1.0000
  H   H858      1.0  0.53160  0.42535  0.25643  1.0000
  H   H859      1.0  0.57260  0.47428  0.67673  1.0000
  H   H860      1.0  0.60576  0.47861  0.89414  1.0000
  C   C729      1.0  0.51490  0.39649  0.83368  1.0000
  C   C730      1.0  0.58759  0.47339  0.16899  1.0000
  H   H861      1.0  0.57752  0.35235  0.99188  1.0000
  H   H862      1.0  0.62972  0.45970  0.12799  1.0000
  H   H863      1.0  0.61334  0.45541  0.87108  1.0000
  H   H864      1.0  0.72912  0.30628  0.02417  1.0000
  C   C731      1.0  0.50438  0.38760  0.18654  1.0000
  H   H865      1.0  0.59923  0.36071  0.03330  1.0000
  H   H866      1.0  0.54967  0.45066  0.88347  1.0000
  H   H867      1.0  0.61008  0.43161  0.13973  1.0000
  H   H868      1.0  0.61852  0.48134  0.93418  1.0000
  C   C732      1.0  0.56751  0.28993  0.02871  1.0000
  H   H869      1.0  0.61906  0.47345  0.32658  1.0000
  C   C733      1.0  0.61230  0.43975  0.16436  1.0000
  H   H870      1.0  0.60028  0.44012  0.26318  1.0000
  H   H871      1.0  0.53939  0.42106  0.89708  1.0000
  H   H872      1.0  0.64291  0.48922  0.28836  1.0000
  H   H873      1.0  0.67597  0.27471  0.00602  1.0000
  H   H874      1.0  0.55350  0.46112  0.70203  1.0000
  H   H875      1.0  0.57866  0.48721  0.73950  1.0000
  H   H876      1.0  0.53702  0.25621  0.94288  1.0000
  C   C734      1.0  0.58301  0.31902  0.03159  1.0000
  H   H877      1.0  0.62108  0.45504  0.30820  1.0000
  N   N50       1.0  0.58301  0.33582  0.03157  1.0000
  H   H878      1.0  0.50856  0.49361  0.24069  1.0000
  H   H879      1.0  0.50887  0.39423  0.95038  1.0000
  C   C735      1.0  0.57387  0.45445  0.90395  1.0000
  H   H880      1.0  0.59950  0.47458  0.15247  1.0000
  C   C736      1.0  0.71856  0.27255  0.94711  1.0000
  C   C737      1.0  0.67621  0.26643  0.98133  1.0000
  H   H881      1.0  0.50073  0.41933  0.42995  1.0000
  H   H882      1.0  0.59536  0.45564  0.69996  1.0000
  S   S192      1.0  0.64677  0.48823  0.07464  1.0000
  C   C738      1.0  0.56279  0.49239  0.31170  1.0000
  H   H883      1.0  0.64734  0.47325  0.26159  1.0000
  C   C739      1.0  0.58463  0.44730  0.92015  1.0000
  S   S193      1.0  0.50272  0.42425  0.57535  1.0000
  C   C740      1.0  0.61409  0.45253  0.90311  1.0000
  C   C741      1.0  0.51564  0.38263  0.85330  1.0000
  C   C742      1.0  0.57378  0.47526  0.75622  1.0000
  H   H884      1.0  0.50603  0.48900  0.65450  1.0000
  C   C743      1.0  0.60341  0.45295  0.97236  1.0000
  C   C744      1.0  0.60574  0.47459  0.92575  1.0000
  N   N51       1.0  0.60164  0.45681  0.93008  1.0000
  H   H885      1.0  0.56046  0.47299  0.76722  1.0000
  H   H886      1.0  0.60865  0.34788  0.00750  1.0000
  C   C745      1.0  0.55773  0.44503  0.89579  1.0000
  H   H887      1.0  0.57758  0.46729  0.89746  1.0000
  H   H888      1.0  0.59550  0.42216  0.20752  1.0000
  C   C746      1.0  0.58203  0.28648  0.03212  1.0000
  H   H889      1.0  0.68831  0.25212  0.92224  1.0000
  H   H890      1.0  0.58158  0.27403  0.03229  1.0000
  H   H891      1.0  0.56636  0.49316  0.42289  1.0000
  C   C747      1.0  0.59705  0.29902  0.03530  1.0000
  C   C748      1.0  0.62339  0.45554  0.15781  1.0000
  H   H892      1.0  0.52490  0.37169  0.11494  1.0000
  H   H893      1.0  0.52858  0.38490  0.18031  1.0000
  C   C749      1.0  0.59979  0.34823  0.03370  1.0000
  H   H894      1.0  0.60509  0.34677  0.06199  1.0000
  H   H895      1.0  0.60182  0.45935  0.30684  1.0000
  C   C750      1.0  0.51713  0.38293  0.16666  1.0000
  H   H896      1.0  0.61557  0.46065  0.98209  1.0000
  C   C751      1.0  0.54681  0.48773  0.66169  1.0000
  H   H897      1.0  0.53131  0.48645  0.75963  1.0000
  C   C752      1.0  0.50461  0.39522  0.80254  1.0000
  C   C753      1.0  0.53818  0.46974  0.51665  1.0000
  H   H898      1.0  0.62710  0.45914  0.91008  1.0000
  C   C754      1.0  0.56404  0.49122  0.48906  1.0000
  H   H899      1.0  0.54015  0.47194  0.41508  1.0000
  H   H900      1.0  0.50405  0.37800  0.67540  1.0000
  H   H901      1.0  0.71989  0.44538  0.99361  1.0000
  H   H902      1.0  0.49984  0.40424  0.98745  1.0000
  H   H903      1.0  0.49920  0.38959  0.55462  1.0000
  H   H904      1.0  0.52188  0.45655  0.47402  1.0000
  C   C755      1.0  0.73784  0.29713  0.97082  1.0000
  H   H905      1.0  0.58406  0.49415  0.55106  1.0000
  C   C756      1.0  0.73208  0.44425  0.98675  1.0000
  H   H906      1.0  0.72630  0.43360  0.93023  1.0000
  C   C757      1.0  0.73578  0.43776  0.95086  1.0000
  C   C758      1.0  0.73080  0.25317  0.04220  1.0000
  H   H907      1.0  0.49800  0.27557  0.84662  1.0000
  C   C759      1.0  0.53353  0.46611  0.47815  1.0000
  C   C760      1.0  0.49655  0.26700  0.87131  1.0000
  H   H908      1.0  0.53012  0.46287  0.54240  1.0000
  C   C761      1.0  0.50314  0.38459  0.61379  1.0000
  C   C762      1.0  0.74421  0.44977  0.01330  1.0000
  H   H909      1.0  0.74136  0.45514  0.04080  1.0000
  S   S194      1.0  0.50310  0.45775  0.74944  1.0000
  H   H910      1.0  0.59953  0.47809  0.25684  1.0000
  H   H911      1.0  0.74074  0.27371  0.07881  1.0000
  C   C763      1.0  0.54577  0.49214  0.70163  1.0000
  H   H912      1.0  0.50331  0.38625  0.00136  1.0000
  C   C764      1.0  0.50157  0.42247  0.49387  1.0000
  Fe  Fe97      1.0  0.49840  0.44314  0.29818  1.0000
  H   H913      1.0  0.56718  0.49648  0.21448  1.0000
  H   H914      1.0  0.59266  0.48790  0.50568  1.0000
  C   C765      1.0  0.49708  0.25157  0.86372  1.0000
  C   C766      1.0  0.49687  0.37555  0.64967  1.0000
  Fe  Fe98      1.0  0.63075  0.53205  0.26881  1.0000
  S   S195      1.0  0.60413  0.51883  0.25826  1.0000
  S   S196      1.0  0.65334  0.53030  0.23028  1.0000
  Fe  Fe99      1.0  0.62066  0.54397  0.34965  1.0000
  S   S197      1.0  0.59337  0.53131  0.34567  1.0000
  S   S198      1.0  0.62708  0.55931  0.40335  1.0000
  Fe  Fe100     1.0  0.60106  0.51088  0.32316  1.0000
  Fe  Fe101     1.0  0.59893  0.54066  0.28164  1.0000
  S   S199      1.0  0.57974  0.54853  0.25383  1.0000
  S   S200      1.0  0.62791  0.52256  0.33278  1.0000
  S   S201      1.0  0.62602  0.55490  0.28662  1.0000
  Fe  Fe102     1.0  0.62268  0.53098  0.62359  1.0000
  S   S202      1.0  0.60002  0.53783  0.62039  1.0000
  S   S203      1.0  0.63886  0.53010  0.56678  1.0000
  Fe  Fe103     1.0  0.61298  0.51866  0.71262  1.0000
  S   S204      1.0  0.58923  0.52458  0.71541  1.0000
  C   C767      1.0  0.66564  0.55754  0.33572  1.0000
  C   C768      1.0  0.51869  0.54200  0.27170  1.0000
  Fe  Fe104     1.0  0.60495  0.54766  0.68126  1.0000
  S   S205      1.0  0.60170  0.57184  0.69114  1.0000
  C   C769      1.0  0.51914  0.70463  0.13906  1.0000
  S   S206      1.0  0.62920  0.54270  0.68252  1.0000
  Fe  Fe105     1.0  0.51735  0.62068  0.64767  1.0000
  H   H915      1.0  0.60181  0.52173  0.46433  1.0000
  S   S207      1.0  0.52464  0.63230  0.58476  1.0000
  Fe  Fe106     1.0  0.51979  0.62597  0.73792  1.0000
  S   S208      1.0  0.50489  0.60002  0.75365  1.0000
  S   S209      1.0  0.52797  0.63985  0.79367  1.0000
  Fe  Fe107     1.0  0.52002  0.59414  0.70176  1.0000
  S   S210      1.0  0.52722  0.57190  0.70792  1.0000
  C   C770      1.0  0.51563  0.65109  0.86191  1.0000
  S   S211      1.0  0.53655  0.61994  0.68901  1.0000
  S   S212      1.0  0.67269  0.51259  0.88205  1.0000
  Fe  Fe108     1.0  0.51543  0.62674  0.28750  1.0000
  N   N52       1.0  0.51764  0.52514  0.26352  1.0000
  Fe  Fe109     1.0  0.54115  0.61177  0.30861  1.0000
  S   S213      1.0  0.52157  0.58909  0.33471  1.0000
  S   S214      1.0  0.56721  0.61187  0.31496  1.0000
  S   S215      1.0  0.68733  0.50241  0.98518  1.0000
  Fe  Fe110     1.0  0.50941  0.60525  0.36518  1.0000
  H   H916      1.0  0.70439  0.53128  0.91217  1.0000
  S   S216      1.0  0.52886  0.61241  0.25222  1.0000
  S   S217      1.0  0.52980  0.62823  0.34212  1.0000
  C   C771      1.0  0.50431  0.64909  0.21072  1.0000
  C   C772      1.0  0.51612  0.62228  0.46868  1.0000
  C   C773      1.0  0.52173  0.63018  0.50377  1.0000
  C   C774      1.0  0.51726  0.62189  0.54146  1.0000
  C   C775      1.0  0.50583  0.60603  0.47110  1.0000
  H   H917      1.0  0.54453  0.53239  0.25736  1.0000
  H   H918      1.0  0.51944  0.62887  0.43994  1.0000
  H   H919      1.0  0.52948  0.64283  0.50175  1.0000
  H   H920      1.0  0.53546  0.53240  0.21113  1.0000
  H   H921      1.0  0.50717  0.54241  0.28930  1.0000
  C   C776      1.0  0.58099  0.57179  0.69286  1.0000
  C   C777      1.0  0.57799  0.58634  0.68742  1.0000
  C   C778      1.0  0.56153  0.58656  0.69100  1.0000
  C   C779      1.0  0.54805  0.57227  0.70102  1.0000
  C   C780      1.0  0.55109  0.55778  0.70655  1.0000
  C   C781      1.0  0.56744  0.55748  0.70185  1.0000
  H   H922      1.0  0.58844  0.59746  0.68066  1.0000
  H   H923      1.0  0.55932  0.59776  0.68639  1.0000
  H   H924      1.0  0.54077  0.54672  0.71500  1.0000
  H   H925      1.0  0.56958  0.54624  0.70645  1.0000
  C   C782      1.0  0.57652  0.56619  0.27121  1.0000
  C   C783      1.0  0.58711  0.57639  0.29672  1.0000
  C   C784      1.0  0.58436  0.59052  0.30953  1.0000
  C   C785      1.0  0.57071  0.59427  0.29793  1.0000
  C   C786      1.0  0.55999  0.58394  0.27289  1.0000
  C   C787      1.0  0.56307  0.57012  0.25905  1.0000
  H   H926      1.0  0.59761  0.57355  0.30595  1.0000
  H   H927      1.0  0.59287  0.59856  0.32831  1.0000
  H   H928      1.0  0.54958  0.58684  0.26328  1.0000
  H   H929      1.0  0.55509  0.56255  0.23850  1.0000
  C   C788      1.0  0.62918  0.55014  0.44851  1.0000
  C   C789      1.0  0.62501  0.55610  0.48515  1.0000
  C   C790      1.0  0.62737  0.54961  0.52165  1.0000
  C   C791      1.0  0.63428  0.53737  0.52169  1.0000
  C   C792      1.0  0.63833  0.53130  0.48503  1.0000
  C   C793      1.0  0.63564  0.53756  0.44850  1.0000
  H   H930      1.0  0.62015  0.56593  0.48532  1.0000
  H   H931      1.0  0.62449  0.55456  0.54968  1.0000
  H   H932      1.0  0.64381  0.52192  0.48490  1.0000
  H   H933      1.0  0.63908  0.53302  0.42040  1.0000
  H   H934      1.0  0.57673  0.60398  0.38787  1.0000
  N   N53       1.0  0.67536  0.57286  0.35334  1.0000
  C   C794      1.0  0.51391  0.64766  0.82125  1.0000
  H   H935      1.0  0.52074  0.54949  0.24341  1.0000
  C   C795      1.0  0.68107  0.55555  0.45345  1.0000
  N   N54       1.0  0.56218  0.61401  0.79473  1.0000
  H   H936      1.0  0.66841  0.58694  0.30948  1.0000
  C   C796      1.0  0.52086  0.73726  0.15108  1.0000
  H   H937      1.0  0.52429  0.64113  0.18720  1.0000
  H   H938      1.0  0.73800  0.51600  0.94572  1.0000
  H   H939      1.0  0.51768  0.69870  0.06268  1.0000
  C   C797      1.0  0.64956  0.50154  0.11496  1.0000
  H   H940      1.0  0.52729  0.54047  0.65252  1.0000
  C   C798      1.0  0.66590  0.51712  0.16601  1.0000
  C   C799      1.0  0.65175  0.51979  0.18492  1.0000
  C   C800      1.0  0.67419  0.56385  0.48098  1.0000
  C   C801      1.0  0.51594  0.51652  0.30285  1.0000
  H   H941      1.0  0.57943  0.63573  0.76310  1.0000
  H   H942      1.0  0.51363  0.70401  0.17074  1.0000
  H   H943      1.0  0.51174  0.71513  0.04684  1.0000
  H   H944      1.0  0.72443  0.54654  0.91648  1.0000
  C   C802      1.0  0.71779  0.53329  0.91544  1.0000
  C   C803      1.0  0.64523  0.52003  0.79507  1.0000
  C   C804      1.0  0.65761  0.52202  0.82167  1.0000
  S   S218      1.0  0.60847  0.50675  0.65349  1.0000
  H   H945      1.0  0.66475  0.55913  0.30301  1.0000
  H   H946      1.0  0.66212  0.58144  0.48897  1.0000
  H   H947      1.0  0.59386  0.50307  0.43996  1.0000
  N   N55       1.0  0.51067  0.71178  0.11133  1.0000
  C   C805      1.0  0.50096  0.65040  0.80329  1.0000
  H   H948      1.0  0.50570  0.65948  0.91589  1.0000
  C   C806      1.0  0.63659  0.51361  0.16811  1.0000
  C   C807      1.0  0.65671  0.50952  0.84923  1.0000
  H   H949      1.0  0.72894  0.54674  0.84201  1.0000
  H   H950      1.0  0.67116  0.54794  0.33869  1.0000
  C   C808      1.0  0.50195  0.65681  0.12937  1.0000
  H   H951      1.0  0.50375  0.51513  0.32016  1.0000
  H   H952      1.0  0.55565  0.58037  0.78948  1.0000
  H   H953      1.0  0.52610  0.52307  0.32147  1.0000
  H   H954      1.0  0.54340  0.58099  0.43340  1.0000
  H   H955      1.0  0.53281  0.71145  0.13710  1.0000
  H   H956      1.0  0.52720  0.73203  0.17059  1.0000
  C   C809      1.0  0.51810  0.51447  0.65242  1.0000
  H   H957      1.0  0.64609  0.52979  0.77419  1.0000
  S   S219      1.0  0.50265  0.66345  0.07860  1.0000
  H   H958      1.0  0.67328  0.56104  0.51294  1.0000
  H   H959      1.0  0.52255  0.64824  0.11620  1.0000
  H   H960      1.0  0.56878  0.51285  0.54817  1.0000
  C   C810      1.0  0.50731  0.60552  0.54362  1.0000
  H   H961      1.0  0.60234  0.50775  0.52403  1.0000
  C   C811      1.0  0.53362  0.52590  0.24082  1.0000
  C   C812      1.0  0.69283  0.57824  0.33429  1.0000
  C   C813      1.0  0.54456  0.60362  0.79187  1.0000
  H   H962      1.0  0.68569  0.54643  0.46428  1.0000
  H   H963      1.0  0.72780  0.52814  0.81747  1.0000
  H   H964      1.0  0.69351  0.58085  0.30141  1.0000
  H   H965      1.0  0.61598  0.61156  0.79031  1.0000
  H   H966      1.0  0.53974  0.59446  0.81719  1.0000
  H   H967      1.0  0.67574  0.50585  0.11731  1.0000
  C   C814      1.0  0.74322  0.52933  0.88782  1.0000
  S   S220      1.0  0.61561  0.50223  0.76339  1.0000
  H   H968      1.0  0.69875  0.56894  0.33756  1.0000
  H   H969      1.0  0.60594  0.58191  0.78432  1.0000
  C   C815      1.0  0.50057  0.49991  0.23145  1.0000
  H   H970      1.0  0.57582  0.56671  0.78526  1.0000
  H   H971      1.0  0.53612  0.61083  0.79306  1.0000
  H   H972      1.0  0.57188  0.50426  0.30450  1.0000
  Fe  Fe111     1.0  0.50833  0.59100  0.28173  1.0000
  H   H973      1.0  0.71806  0.52781  0.94526  1.0000
  C   C816      1.0  0.57389  0.60490  0.79326  1.0000
  H   H974      1.0  0.55801  0.63277  0.75987  1.0000
  H   H975      1.0  0.54312  0.59731  0.76304  1.0000
  H   H976      1.0  0.65466  0.58161  0.35455  1.0000
  H   H977      1.0  0.52565  0.64908  0.87608  1.0000
  H   H978      1.0  0.67498  0.59723  0.35415  1.0000
  C   C817      1.0  0.66791  0.57537  0.46739  1.0000
  C   C818      1.0  0.59708  0.58825  0.78798  1.0000
  H   H979      1.0  0.59628  0.62616  0.79598  1.0000
  H   H980      1.0  0.68682  0.55172  0.39209  1.0000
  H   H981      1.0  0.55948  0.61367  0.85926  1.0000
  N   N56       1.0  0.72545  0.52630  0.88221  1.0000
  C   C819      1.0  0.63548  0.50443  0.13356  1.0000
  C   C820      1.0  0.51387  0.65012  0.13958  1.0000
  S   S221      1.0  0.50229  0.62930  0.69542  1.0000
  H   H982      1.0  0.52933  0.54827  0.28929  1.0000
  C   C821      1.0  0.59011  0.51203  0.45810  1.0000
  C   C822      1.0  0.50086  0.53055  0.66975  1.0000
  C   C823      1.0  0.60269  0.60496  0.79097  1.0000
  C   C824      1.0  0.50352  0.51631  0.24054  1.0000
  H   H983      1.0  0.72262  0.50264  0.86066  1.0000
  H   H984      1.0  0.66793  0.53335  0.82093  1.0000
  N   N57       1.0  0.57970  0.50445  0.49586  1.0000
  H   H985      1.0  0.55531  0.50257  0.71158  1.0000
  H   H986      1.0  0.65270  0.55283  0.35090  1.0000
  S   S222      1.0  0.50682  0.64642  0.26224  1.0000
  C   C825      1.0  0.66807  0.58524  0.34261  1.0000
  H   H987      1.0  0.70936  0.53078  0.84100  1.0000
  C   C826      1.0  0.67511  0.57018  0.39723  1.0000
  C   C827      1.0  0.58005  0.57968  0.78850  1.0000
  C   C828      1.0  0.57562  0.51731  0.51811  1.0000
  C   C829      1.0  0.56708  0.62625  0.76091  1.0000
  C   C830      1.0  0.59130  0.61320  0.79389  1.0000
  H   H988      1.0  0.55375  0.62912  0.83541  1.0000
  C   C831      1.0  0.66830  0.57854  0.42621  1.0000
  C   C832      1.0  0.51824  0.71120  0.06993  1.0000
  C   C833      1.0  0.72292  0.53336  0.84390  1.0000
  H   H989      1.0  0.56772  0.62051  0.73161  1.0000
  C   C834      1.0  0.50436  0.65701  0.88455  1.0000
  C   C835      1.0  0.68158  0.55865  0.41220  1.0000
  C   C836      1.0  0.56856  0.58779  0.79087  1.0000
  H   H990      1.0  0.70069  0.58942  0.34787  1.0000
  C   C837      1.0  0.51645  0.52953  0.65760  1.0000
  H   H991      1.0  0.51662  0.50420  0.29965  1.0000
  H   H992      1.0  0.57526  0.63148  0.83610  1.0000
  C   C838      1.0  0.63178  0.50546  0.79568  1.0000
  H   H993      1.0  0.62573  0.51591  0.18170  1.0000
  C   C839      1.0  0.56273  0.62242  0.83303  1.0000
  S   S223      1.0  0.49754  0.59588  0.42834  1.0000
  N   N58       1.0  0.56190  0.60392  0.44367  1.0000
  C   C840      1.0  0.54616  0.59413  0.42749  1.0000
  C   C841      1.0  0.56443  0.62129  0.43632  1.0000
  C   C842      1.0  0.57588  0.60057  0.42027  1.0000
  C   C843      1.0  0.56072  0.60015  0.48733  1.0000
  C   C844      1.0  0.54862  0.60356  0.51405  1.0000
  C   C845      1.0  0.57120  0.59291  0.50459  1.0000
  C   C846      1.0  0.54728  0.60030  0.55542  1.0000
  C   C847      1.0  0.56967  0.58957  0.54607  1.0000
  C   C848      1.0  0.55776  0.59329  0.57142  1.0000
  H   H994      1.0  0.53519  0.59707  0.44077  1.0000
  H   H995      1.0  0.54688  0.59628  0.39439  1.0000
  H   H996      1.0  0.55354  0.62453  0.44873  1.0000
  H   H997      1.0  0.56617  0.62462  0.40352  1.0000
  H   H998      1.0  0.57562  0.62916  0.44992  1.0000
  Fe  Fe112     1.0  0.58628  0.51449  0.65427  1.0000
  H   H999      1.0  0.58815  0.60767  0.43067  1.0000
  H   H1000     1.0  0.57420  0.58748  0.42164  1.0000
  H   H1001     1.0  0.54012  0.60883  0.50302  1.0000
  H   H1002     1.0  0.58071  0.58972  0.48682  1.0000
  H   H1003     1.0  0.53808  0.60332  0.57522  1.0000
  H   H1004     1.0  0.57782  0.58413  0.55877  1.0000
  H   H1005     1.0  0.55665  0.59074  0.60353  1.0000
  H   H1006     1.0  0.53161  0.71913  0.06589  1.0000
  H   H1007     1.0  0.66261  0.58715  0.41798  1.0000
  C   C849      1.0  0.66484  0.50808  0.13112  1.0000
  H   H1008     1.0  0.67772  0.52192  0.17861  1.0000
  H   H1009     1.0  0.51784  0.69196  0.13163  1.0000
  H   H1010     1.0  0.58713  0.52755  0.52355  1.0000
  C   C850      1.0  0.71634  0.50864  0.88265  1.0000
  H   H1011     1.0  0.50382  0.59894  0.57224  1.0000
  H   H1012     1.0  0.53033  0.51370  0.64363  1.0000
  H   H1013     1.0  0.58354  0.51791  0.43934  1.0000
  C   C851      1.0  0.51199  0.72861  0.11975  1.0000
  C   C852      1.0  0.50159  0.59765  0.50863  1.0000
  S   S224      1.0  0.50187  0.59448  0.65775  1.0000
  C   C853      1.0  0.50414  0.73684  0.09625  1.0000
  C   C854      1.0  0.51488  0.64604  0.17987  1.0000
  H   H1014     1.0  0.70325  0.50578  0.87528  1.0000
  H   H1015     1.0  0.53432  0.51374  0.23529  1.0000
  H   H1016     1.0  0.56767  0.52223  0.50129  1.0000
  H   H1017     1.0  0.49978  0.54234  0.67449  1.0000
  H   H1018     1.0  0.71544  0.50271  0.91253  1.0000
  H   H1019     1.0  0.49960  0.64802  0.77194  1.0000
  H   H1020     1.0  0.54360  0.49790  0.28417  1.0000
  H   H1021     1.0  0.59432  0.49896  0.17723  1.0000
  C   C855      1.0  0.50409  0.50038  0.65893  1.0000
  H   H1022     1.0  0.49712  0.73105  0.07196  1.0000
  H   H1023     1.0  0.62365  0.49955  0.12109  1.0000
  C   C856      1.0  0.59008  0.49824  0.52010  1.0000
  S   S225      1.0  0.56390  0.49812  0.62749  1.0000
  Fe  Fe113     1.0  0.51355  0.92038  0.30975  1.0000
  S   S226      1.0  0.51242  0.94520  0.30022  1.0000
  C   C857      1.0  0.51451  0.88383  0.90531  1.0000
  Fe  Fe114     1.0  0.52985  0.92987  0.38918  1.0000
  S   S227      1.0  0.53008  0.95540  0.38527  1.0000
  S   S228      1.0  0.53438  0.91653  0.44269  1.0000
  H   H1024     1.0  0.50382  0.85714  0.34537  1.0000
  Fe  Fe115     1.0  0.53836  0.95476  0.31979  1.0000
  S   S229      1.0  0.55501  0.97720  0.28319  1.0000
  H   H1025     1.0  0.50048  0.76846  0.98325  1.0000
  S   S230      1.0  0.54033  0.92980  0.32456  1.0000
  Fe  Fe116     1.0  0.53034  0.93032  0.76307  1.0000
  S   S231      1.0  0.51236  0.94325  0.77880  1.0000
  S   S232      1.0  0.53743  0.91820  0.81565  1.0000
  Fe  Fe117     1.0  0.53522  0.94194  0.67393  1.0000
  S   S233      1.0  0.51730  0.95536  0.68455  1.0000
  S   S234      1.0  0.54989  0.94702  0.61221  1.0000
  Fe  Fe118     1.0  0.52997  0.96401  0.73974  1.0000
  N   N59       1.0  0.50932  0.81733  0.90097  1.0000
  S   S235      1.0  0.54898  0.95199  0.72759  1.0000
  C   C858      1.0  0.53713  0.92516  0.49032  1.0000
  C   C859      1.0  0.54190  0.94187  0.49455  1.0000
  C   C860      1.0  0.54505  0.94838  0.53249  1.0000
  C   C861      1.0  0.54298  0.93827  0.56674  1.0000
  C   C862      1.0  0.53767  0.92154  0.56269  1.0000
  C   C863      1.0  0.53486  0.91503  0.52461  1.0000
  H   H1026     1.0  0.54390  0.94982  0.46835  1.0000
  H   H1027     1.0  0.54956  0.96136  0.53514  1.0000
  H   H1028     1.0  0.53650  0.91365  0.58859  1.0000
  H   H1029     1.0  0.53125  0.90211  0.52163  1.0000
  C   C864      1.0  0.51750  0.89161  0.16369  1.0000
  H   H1030     1.0  0.55096  0.99375  0.84461  1.0000
  H   H1031     1.0  0.53214  0.89597  0.37534  1.0000
  C   C865      1.0  0.51544  0.89841  0.20099  1.0000
  C   C866      1.0  0.49915  0.87516  0.89146  1.0000
  H   H1032     1.0  0.56449  0.98318  0.36443  1.0000
  C   C867      1.0  0.50685  0.89335  0.83144  1.0000
  C   C868      1.0  0.55026  0.89279  0.23096  1.0000
  S   S236      1.0  0.51851  0.91905  0.70806  1.0000
  H   H1033     1.0  0.51951  0.80948  0.82350  1.0000
  C   C869      1.0  0.50503  0.75267  0.10371  1.0000
  H   H1034     1.0  0.52853  0.75954  0.18225  1.0000
  C   C870      1.0  0.52078  0.82326  0.93252  1.0000
  H   H1035     1.0  0.54496  0.96984  0.80917  1.0000
  H   H1036     1.0  0.53010  0.82757  0.76453  1.0000
  H   H1037     1.0  0.53206  0.99149  0.35438  1.0000
  H   H1038     1.0  0.57852  0.91640  0.28934  1.0000
  C   C871      1.0  0.52232  0.90188  0.84491  1.0000
  H   H1039     1.0  0.50380  0.89684  0.80292  1.0000
  H   H1040     1.0  0.53879  0.96722  0.86269  1.0000
  H   H1041     1.0  0.54025  0.95065  0.83470  1.0000
  H   H1042     1.0  0.56557  0.94928  0.80595  1.0000
  S   S237      1.0  0.50940  0.86869  0.10638  1.0000
  H   H1043     1.0  0.50156  0.98538  0.36195  1.0000
  C   C872      1.0  0.52841  0.84852  0.79421  1.0000
  H   H1044     1.0  0.50492  0.92622  0.47843  1.0000
  C   C873      1.0  0.55539  0.89778  0.31161  1.0000
  H   H1045     1.0  0.52484  0.90943  0.20895  1.0000
  H   H1046     1.0  0.54820  0.89098  0.19958  1.0000
  C   C874      1.0  0.51299  0.86405  0.32020  1.0000
  C   C875      1.0  0.53570  0.86746  0.36025  1.0000
  Fe  Fe119     1.0  0.50452  0.94428  0.36586  1.0000
  C   C876      1.0  0.56732  0.90706  0.28144  1.0000
  S   S238      1.0  0.53375  0.98972  0.75719  1.0000
  H   H1047     1.0  0.56785  0.98953  0.73989  1.0000
  C   C877      1.0  0.56607  0.99499  0.30695  1.0000
  H   H1048     1.0  0.56318  0.98074  0.61724  1.0000
  H   H1049     1.0  0.55860  0.96418  0.90879  1.0000
  H   H1050     1.0  0.52212  0.83582  0.94046  1.0000
  H   H1051     1.0  0.51644  0.89425  0.34215  1.0000
  C   C878      1.0  0.53817  0.88352  0.26088  1.0000
  S   S239      1.0  0.50342  0.91889  0.37484  1.0000
  H   H1052     1.0  0.53495  0.99652  0.25915  1.0000
  C   C879      1.0  0.54627  0.96391  0.83755  1.0000
  H   H1053     1.0  0.51759  0.88024  0.93368  1.0000
  H   H1054     1.0  0.53350  0.82314  0.92262  1.0000
  C   C880      1.0  0.50553  0.87720  0.15276  1.0000
  C   C881      1.0  0.52609  0.89702  0.88194  1.0000
  H   H1055     1.0  0.55787  0.90034  0.34239  1.0000
  C   C882      1.0  0.54039  0.88574  0.30230  1.0000
  S   S240      1.0  0.49872  0.89801  0.27692  1.0000
  H   H1056     1.0  0.55817  0.94651  0.88165  1.0000
  N   N60       1.0  0.56411  0.96833  0.84486  1.0000
  C   C883      1.0  0.57257  0.96220  0.81132  1.0000
  C   C884      1.0  0.56471  0.95983  0.88276  1.0000
  H   H1057     1.0  0.52853  0.89751  0.14318  1.0000
  H   H1058     1.0  0.51477  0.84978  0.89162  1.0000
  H   H1059     1.0  0.53803  0.90347  0.89260  1.0000
  C   C885      1.0  0.57269  0.98596  0.84774  1.0000
  C   C886      1.0  0.59016  0.99229  0.85085  1.0000
  C   C887      1.0  0.56475  0.90457  0.24119  1.0000
  H   H1060     1.0  0.57377  0.96934  0.78290  1.0000
  C   C888      1.0  0.56868  0.99379  0.61653  1.0000
  H   H1061     1.0  0.50500  0.91389  0.61335  1.0000
  H   H1062     1.0  0.54116  0.85972  0.34177  1.0000
  H   H1063     1.0  0.57774  0.96167  0.88909  1.0000
  H   H1064     1.0  0.55371  0.99606  0.66961  1.0000
  H   H1065     1.0  0.52707  0.87493  0.25060  1.0000
  N   N61       1.0  0.52791  0.87619  0.33494  1.0000
  H   H1066     1.0  0.58529  0.96270  0.81703  1.0000
  H   H1067     1.0  0.53306  0.85646  0.76758  1.0000
  H   H1068     1.0  0.50273  0.98459  0.71507  1.0000
  C   C889      1.0  0.52196  0.88718  0.36042  1.0000
  H   H1069     1.0  0.54586  0.87585  0.37612  1.0000
  H   H1070     1.0  0.50741  0.94534  0.50128  1.0000
  H   H1071     1.0  0.52647  0.85959  0.38410  1.0000
  C   C890      1.0  0.50734  0.80008  0.89545  1.0000
  H   H1072     1.0  0.51647  0.85509  0.30151  1.0000
  C   C891      1.0  0.51598  0.82779  0.86403  1.0000
  C   C892      1.0  0.52408  0.85462  0.83012  1.0000
  C   C893      1.0  0.52058  0.82195  0.82691  1.0000
  H   H1073     1.0  0.51223  0.88052  0.38486  1.0000
  C   C894      1.0  0.49920  0.93573  0.48363  1.0000
  H   H1074     1.0  0.50617  0.86994  0.30215  1.0000
  H   H1075     1.0  0.57394  0.91189  0.21785  1.0000
  C   C895      1.0  0.50145  0.89073  0.22820  1.0000
  C   C896      1.0  0.52670  0.83224  0.79261  1.0000
  H   H1076     1.0  0.51618  0.81570  0.96093  1.0000
  H   H1077     1.0  0.49843  0.79468  0.87295  1.0000
  H   H1078     1.0  0.51952  0.79858  0.88620  1.0000
  C   C897      1.0  0.52172  0.75315  0.15819  1.0000
  H   H1079     1.0  0.50901  0.97391  0.26460  1.0000
  H   H1080     1.0  0.52532  0.86728  0.83130  1.0000
  H   H1081     1.0  0.59741  0.98443  0.85207  1.0000
  H   H1082     1.0  0.50221  0.79266  0.92400  1.0000
  H   H1083     1.0  0.49953  0.94151  0.45373  1.0000
  Fe  Fe120     1.0  0.50161  0.93336  0.72225  1.0000
  C   C898      1.0  0.51382  0.76082  0.13459  1.0000
  H   H1084     1.0  0.51446  0.77310  0.14022  1.0000
  C   C899      1.0  0.51801  0.84446  0.86455  1.0000
  H   H1085     1.0  0.50777  0.92734  0.54850  1.0000
  S   S241      1.0  0.50200  0.84071  0.01308  1.0000
  C   C900      1.0  0.50807  0.98578  0.26557  1.0000
  H   H1086     1.0  0.58517  0.99500  0.56343  1.0000
  C   C901      1.0  0.56898  0.99455  0.34725  1.0000
  H   H1087     1.0  0.49880  0.75863  0.08549  1.0000
  Fe  Fe121     1.0  0.80113  0.35582  0.00823  1.0000
  S   S242      1.0  0.80204  0.33733  0.05338  1.0000
  S   S243      1.0  0.79284  0.37632  0.03030  1.0000
  Fe  Fe122     1.0  0.81601  0.34119  0.93912  1.0000
  S   S244      1.0  0.81812  0.32135  0.97940  1.0000
  S   S245      1.0  0.82188  0.34612  0.87102  1.0000
  Fe  Fe123     1.0  0.79207  0.31863  0.00736  1.0000
  S   S246      1.0  0.77061  0.29592  0.03551  1.0000
  Fe  Fe124     1.0  0.82757  0.34120  0.02300  1.0000
  S   S247      1.0  0.85124  0.34575  0.05425  1.0000
  S   S248      1.0  0.78933  0.33725  0.96436  1.0000
  S   S249      1.0  0.82731  0.36094  0.98060  1.0000
  C   C902      1.0  0.97777  0.48769  0.29431  1.0000
  S   S250      1.0  0.82919  0.48400  0.93318  1.0000
  H   H1088     1.0  0.96811  0.42670  0.38692  1.0000
  H   H1089     1.0  0.79493  0.46334  0.98637  1.0000
  H   H1090     1.0  0.77582  0.41878  0.98432  1.0000
  H   H1091     1.0  0.92216  0.40939  0.48403  1.0000
  H   H1092     1.0  0.88228  0.46688  0.09972  1.0000
  Fe  Fe125     1.0  0.83964  0.46835  0.96742  1.0000
  S   S251      1.0  0.83753  0.44356  0.94603  1.0000
  H   H1093     1.0  0.82441  0.32906  0.78628  1.0000
  S   S252      1.0  0.83172  0.47550  0.02782  1.0000
  C   C903      1.0  0.92778  0.40073  0.47037  1.0000
  H   H1094     1.0  0.81711  0.29949  0.78353  1.0000
  Fe  Fe126     1.0  0.88527  0.38251  0.26178  1.0000
  S   S253      1.0  0.87855  0.40373  0.28424  1.0000
  S   S254      1.0  0.86380  0.36311  0.23556  1.0000
  Fe  Fe127     1.0  0.92066  0.39659  0.28841  1.0000
  S   S255      1.0  0.91637  0.41871  0.31036  1.0000
  S   S256      1.0  0.94578  0.39657  0.30453  1.0000
  Fe  Fe128     1.0  0.89167  0.40199  0.33837  1.0000
  S   S257      1.0  0.88486  0.40930  0.40054  1.0000
  Fe  Fe129     1.0  0.90377  0.41832  0.25469  1.0000
  S   S258      1.0  0.90788  0.44120  0.21879  1.0000
  S   S259      1.0  0.89635  0.37950  0.31927  1.0000
  S   S260      1.0  0.91016  0.39749  0.22924  1.0000
  Fe  Fe130     1.0  0.92748  0.40909  0.64252  1.0000
  S   S261      1.0  0.91023  0.41305  0.60044  1.0000
  S   S262      1.0  0.95464  0.42087  0.61772  1.0000
  Fe  Fe131     1.0  0.89797  0.38907  0.70336  1.0000
  S   S263      1.0  0.87870  0.39192  0.66555  1.0000
  S   S264      1.0  0.89205  0.37493  0.76371  1.0000
  Fe  Fe132     1.0  0.89471  0.38718  0.61328  1.0000
  S   S265      1.0  0.88516  0.37102  0.56224  1.0000
  Fe  Fe133     1.0  0.89620  0.41761  0.65609  1.0000
  S   S266      1.0  0.88887  0.43965  0.65816  1.0000
  S   S267      1.0  0.91299  0.38247  0.65146  1.0000
  S   S268      1.0  0.91436  0.41536  0.69776  1.0000
  C   C904      1.0  0.88444  0.39807  0.44484  1.0000
  C   C905      1.0  0.88422  0.40542  0.48177  1.0000
  C   C906      1.0  0.88442  0.39719  0.51772  1.0000
  C   C907      1.0  0.88448  0.38136  0.51725  1.0000
  C   C908      1.0  0.88415  0.37376  0.48044  1.0000
  C   C909      1.0  0.88435  0.38216  0.44422  1.0000
  H   H1095     1.0  0.88380  0.41754  0.48262  1.0000
  H   H1096     1.0  0.88413  0.40301  0.54592  1.0000
  H   H1097     1.0  0.88404  0.36146  0.47982  1.0000
  H   H1098     1.0  0.88430  0.37631  0.41594  1.0000
  C   C910      1.0  0.92607  0.48171  0.30478  1.0000
  C   C911      1.0  0.91567  0.46637  0.31953  1.0000
  C   C912      1.0  0.90974  0.45401  0.29295  1.0000
  C   C913      1.0  0.91428  0.45694  0.25163  1.0000
  C   C914      1.0  0.92445  0.47235  0.23678  1.0000
  C   C915      1.0  0.93042  0.48470  0.26341  1.0000
  H   H1099     1.0  0.91201  0.46404  0.35142  1.0000
  H   H1100     1.0  0.90137  0.44228  0.30448  1.0000
  H   H1101     1.0  0.92810  0.47460  0.20486  1.0000
  H   H1102     1.0  0.89421  0.46384  0.72226  1.0000
  C   C916      1.0  0.93473  0.48264  0.61221  1.0000
  C   C917      1.0  0.93577  0.46722  0.61470  1.0000
  C   C918      1.0  0.92169  0.45405  0.62895  1.0000
  C   C919      1.0  0.90635  0.45611  0.63916  1.0000
  C   C920      1.0  0.90518  0.47147  0.63544  1.0000
  C   C921      1.0  0.91945  0.48481  0.62265  1.0000
  H   H1103     1.0  0.94760  0.46550  0.60704  1.0000
  H   H1104     1.0  0.92297  0.44245  0.63319  1.0000
  H   H1105     1.0  0.89331  0.47310  0.64309  1.0000
  H   H1106     1.0  0.95414  0.39968  0.38918  1.0000
  H   H1107     1.0  0.95055  0.42232  0.24519  1.0000
  H   H1108     1.0  0.82748  0.28767  0.72449  1.0000
  C   C922      1.0  0.84806  0.34983  0.64640  1.0000
  C   C923      1.0  0.80417  0.39521  0.00627  1.0000
  C   C924      1.0  0.81222  0.39607  0.96769  1.0000
  C   C925      1.0  0.82187  0.41112  0.94930  1.0000
  C   C926      1.0  0.82385  0.42536  0.96952  1.0000
  C   C927      1.0  0.81539  0.42463  0.00770  1.0000
  C   C928      1.0  0.80546  0.40953  0.02596  1.0000
  H   H1109     1.0  0.81081  0.38510  0.95190  1.0000
  H   H1110     1.0  0.82783  0.41177  0.91915  1.0000
  H   H1111     1.0  0.81684  0.43558  0.02359  1.0000
  H   H1112     1.0  0.79918  0.40887  0.05584  1.0000
  C   C929      1.0  0.85446  0.35269  0.10358  1.0000
  C   C930      1.0  0.87088  0.35929  0.11426  1.0000
  C   C931      1.0  0.87396  0.36359  0.15403  1.0000
  C   C932      1.0  0.86062  0.36097  0.18384  1.0000
  C   C933      1.0  0.84420  0.35477  0.17289  1.0000
  C   C934      1.0  0.84112  0.35087  0.13290  1.0000
  H   H1113     1.0  0.88130  0.36073  0.09188  1.0000
  H   H1114     1.0  0.88665  0.36817  0.16206  1.0000
  H   H1115     1.0  0.83379  0.35256  0.19575  1.0000
  H   H1116     1.0  0.82844  0.34585  0.12518  1.0000
  C   C935      1.0  0.84170  0.35462  0.84264  1.0000
  C   C936      1.0  0.85619  0.35295  0.85511  1.0000
  C   C937      1.0  0.87147  0.35917  0.83049  1.0000
  C   C938      1.0  0.87253  0.36745  0.79364  1.0000
  C   C939      1.0  0.85818  0.36968  0.78194  1.0000
  C   C940      1.0  0.84282  0.36312  0.80609  1.0000
  H   H1117     1.0  0.85556  0.34651  0.88322  1.0000
  H   H1118     1.0  0.88252  0.35747  0.83998  1.0000
  H   H1119     1.0  0.85885  0.37626  0.75404  1.0000
  H   H1120     1.0  0.83171  0.36463  0.79637  1.0000
  H   H1121     1.0  0.88134  0.46664  0.22529  1.0000
  H   H1122     1.0  0.80122  0.45067  0.90688  1.0000
  H   H1123     1.0  0.77188  0.41828  0.93255  1.0000
  C   C941      1.0  0.77264  0.48682  0.96043  1.0000
  H   H1124     1.0  0.97137  0.46248  0.37766  1.0000
  C   C942      1.0  0.81521  0.30299  0.08012  1.0000
  C   C943      1.0  0.94581  0.39544  0.41755  1.0000
  H   H1125     1.0  0.95260  0.39070  0.43846  1.0000
  H   H1126     1.0  0.91726  0.39044  0.46091  1.0000
  C   C944      1.0  0.95537  0.46168  0.28852  1.0000
  N   N62       1.0  0.94040  0.40834  0.43591  1.0000
  H   H1127     1.0  0.94712  0.42160  0.51198  1.0000
  H   H1128     1.0  0.88491  0.47081  0.76479  1.0000
  C   C945      1.0  0.95776  0.48886  0.72540  1.0000
  H   H1129     1.0  0.93351  0.48574  0.41820  1.0000
  C   C946      1.0  0.79375  0.45041  0.98382  1.0000
  C   C947      1.0  0.78813  0.45019  0.91521  1.0000
  C   C948      1.0  0.99086  0.43283  0.29978  1.0000
  H   H1130     1.0  0.98408  0.49071  0.59663  1.0000
  C   C949      1.0  0.87508  0.47625  0.28216  1.0000
  H   H1131     1.0  0.93499  0.38510  0.40911  1.0000
  H   H1132     1.0  0.94154  0.44968  0.70136  1.0000
  H   H1133     1.0  0.87293  0.43867  0.25027  1.0000
  C   C950      1.0  0.94298  0.49159  0.73833  1.0000
  C   C951      1.0  0.97735  0.41840  0.31014  1.0000
  N   N63       1.0  0.86534  0.44496  0.07789  1.0000
  C   C952      1.0  0.85050  0.44938  0.09113  1.0000
  C   C953      1.0  0.86060  0.42713  0.08068  1.0000
  C   C954      1.0  0.86714  0.41893  0.10797  1.0000
  C   C955      1.0  0.84843  0.41733  0.05691  1.0000
  C   C956      1.0  0.86152  0.40202  0.11138  1.0000
  C   C957      1.0  0.84277  0.40048  0.06087  1.0000
  C   C958      1.0  0.84927  0.39285  0.08811  1.0000
  H   H1134     1.0  0.87567  0.46460  0.03322  1.0000
  H   H1135     1.0  0.84031  0.44464  0.07135  1.0000
  H   H1136     1.0  0.84531  0.44455  0.12222  1.0000
  H   H1137     1.0  0.87647  0.42524  0.12740  1.0000
  H   H1138     1.0  0.84292  0.42268  0.03568  1.0000
  H   H1139     1.0  0.86650  0.39594  0.13263  1.0000
  H   H1140     1.0  0.83307  0.39324  0.04323  1.0000
  H   H1141     1.0  0.84472  0.37979  0.09129  1.0000
  H   H1142     1.0  0.87835  0.34119  0.69086  1.0000
  C   C959      1.0  0.89621  0.46801  0.75332  1.0000
  C   C960      1.0  0.86592  0.44360  0.31063  1.0000
  H   H1143     1.0  0.97828  0.41017  0.33314  1.0000
  H   H1144     1.0  0.75392  0.43170  0.91312  1.0000
  H   H1145     1.0  0.82834  0.31311  0.24966  1.0000
  H   H1146     1.0  0.75341  0.48024  0.91965  1.0000
  N   N64       1.0  0.86591  0.40195  0.89892  1.0000
  C   C961      1.0  0.86714  0.41808  0.91405  1.0000
  C   C962      1.0  0.87457  0.40455  0.85754  1.0000
  C   C963      1.0  0.84810  0.39235  0.89637  1.0000
  C   C964      1.0  0.87276  0.39321  0.92664  1.0000
  C   C965      1.0  0.86697  0.39123  0.96816  1.0000
  C   C966      1.0  0.88425  0.38544  0.91317  1.0000
  C   C967      1.0  0.87235  0.38211  0.99449  1.0000
  C   C968      1.0  0.88949  0.37628  0.93981  1.0000
  C   C969      1.0  0.88350  0.37457  0.98033  1.0000
  H   H1147     1.0  0.88024  0.42524  0.91917  1.0000
  H   H1148     1.0  0.85912  0.41732  0.94258  1.0000
  H   H1149     1.0  0.88823  0.41115  0.85749  1.0000
  H   H1150     1.0  0.87272  0.39292  0.84265  1.0000
  H   H1151     1.0  0.84238  0.39784  0.87439  1.0000
  H   H1152     1.0  0.84658  0.37991  0.88713  1.0000
  H   H1153     1.0  0.84055  0.39093  0.92581  1.0000
  H   H1154     1.0  0.85771  0.39617  0.98038  1.0000
  H   H1155     1.0  0.88912  0.38592  0.88207  1.0000
  H   H1156     1.0  0.86745  0.38038  0.02588  1.0000
  H   H1157     1.0  0.89800  0.37020  0.92880  1.0000
  H   H1158     1.0  0.88721  0.36712  0.00079  1.0000
  S   S269      1.0  0.79686  0.49437  0.01573  1.0000
  Fe  Fe134     1.0  0.82271  0.49266  0.99328  1.0000
  C   C970      1.0  0.92736  0.47825  0.44472  1.0000
  H   H1159     1.0  0.98915  0.48923  0.35051  1.0000
  H   H1160     1.0  0.82371  0.29626  0.07072  1.0000
  C   C971      1.0  0.96543  0.47696  0.27237  1.0000
  C   C972      1.0  0.96859  0.42976  0.41807  1.0000
  N   N65       1.0  0.88056  0.49327  0.26671  1.0000
  H   H1161     1.0  0.86975  0.35666  0.70207  1.0000
  H   H1162     1.0  0.86961  0.41166  0.83777  1.0000
  H   H1163     1.0  0.86286  0.42522  0.89265  1.0000
  H   H1164     1.0  0.96868  0.47165  0.70229  1.0000
  C   C973      1.0  0.75171  0.43693  0.94118  1.0000
  C   C974      1.0  0.87123  0.45112  0.03573  1.0000
  H   H1165     1.0  0.86121  0.44701  0.01525  1.0000
  H   H1166     1.0  0.80987  0.27603  0.12567  1.0000
  C   C975      1.0  0.82478  0.30727  0.75864  1.0000
  C   C976      1.0  0.92713  0.47918  0.73879  1.0000
  H   H1167     1.0  0.95356  0.42333  0.70413  1.0000
  C   C977      1.0  0.92702  0.46391  0.72513  1.0000
  C   C978      1.0  0.83155  0.31271  0.21768  1.0000
  H   H1168     1.0  0.79285  0.42409  0.94523  1.0000
  H   H1169     1.0  0.84610  0.35824  0.66926  1.0000
  C   C979      1.0  0.95744  0.45652  0.32640  1.0000
  C   C980      1.0  0.75627  0.27671  0.02276  1.0000
  C   C981      1.0  0.86098  0.33052  0.62667  1.0000
  C   C982      1.0  0.97969  0.48194  0.33266  1.0000
  H   H1170     1.0  0.94602  0.45367  0.27127  1.0000
  H   H1171     1.0  0.85784  0.32484  0.22148  1.0000
  C   C983      1.0  0.87151  0.44782  0.27034  1.0000
  H   H1172     1.0  0.85359  0.46273  0.09074  1.0000
  H   H1173     1.0  0.87489  0.45031  0.13565  1.0000
  C   C984      1.0  0.92388  0.48514  0.48119  1.0000
  C   C985      1.0  0.95722  0.47375  0.71237  1.0000
  C   C986      1.0  0.98302  0.44179  0.42842  1.0000
  H   H1174     1.0  0.90629  0.44948  0.53752  1.0000
  C   C987      1.0  0.78042  0.42512  0.95433  1.0000
  C   C988      1.0  0.87882  0.45350  0.10314  1.0000
  H   H1175     1.0  0.89041  0.45074  0.09463  1.0000
  H   H1176     1.0  0.88175  0.44724  0.02370  1.0000
  C   C989      1.0  0.94190  0.46133  0.71220  1.0000
  C   C990      1.0  0.96962  0.46660  0.34843  1.0000
  H   H1177     1.0  0.86543  0.32432  0.14869  1.0000
  C   C991      1.0  0.75623  0.48383  0.94970  1.0000
  C   C992      1.0  0.91625  0.47424  0.51469  1.0000
  C   C993      1.0  0.97114  0.43900  0.49743  1.0000
  C   C994      1.0  0.84822  0.31919  0.20195  1.0000
  H   H1178     1.0  0.88088  0.35703  0.65400  1.0000
  C   C995      1.0  0.79672  0.30826  0.13191  1.0000
  H   H1179     1.0  0.80286  0.32163  0.13057  1.0000
  C   C996      1.0  0.85247  0.31890  0.16088  1.0000
  H   H1180     1.0  0.79062  0.27752  0.11160  1.0000
  H   H1181     1.0  0.85576  0.35772  0.62039  1.0000
  C   C997      1.0  0.87196  0.34886  0.67783  1.0000
  C   C998      1.0  0.84005  0.31255  0.13513  1.0000
  H   H1182     1.0  0.86838  0.48005  0.34537  1.0000
  N   N66       1.0  0.85631  0.33892  0.66163  1.0000
  H   H1183     1.0  0.83570  0.34282  0.63630  1.0000
  H   H1184     1.0  0.86904  0.33927  0.60253  1.0000
  C   C999      1.0  0.86483  0.45542  0.33697  1.0000
  H   H1185     1.0  0.91335  0.47827  0.54383  1.0000
  H   H1186     1.0  0.87636  0.48850  0.20433  1.0000
  C   C1000     1.0  0.91286  0.48745  0.79583  1.0000
  S   S270      1.0  0.86548  0.48661  0.96367  1.0000
  H   H1187     1.0  0.86837  0.32299  0.63516  1.0000
  C   C1001     1.0  0.81903  0.30618  0.19228  1.0000
  C   C1002     1.0  0.84519  0.32780  0.69403  1.0000
  H   H1188     1.0  0.84429  0.31331  0.10352  1.0000
  C   C1003     1.0  0.96174  0.42517  0.26049  1.0000
  C   C1004     1.0  0.82284  0.30630  0.15004  1.0000
  H   H1189     1.0  0.84976  0.32285  0.61282  1.0000
  H   H1190     1.0  0.84185  0.34689  0.73103  1.0000
  H   H1191     1.0  0.80629  0.30133  0.20595  1.0000
  H   H1192     1.0  0.84501  0.30479  0.66885  1.0000
  C   C1005     1.0  0.84076  0.31071  0.69344  1.0000
  C   C1006     1.0  0.80085  0.28254  0.13134  1.0000
  C   C1007     1.0  0.83888  0.33406  0.72831  1.0000
  H   H1193     1.0  0.79512  0.27951  0.16287  1.0000
  H   H1194     1.0  0.76881  0.27553  0.96479  1.0000
  C   C1008     1.0  0.97697  0.44153  0.71499  1.0000
  C   C1009     1.0  0.82888  0.32393  0.76010  1.0000
  C   C1010     1.0  0.83066  0.30066  0.72537  1.0000
  C   C1011     1.0  0.86930  0.47153  0.32317  1.0000
  N   N67       1.0  0.80926  0.30018  0.12358  1.0000
  C   C1012     1.0  0.87623  0.46391  0.25630  1.0000
  H   H1195     1.0  0.94975  0.44456  0.33822  1.0000
  H   H1196     1.0  0.80645  0.45033  0.97355  1.0000
  H   H1197     1.0  0.78954  0.30470  0.16187  1.0000
  H   H1198     1.0  0.98613  0.44661  0.59929  1.0000
  C   C1013     1.0  0.75828  0.26945  0.98649  1.0000
  H   H1199     1.0  0.78223  0.48572  0.93856  1.0000
  N   N68       1.0  0.78143  0.44224  0.95554  1.0000
  H   H1200     1.0  0.78081  0.44378  0.89096  1.0000
  H   H1201     1.0  0.97477  0.44712  0.22484  1.0000
  H   H1202     1.0  0.93998  0.41850  0.37709  1.0000
  H   H1203     1.0  0.78825  0.46285  0.91435  1.0000
  C   C1014     1.0  0.76024  0.44919  0.00374  1.0000
  C   C1015     1.0  0.91210  0.45754  0.51144  1.0000
  H   H1204     1.0  0.92034  0.40494  0.39835  1.0000
  C   C1016     1.0  0.96843  0.43381  0.64883  1.0000
  N   N69       1.0  0.91171  0.48230  0.75379  1.0000
  H   H1205     1.0  0.78722  0.30520  0.10983  1.0000
  H   H1206     1.0  0.92839  0.42473  0.41753  1.0000
  C   C1017     1.0  0.93200  0.41448  0.40603  1.0000
  C   C1018     1.0  0.96268  0.41461  0.29078  1.0000
  C   C1019     1.0  0.96509  0.43217  0.69058  1.0000
  H   H1207     1.0  0.91480  0.47817  0.81556  1.0000
  H   H1208     1.0  0.80468  0.29890  0.06094  1.0000
  H   H1209     1.0  0.86282  0.43120  0.32165  1.0000
  C   C1020     1.0  0.74666  0.25421  0.97825  1.0000
  C   C1021     1.0  0.98349  0.44524  0.63161  1.0000
  C   C1022     1.0  0.97548  0.43922  0.24899  1.0000
  H   H1210     1.0  0.76912  0.45423  0.02520  1.0000
  H   H1211     1.0  0.91186  0.43823  0.47237  1.0000
  C   C1023     1.0  0.95512  0.42165  0.44740  1.0000
  H   H1212     1.0  0.93315  0.39568  0.49403  1.0000
  H   H1213     1.0  0.97446  0.43992  0.74733  1.0000
  H   H1214     1.0  0.97215  0.44254  0.52836  1.0000
  H   H1215     1.0  0.92540  0.45658  0.41310  1.0000
  H   H1216     1.0  0.79037  0.44438  0.01429  1.0000
  H   H1217     1.0  0.85845  0.48895  0.23627  1.0000
  H   H1218     1.0  0.86076  0.45206  0.36847  1.0000
  C   C1024     1.0  0.95673  0.42682  0.48750  1.0000
  H   H1219     1.0  0.91562  0.45379  0.72345  1.0000
  H   H1220     1.0  0.89654  0.45776  0.77242  1.0000
  C   C1025     1.0  0.92296  0.46152  0.44161  1.0000
  C   C1026     1.0  0.91532  0.45118  0.47490  1.0000
  H   H1221     1.0  0.74847  0.24878  0.95014  1.0000
  H   H1222     1.0  0.82193  0.31608  0.07250  1.0000
  C   C1027     1.0  0.99001  0.44319  0.26879  1.0000
  H   H1223     1.0  0.96323  0.48001  0.24266  1.0000
  C   C1028     1.0  0.76455  0.44291  0.96697  1.0000
  H   H1224     1.0  0.93869  0.49635  0.25188  1.0000
  C   C1029     1.0  0.77657  0.49123  0.99938  1.0000
  H   H1225     1.0  0.76665  0.49651  0.05703  1.0000
  C   C1030     1.0  0.99223  0.45261  0.69786  1.0000
  Fe  Fe135     1.0  0.85716  0.49518  0.02261  1.0000
  H   H1226     1.0  0.90139  0.48973  0.80848  1.0000
  H   H1227     1.0  0.90266  0.49197  0.23227  1.0000
  C   C1031     1.0  0.98431  0.44638  0.46803  1.0000
  C   C1032     1.0  0.76385  0.49301  0.02688  1.0000
  H   H1228     1.0  0.90834  0.49190  0.69731  1.0000
  H   H1229     1.0  0.98841  0.41333  0.61626  1.0000
  H   H1230     1.0  0.99337  0.44750  0.40568  1.0000
  C   C1033     1.0  0.99533  0.45472  0.65605  1.0000
  S   S271      1.0  0.87472  0.49547  0.07143  1.0000
  H   H1231     1.0  0.97832  0.41287  0.55130  1.0000
  C   C1034     1.0  0.87228  0.49447  0.23030  1.0000
  C   C1035     1.0  0.99170  0.41691  0.55323  1.0000
  H   H1232     1.0  0.90032  0.49496  0.12068  1.0000
  H   H1233     1.0  0.99564  0.45555  0.47594  1.0000
  C   C1036     1.0  0.90978  0.49539  0.72880  1.0000
  C   C1037     1.0  0.74750  0.49020  0.01605  1.0000
  H   H1234     1.0  0.75016  0.30637  0.96860  1.0000
  H   H1235     1.0  0.91854  0.49668  0.62027  1.0000
  Fe  Fe136     1.0  0.97920  0.55288  0.64494  1.0000
  S   S272      1.0  0.96002  0.56377  0.66820  1.0000
  S   S273      1.0  0.95258  0.49902  0.59554  1.0000
  Fe  Fe137     1.0  0.95252  0.52173  0.62476  1.0000
  S   S274      1.0  0.93097  0.52952  0.64647  1.0000
  Fe  Fe138     1.0  0.94681  0.55305  0.61403  1.0000
  S   S275      1.0  0.93616  0.56645  0.57258  1.0000
  Fe  Fe139     1.0  0.94548  0.53932  0.69918  1.0000
  S   S276      1.0  0.93658  0.53409  0.76664  1.0000
  S   S277      1.0  0.96700  0.54437  0.58883  1.0000
  S   S278      1.0  0.96586  0.52936  0.67931  1.0000
  Fe  Fe140     1.0  0.93045  0.54257  0.24937  1.0000
  S   S279      1.0  0.94837  0.52898  0.24424  1.0000
  S   S280      1.0  0.91226  0.54326  0.20346  1.0000
  Fe  Fe141     1.0  0.94124  0.55496  0.33237  1.0000
  S   S281      1.0  0.95953  0.54208  0.33360  1.0000
  S   S282      1.0  0.93701  0.57058  0.38225  1.0000
  Fe  Fe142     1.0  0.96692  0.55067  0.26918  1.0000
  H   H1236     1.0  0.96969  0.49853  0.72555  1.0000
  Fe  Fe143     1.0  0.93962  0.52172  0.30911  1.0000
  S   S283      1.0  0.94992  0.56524  0.26887  1.0000
  S   S284      1.0  0.92043  0.53378  0.31314  1.0000
  C   C1038     1.0  0.93685  0.56640  0.51948  1.0000
  C   C1039     1.0  0.94342  0.55653  0.49551  1.0000
  C   C1040     1.0  0.94341  0.55728  0.45309  1.0000
  C   C1041     1.0  0.93699  0.56803  0.43486  1.0000
  C   C1042     1.0  0.93062  0.57781  0.45911  1.0000
  C   C1043     1.0  0.93046  0.57694  0.50088  1.0000
  H   H1237     1.0  0.94868  0.54860  0.50965  1.0000
  H   H1238     1.0  0.94869  0.54991  0.43452  1.0000
  H   H1239     1.0  0.92574  0.58620  0.44548  1.0000
  H   H1240     1.0  0.92541  0.58463  0.51895  1.0000
  C   C1044     1.0  0.94315  0.57812  0.08156  1.0000
  H   H1241     1.0  0.99041  0.58618  0.27839  1.0000
  C   C1045     1.0  0.98543  0.58019  0.50614  1.0000
  H   H1242     1.0  0.92072  0.50669  0.72785  1.0000
  H   H1243     1.0  0.97428  0.51522  0.31623  1.0000
  H   H1244     1.0  0.89849  0.51651  0.89110  1.0000
  H   H1245     1.0  0.92385  0.52262  0.45384  1.0000
  H   H1246     1.0  0.89870  0.49855  0.74027  1.0000
  H   H1247     1.0  0.86323  0.50051  0.30615  1.0000
  C   C1046     1.0  0.98986  0.58603  0.16473  1.0000
  H   H1248     1.0  0.97638  0.57924  0.53190  1.0000
  H   H1249     1.0  0.92441  0.57258  0.15048  1.0000
  C   C1047     1.0  0.74751  0.52304  0.92275  1.0000
  H   H1250     1.0  0.95115  0.52374  0.48088  1.0000
  C   C1048     1.0  0.76413  0.52547  0.92860  1.0000
  H   H1251     1.0  0.94516  0.55127  0.15215  1.0000
  H   H1252     1.0  0.98752  0.51689  0.56330  1.0000
  H   H1253     1.0  0.93089  0.54947  0.11592  1.0000
  H   H1254     1.0  0.90365  0.51195  0.24472  1.0000
  Fe  Fe144     1.0  0.85484  0.50302  0.93320  1.0000
  C   C1049     1.0  0.90228  0.52994  0.16627  1.0000
  C   C1050     1.0  0.89038  0.53361  0.14543  1.0000
  C   C1051     1.0  0.88201  0.52342  0.11594  1.0000
  C   C1052     1.0  0.88686  0.52519  0.80186  1.0000
  C   C1053     1.0  0.90590  0.51599  0.15675  1.0000
  H   H1255     1.0  0.88748  0.54439  0.15229  1.0000
  H   H1256     1.0  0.87282  0.52640  0.10047  1.0000
  N   N70       1.0  0.94822  0.57377  0.12011  1.0000
  C   C1054     1.0  0.91660  0.52906  0.79503  1.0000
  C   C1055     1.0  0.90236  0.52931  0.77802  1.0000
  C   C1056     1.0  0.99404  0.60145  0.10245  1.0000
  C   C1057     1.0  0.88540  0.50932  0.10692  1.0000
  C   C1058     1.0  0.89943  0.51993  0.85963  1.0000
  C   C1059     1.0  0.91500  0.52436  0.83599  1.0000
  H   H1257     1.0  0.90334  0.53298  0.74670  1.0000
  H   H1258     1.0  0.99481  0.58306  0.19121  1.0000
  C   C1060     1.0  0.75665  0.53831  0.85922  1.0000
  C   C1061     1.0  0.98268  0.58512  0.46859  1.0000
  H   H1259     1.0  0.94008  0.57419  0.18316  1.0000
  C   C1062     1.0  0.94405  0.55596  0.12200  1.0000
  N   N71       1.0  0.92857  0.50292  0.48354  1.0000
  C   C1063     1.0  0.96617  0.58192  0.12479  1.0000
  H   H1260     1.0  0.98852  0.52623  0.61013  1.0000
  H   H1261     1.0  0.92592  0.52420  0.84962  1.0000
  C   C1064     1.0  0.88525  0.52049  0.84283  1.0000
  H   H1262     1.0  0.87604  0.52580  0.78854  1.0000
  H   H1263     1.0  0.96545  0.56953  0.18214  1.0000
  S   S285      1.0  0.84785  0.51306  0.99187  1.0000
  H   H1264     1.0  0.95024  0.57493  0.05533  1.0000
  C   C1065     1.0  0.77698  0.53422  0.89996  1.0000
  H   H1265     1.0  0.94112  0.59158  0.15347  1.0000
  H   H1266     1.0  0.92541  0.52139  0.52256  1.0000
  H   H1267     1.0  0.88389  0.50531  0.32291  1.0000
  H   H1268     1.0  0.95258  0.50564  0.50289  1.0000
  H   H1269     1.0  0.92338  0.49895  0.79831  1.0000
  C   C1066     1.0  0.89742  0.50572  0.12758  1.0000
  C   C1067     1.0  0.93806  0.57825  0.15313  1.0000
  C   C1068     1.0  0.99625  0.52300  0.58543  1.0000
  H   H1270     1.0  0.92964  0.57154  0.07882  1.0000
  S   S286      1.0  0.86546  0.51610  0.87175  1.0000
  H   H1271     1.0  0.91528  0.51313  0.17166  1.0000
  H   H1272     1.0  0.94494  0.59122  0.07902  1.0000
  H   H1273     1.0  0.95258  0.50787  0.44941  1.0000
  N   N72       1.0  0.98855  0.50405  0.27847  1.0000
  H   H1274     1.0  0.97074  0.50839  0.24276  1.0000
  C   C1069     1.0  0.87683  0.50440  0.29616  1.0000
  H   H1275     1.0  0.94409  0.50356  0.74808  1.0000
  C   C1070     1.0  0.99425  0.58640  0.43525  1.0000
  H   H1276     1.0  0.92820  0.50489  0.54786  1.0000
  C   C1071     1.0  0.77326  0.54066  0.86541  1.0000
  H   H1277     1.0  0.97319  0.59743  0.06951  1.0000
  H   H1278     1.0  0.90851  0.50247  0.52821  1.0000
  S   S287      1.0  0.93306  0.49715  0.33827  1.0000
  H   H1279     1.0  0.95235  0.55222  0.09966  1.0000
  C   C1072     1.0  0.92175  0.50950  0.45093  1.0000
  C   C1073     1.0  0.97721  0.59379  0.09647  1.0000
  S   S288      1.0  0.99419  0.55688  0.24670  1.0000
  C   C1074     1.0  0.92234  0.50804  0.52222  1.0000
  H   H1280     1.0  0.78335  0.54746  0.84320  1.0000
  H   H1281     1.0  0.99153  0.59037  0.40688  1.0000
  H   H1282     1.0  0.88068  0.51699  0.28308  1.0000
  H   H1283     1.0  0.97147  0.58798  0.46537  1.0000
  H   H1284     1.0  0.78985  0.53596  0.90455  1.0000
  C   C1075     1.0  0.94703  0.51037  0.47888  1.0000
  H   H1285     1.0  0.98449  0.49962  0.64396  1.0000
  H   H1286     1.0  0.76704  0.52037  0.95539  1.0000
  H   H1287     1.0  0.99181  0.52142  0.22958  1.0000
  H   H1288     1.0  0.87527  0.50728  0.21973  1.0000
  C   C1076     1.0  0.97305  0.57830  0.15913  1.0000
  H   H1289     1.0  0.92766  0.50845  0.42058  1.0000
  H   H1290     1.0  0.75468  0.54356  0.83174  1.0000
  H   H1291     1.0  0.98569  0.50090  0.21536  1.0000
  H   H1292     1.0  0.90805  0.50310  0.45120  1.0000
  C   C1077     1.0  0.89886  0.49912  0.25601  1.0000
  C   C1078     1.0  0.98753  0.51630  0.30781  1.0000
  C   C1079     1.0  0.98393  0.50881  0.23981  1.0000
  H   H1293     1.0  0.90547  0.49835  0.28264  1.0000
  H   H1294     1.0  0.99444  0.52885  0.29551  1.0000
  H   H1295     1.0  0.99321  0.51520  0.33572  1.0000
  C   C1080     1.0  0.99267  0.49742  0.61848  1.0000
  H   H1296     1.0  0.99529  0.49754  0.53136  1.0000
