data_image0
_chemical_formula_structural       FeS2FeSHFeS3FeS2FeS2FeSFeS3FeS2FeSHFeSFeS3C3HC7H4NHC2H3C6H4C2H4CSFeCH5CNC7HCH13CH2CNHCHCH2SHCH2C3H4CHNC9H15C3H3C2H3CHCH2CH3NC2HC5H7CHCH2C2HCSFeS2FeS2FeSFeS3FeS2FeS2FeSFeS3C3HCH5C3HC2HNCHC6H6CH2C6H7C2HCH2CH2CHC3HC2H6NHCH2NCH7CNCHC2H3C3H4CH2C4H2CHCNCHC2H3CHC4NH2CHC2H3C8H2CH4C2HCH2CHCH2CHCHCHCHCH5CH2CH2CHCFeHSC2HS2FeS2FeS2FeSFeS3FeS2FeS2FeSFeS3C3H2SNH3C6H4CH3C2HCH2CSHC6H4C2H6C2NHFeC3H5CH3CH3CHCHC2HN2C9H14NC2H3C2H2CHCH4C3FeH2C2H2SC3H2CH2FeC2HC2SHC4NH3C3HC2H4CH3C2HSFeS2FeS2FeSFeS3FeS2FeS2FeSFeS3H2C6H2C3H2C4H2C6H5C6H5CH7C3NHCHCH2CHC4H3CH2CHCHCNC5H11CHCH3C3HCHCHCH2C4H5C2H2CHCH2NH6CHNH2C2SHC3HCH2C2H2C2HCH2CH2C3HCHCH3SCSCFeSFeSCSFeSC2SHSC3H2CHFeHFeCSH2NCH2CHCSHC2H2C3FeC2H3C2H4CH2CH2SHCH2C3H2CHCH4CHCHC3SC2FeSH2FeH6C2H4CNCSHNH3CSCH3C3H2CH5CH2C2H5CH3C2HCSNS2HFe2SHCFeHSHCHSC3SH2CHSCH3FeH2CHC2HC2SC2HCHCFeCHC2H2SHNCHNFeCHCH2CSCHSCH3CHCH2SH3CH2CHCSHFeH5CHNC2HC7H3FeSHC2H4SHC3HFeHSH4SFeS2FeS2FeSFeS3FeS2FeS2FeSFeS3C6H4N2HCHC3H3C3H2C4H2CSC8H4SC3H2NC6H10CH2C4HCHCH2CH2CH6CH2NC9H13CNC2H4C3H8C2NCHNCH6CH2FeSHCH2C3HC2H3CH4CH2C4H2C2HCH3CSHCSFeS2FeS2FeSFeS3FeS2FeS2FeSFeCS2C3HC4HC6H4C5H4C4H4CFeHC7H4N2C9H3CH7C2HNHCH3CHCSH5C2H2FeCHCSH2NC9H14CHCH3CHC2H3C2HCHCH2C3H3C2HCH2CH2C5H4CHCHCHCH4C3HCH2SFeSFeS2FeS2FeSFeS3FeS2FeSCFeSFeS3HCHCHC6H4CHCHC3HCHC3HFeC6H7C2HC4SC2NC3H2CH2CH9CH4NC9H18CH5CHCHC2H2SCHCHC2H2CH2NCHC2HC3HCHCH3CHC3H5CSHNCNHC2FeC2H2C2HS2NH2C2SFeS2FeS2FeSFeS3FeS2FeSCFeSFeS3C3HNC3H2C6H4C3H2CH2CHC6H5C2H2CH3NC7H13C2SHCH2CHC3HCH2CH2CH2FeCHCH5CHCHC2H2C4H4CHC3HCH5SCHNH2C2H5C2H3C2H
_chemical_formula_sum              "Fe96 S192 H864 C720 N48"
_cell_length_a       61.8375
_cell_length_b       61.8474
_cell_length_c       34.3977
_cell_angle_alpha    92.0246
_cell_angle_beta     91.1676
_cell_angle_gamma    88.7938

_space_group_name_H-M_alt    "P 1"
_space_group_IT_number       1

loop_
  _space_group_symop_operation_xyz
  'x, y, z'

loop_
  _atom_site_type_symbol
  _atom_site_label
  _atom_site_symmetry_multiplicity
  _atom_site_fract_x
  _atom_site_fract_y
  _atom_site_fract_z
  _atom_site_occupancy
  Fe  Fe1       1.0  0.10178  0.36665  0.08967  1.0000
  S   S1        1.0  0.11715  0.38911  0.04799  1.0000
  S   S2        1.0  0.11970  0.34269  0.12877  1.0000
  Fe  Fe2       1.0  0.05711  0.37811  0.05970  1.0000
  S   S3        1.0  0.02327  0.37102  0.07610  1.0000
  H   H1        1.0  0.02637  0.47358  0.12890  1.0000
  Fe  Fe3       1.0  0.09046  0.41354  0.06293  1.0000
  S   S4        1.0  0.09384  0.44968  0.08101  1.0000
  S   S5        1.0  0.08043  0.35142  0.04305  1.0000
  S   S6        1.0  0.07745  0.39209  0.10843  1.0000
  Fe  Fe4       1.0  0.10313  0.25046  0.39799  1.0000
  S   S7        1.0  0.09395  0.22094  0.36133  1.0000
  S   S8        1.0  0.10965  0.24112  0.46104  1.0000
  Fe  Fe5       1.0  0.10357  0.27846  0.32542  1.0000
  S   S9        1.0  0.09474  0.25077  0.28526  1.0000
  S   S10       1.0  0.10825  0.31209  0.30197  1.0000
  Fe  Fe6       1.0  0.07067  0.24319  0.33058  1.0000
  S   S11       1.0  0.03757  0.23255  0.30886  1.0000
  Fe  Fe7       1.0  0.11894  0.23124  0.31999  1.0000
  S   S12       1.0  0.14157  0.20819  0.28645  1.0000
  S   S13       1.0  0.07797  0.27212  0.36957  1.0000
  S   S14       1.0  0.12960  0.25958  0.35764  1.0000
  Fe  Fe8       1.0  0.26603  0.09762  0.39979  1.0000
  S   S15       1.0  0.23264  0.10110  0.37396  1.0000
  S   S16       1.0  0.26662  0.08277  0.45962  1.0000
  Fe  Fe9       1.0  0.28704  0.10878  0.32121  1.0000
  S   S17       1.0  0.25469  0.11387  0.29144  1.0000
  H   H2        1.0  0.00505  0.28641  0.21992  1.0000
  Fe  Fe10      1.0  0.24459  0.13120  0.34744  1.0000
  S   S18       1.0  0.22468  0.16189  0.36166  1.0000
  Fe  Fe11      1.0  0.24566  0.08353  0.32122  1.0000
  S   S19       1.0  0.22945  0.05586  0.28823  1.0000
  S   S20       1.0  0.27790  0.12848  0.37568  1.0000
  S   S21       1.0  0.27815  0.07766  0.34847  1.0000
  C   C1        1.0  0.01352  0.24592  0.32407  1.0000
  C   C2        1.0  0.01400  0.26411  0.34936  1.0000
  C   C3        1.0  0.13634  0.49030  0.01696  1.0000
  H   H3        1.0  0.02924  0.26970  0.36139  1.0000
  C   C4        1.0  0.28317  0.06250  0.23774  1.0000
  C   C5        1.0  0.16468  0.19547  0.30758  1.0000
  C   C6        1.0  0.17701  0.18056  0.28501  1.0000
  C   C7        1.0  0.19541  0.17003  0.30100  1.0000
  C   C8        1.0  0.20160  0.17433  0.33980  1.0000
  C   C9        1.0  0.18946  0.18952  0.36211  1.0000
  C   C10       1.0  0.17105  0.19999  0.34619  1.0000
  H   H4        1.0  0.17230  0.17715  0.25499  1.0000
  H   H5        1.0  0.20502  0.15897  0.28315  1.0000
  H   H6        1.0  0.19428  0.19314  0.39200  1.0000
  H   H7        1.0  0.16175  0.21149  0.36383  1.0000
  N   N1        1.0  0.02181  0.45284  0.07766  1.0000
  H   H8        1.0  0.26291  0.02928  0.46498  1.0000
  C   C11       1.0  0.23827  0.03026  0.35071  1.0000
  C   C12       1.0  0.23178  0.03090  0.31160  1.0000
  H   H9        1.0  0.01132  0.43586  0.12732  1.0000
  H   H10       1.0  0.24185  0.04511  0.36694  1.0000
  H   H11       1.0  0.06356  0.27296  0.21280  1.0000
  C   C13       1.0  0.11194  0.33512  0.17586  1.0000
  C   C14       1.0  0.10743  0.31336  0.18266  1.0000
  C   C15       1.0  0.10527  0.30614  0.22090  1.0000
  C   C16       1.0  0.10841  0.32048  0.25292  1.0000
  C   C17       1.0  0.11246  0.34227  0.24605  1.0000
  C   C18       1.0  0.11417  0.34955  0.20788  1.0000
  H   H12       1.0  0.10606  0.30196  0.15818  1.0000
  H   H13       1.0  0.10168  0.28942  0.22545  1.0000
  H   H14       1.0  0.11487  0.35355  0.27045  1.0000
  H   H15       1.0  0.11826  0.36618  0.20326  1.0000
  C   C19       1.0  0.23964  0.01041  0.36931  1.0000
  C   C20       1.0  0.08903  0.47613  0.06239  1.0000
  H   H16       1.0  0.27084  0.02137  0.23696  1.0000
  H   H17       1.0  0.22209  0.01186  0.26071  1.0000
  H   H18       1.0  0.30779  0.12206  0.15131  1.0000
  H   H19       1.0  0.30817  0.05258  0.30015  1.0000
  C   C21       1.0  0.02104  0.43301  0.10068  1.0000
  S   S22       1.0  0.06811  0.40108  0.01538  1.0000
  Fe  Fe12      1.0  0.09372  0.37530  0.00260  1.0000
  C   C22       1.0  0.31265  0.11571  0.21227  1.0000
  H   H20       1.0  0.14698  0.42511  0.01671  1.0000
  H   H21       1.0  0.14828  0.16168  0.37074  1.0000
  H   H22       1.0  0.32452  0.06247  0.26313  1.0000
  H   H23       1.0  0.29627  0.12030  0.21996  1.0000
  H   H24       1.0  0.05018  0.35888  0.14703  1.0000
  C   C23       1.0  0.12630  0.13889  0.28846  1.0000
  N   N2        1.0  0.17571  0.10123  0.30130  1.0000
  C   C24       1.0  0.17871  0.08823  0.33657  1.0000
  C   C25       1.0  0.17040  0.08593  0.26835  1.0000
  C   C26       1.0  0.19647  0.11138  0.29260  1.0000
  C   C27       1.0  0.15906  0.11847  0.30799  1.0000
  C   C28       1.0  0.16115  0.13336  0.34020  1.0000
  C   C29       1.0  0.14110  0.12173  0.28219  1.0000
  C   C30       1.0  0.14608  0.15022  0.34645  1.0000
  H   H25       1.0  0.24428  0.01014  0.39977  1.0000
  C   C31       1.0  0.03386  0.44769  0.04156  1.0000
  H   H26       1.0  0.16321  0.08104  0.34496  1.0000
  H   H27       1.0  0.19075  0.07472  0.33193  1.0000
  H   H28       1.0  0.18493  0.09791  0.36203  1.0000
  H   H29       1.0  0.15479  0.07783  0.27285  1.0000
  H   H30       1.0  0.18304  0.07285  0.26505  1.0000
  H   H31       1.0  0.16965  0.09418  0.24010  1.0000
  H   H32       1.0  0.20237  0.12211  0.31704  1.0000
  H   H33       1.0  0.20941  0.09899  0.28678  1.0000
  H   H34       1.0  0.19481  0.12148  0.26652  1.0000
  H   H35       1.0  0.17489  0.13261  0.36011  1.0000
  H   H36       1.0  0.13828  0.11152  0.25659  1.0000
  H   H37       1.0  0.01149  0.27586  0.26621  1.0000
  H   H38       1.0  0.27416  0.06640  0.26482  1.0000
  C   C32       1.0  0.04618  0.27159  0.22006  1.0000
  H   H39       1.0  0.02763  0.32850  0.12429  1.0000
  H   H40       1.0  0.10851  0.43288  0.00650  1.0000
  C   C33       1.0  0.03439  0.46910  0.10101  1.0000
  N   N3        1.0  0.29763  0.04322  0.24181  1.0000
  H   H41       1.0  0.04340  0.30782  0.29611  1.0000
  C   C34       1.0  0.28446  0.02572  0.25724  1.0000
  H   H42       1.0  0.04661  0.27908  0.29616  1.0000
  C   C35       1.0  0.31673  0.01161  0.15060  1.0000
  H   H43       1.0  0.09866  0.28584  0.48749  1.0000
  H   H44       1.0  0.05096  0.44293  0.04816  1.0000
  S   S23       1.0  0.31988  0.10711  0.29093  1.0000
  H   H45       1.0  0.11298  0.14148  0.26805  1.0000
  C   C36       1.0  0.99355  0.23881  0.30880  1.0000
  H   H46       1.0  0.06205  0.32960  0.25576  1.0000
  H   H47       1.0  0.11769  0.16678  0.32458  1.0000
  C   C37       1.0  0.04928  0.29351  0.27855  1.0000
  C   C38       1.0  0.05709  0.34570  0.20311  1.0000
  C   C39       1.0  0.03498  0.32833  0.15323  1.0000
  H   H48       1.0  0.31980  0.11846  0.02363  1.0000
  H   H49       1.0  0.04475  0.25726  0.23860  1.0000
  H   H50       1.0  0.29442  0.01097  0.26313  1.0000
  H   H51       1.0  0.06710  0.29459  0.27541  1.0000
  C   C40       1.0  0.30771  0.03747  0.20403  1.0000
  H   H52       1.0  0.32187  0.06911  0.19724  1.0000
  N   N4        1.0  0.16797  0.27738  0.25562  1.0000
  C   C41       1.0  0.16859  0.28969  0.29343  1.0000
  C   C42       1.0  0.16681  0.29338  0.22433  1.0000
  C   C43       1.0  0.14779  0.26484  0.25293  1.0000
  C   C44       1.0  0.18690  0.26234  0.25323  1.0000
  C   C45       1.0  0.20275  0.26340  0.22397  1.0000
  C   C46       1.0  0.18991  0.24592  0.28083  1.0000
  C   C47       1.0  0.22037  0.24881  0.22263  1.0000
  C   C48       1.0  0.20755  0.23143  0.27915  1.0000
  C   C49       1.0  0.22274  0.23286  0.25012  1.0000
  H   H53       1.0  0.18380  0.29893  0.29705  1.0000
  H   H54       1.0  0.15475  0.30149  0.29602  1.0000
  H   H55       1.0  0.16757  0.27902  0.31859  1.0000
  H   H56       1.0  0.16542  0.28530  0.19496  1.0000
  H   H57       1.0  0.18111  0.30403  0.22536  1.0000
  H   H58       1.0  0.15234  0.30437  0.22716  1.0000
  H   H59       1.0  0.13324  0.27560  0.25485  1.0000
  H   H60       1.0  0.14675  0.25505  0.22518  1.0000
  H   H61       1.0  0.14653  0.25344  0.27686  1.0000
  H   H62       1.0  0.20186  0.27525  0.20167  1.0000
  H   H63       1.0  0.17847  0.24392  0.30375  1.0000
  H   H64       1.0  0.23225  0.24982  0.20003  1.0000
  H   H65       1.0  0.20932  0.21887  0.30034  1.0000
  H   H66       1.0  0.23634  0.22151  0.24890  1.0000
  H   H67       1.0  0.02198  0.29793  0.16598  1.0000
  C   C50       1.0  0.30633  0.01654  0.18571  1.0000
  C   C51       1.0  0.31714  0.16204  0.02687  1.0000
  C   C52       1.0  0.01459  0.28958  0.24714  1.0000
  H   H68       1.0  0.30308  0.15406  0.03942  1.0000
  H   H69       1.0  0.08038  0.46581  0.00385  1.0000
  H   H70       1.0  0.02675  0.43395  0.02426  1.0000
  C   C53       1.0  0.31490  0.04834  0.27107  1.0000
  C   C54       1.0  0.00915  0.38658  0.00617  1.0000
  H   H71       1.0  0.31131  0.17769  0.01499  1.0000
  H   H72       1.0  0.03710  0.26769  0.19262  1.0000
  H   H73       1.0  0.27693  0.03079  0.28541  1.0000
  C   C55       1.0  0.12881  0.15311  0.32045  1.0000
  H   H74       1.0  0.03701  0.48398  0.08455  1.0000
  C   C56       1.0  0.22710  0.01148  0.29100  1.0000
  H   H75       1.0  0.05085  0.46276  0.10898  1.0000
  H   H76       1.0  0.09672  0.49213  0.11752  1.0000
  C   C57       1.0  0.99466  0.27523  0.35890  1.0000
  H   H77       1.0  0.29215  0.07733  0.23174  1.0000
  H   H78       1.0  0.03411  0.46190  0.02262  1.0000
  H   H79       1.0  0.27095  0.05987  0.21393  1.0000
  N   N5        1.0  0.03802  0.29172  0.24003  1.0000
  C   C58       1.0  0.00351  0.37927  0.04255  1.0000
  C   C59       1.0  0.04765  0.34559  0.16603  1.0000
  H   H80       1.0  0.99518  0.28939  0.37824  1.0000
  C   C60       1.0  0.04139  0.31044  0.21527  1.0000
  C   C61       1.0  0.05403  0.32848  0.22760  1.0000
  C   C62       1.0  0.31926  0.11670  0.17327  1.0000
  C   C63       1.0  0.08296  0.47951  0.02358  1.0000
  C   C64       1.0  0.03186  0.31097  0.17736  1.0000
  H   H81       1.0  0.01380  0.41914  0.08401  1.0000
  H   H82       1.0  0.13469  0.45771  0.03358  1.0000
  H   H83       1.0  0.03752  0.42729  0.10988  1.0000
  H   H84       1.0  0.06716  0.35908  0.21271  1.0000
  H   H85       1.0  0.29744  0.00366  0.19793  1.0000
  H   H86       1.0  0.31562  0.99552  0.13710  1.0000
  H   H87       1.0  0.17697  0.22980  0.47971  1.0000
  C   C65       1.0  0.99956  0.46028  0.06732  1.0000
  H   H88       1.0  0.28832  0.12142  0.49191  1.0000
  C   C66       1.0  0.31995  0.05296  0.18494  1.0000
  H   H89       1.0  0.00777  0.30453  0.26161  1.0000
  H   H90       1.0  0.32640  0.03442  0.27434  1.0000
  C   C67       1.0  0.13559  0.46801  0.00893  1.0000
  C   C68       1.0  0.26195  0.03029  0.49649  1.0000
  H   H91       1.0  0.22808  0.02316  0.49649  1.0000
  C   C69       1.0  0.14914  0.42344  0.98474  1.0000
  S   S24       1.0  0.10454  0.36868  0.93980  1.0000
  Fe  Fe13      1.0  0.09926  0.26576  0.68628  1.0000
  S   S25       1.0  0.10025  0.22968  0.68174  1.0000
  S   S26       1.0  0.09969  0.28484  0.63074  1.0000
  Fe  Fe14      1.0  0.09437  0.26668  0.77629  1.0000
  S   S27       1.0  0.09528  0.23004  0.77654  1.0000
  S   S28       1.0  0.08484  0.28334  0.83452  1.0000
  Fe  Fe15      1.0  0.12258  0.23134  0.73406  1.0000
  S   S29       1.0  0.15638  0.21529  0.73149  1.0000
  Fe  Fe16      1.0  0.07303  0.23196  0.72408  1.0000
  S   S30       1.0  0.04242  0.21416  0.70783  1.0000
  S   S31       1.0  0.12303  0.26802  0.73692  1.0000
  S   S32       1.0  0.07066  0.26811  0.72576  1.0000
  Fe  Fe17      1.0  0.24909  0.05974  0.71230  1.0000
  S   S33       1.0  0.28118  0.07615  0.71764  1.0000
  S   S34       1.0  0.25190  0.02513  0.68779  1.0000
  Fe  Fe18      1.0  0.22405  0.10249  0.73310  1.0000
  S   S35       1.0  0.25462  0.12125  0.74068  1.0000
  S   S36       1.0  0.18957  0.11661  0.73596  1.0000
  Fe  Fe19      1.0  0.26453  0.10309  0.68533  1.0000
  S   S37       1.0  0.27794  0.11975  0.63321  1.0000
  Fe  Fe20      1.0  0.26834  0.09228  0.77246  1.0000
  S   S38       1.0  0.28378  0.08968  0.83377  1.0000
  S   S39       1.0  0.23348  0.08573  0.67662  1.0000
  S   S40       1.0  0.23668  0.07450  0.76826  1.0000
  C   C70       1.0  0.27212  0.11146  0.58423  1.0000
  C   C71       1.0  0.28229  0.12167  0.55380  1.0000
  C   C72       1.0  0.28022  0.03588  0.51899  1.0000
  H   H92       1.0  0.21780  0.13792  0.55766  1.0000
  C   C73       1.0  0.25834  0.09431  0.57506  1.0000
  H   H93       1.0  0.29296  0.13500  0.56051  1.0000
  H   H94       1.0  0.05475  0.25197  0.55424  1.0000
  H   H95       1.0  0.25026  0.08634  0.59791  1.0000
  H   H96       1.0  0.20177  0.21998  0.59442  1.0000
  H   H97       1.0  0.03353  0.24304  0.77371  1.0000
  C   C74       1.0  0.10107  0.27239  0.58343  1.0000
  C   C75       1.0  0.09850  0.28512  0.55049  1.0000
  C   C76       1.0  0.10027  0.27580  0.51257  1.0000
  H   H98       1.0  0.10817  0.41188  0.96936  1.0000
  C   C77       1.0  0.10717  0.24093  0.54027  1.0000
  C   C78       1.0  0.10519  0.25017  0.57801  1.0000
  H   H99       1.0  0.09539  0.30234  0.55429  1.0000
  N   N6        1.0  0.03282  0.24781  0.60145  1.0000
  C   C79       1.0  0.99856  0.22258  0.70495  1.0000
  H   H100      1.0  0.10731  0.24009  0.60278  1.0000
  C   C80       1.0  0.16511  0.18778  0.73514  1.0000
  C   C81       1.0  0.18746  0.18290  0.73611  1.0000
  C   C82       1.0  0.19525  0.16130  0.73742  1.0000
  C   C83       1.0  0.18073  0.14424  0.73727  1.0000
  C   C84       1.0  0.15838  0.14913  0.73637  1.0000
  C   C85       1.0  0.15059  0.17075  0.73537  1.0000
  H   H101      1.0  0.19887  0.19593  0.73610  1.0000
  H   H102      1.0  0.21247  0.15786  0.73844  1.0000
  H   H103      1.0  0.14698  0.13609  0.73631  1.0000
  H   H104      1.0  0.13336  0.17418  0.73458  1.0000
  H   H105      1.0  0.17147  0.11365  0.60842  1.0000
  H   H106      1.0  0.22551  0.02678  0.56827  1.0000
  C   C86       1.0  0.22533  0.00339  0.73721  1.0000
  H   H107      1.0  0.26256  0.12432  0.94101  1.0000
  H   H108      1.0  0.22117  0.01901  0.75052  1.0000
  C   C87       1.0  0.09943  0.34459  0.91120  1.0000
  C   C88       1.0  0.10807  0.34213  0.87365  1.0000
  C   C89       1.0  0.10426  0.32336  0.85002  1.0000
  C   C90       1.0  0.09165  0.30679  0.86363  1.0000
  C   C91       1.0  0.08290  0.30934  0.90105  1.0000
  C   C92       1.0  0.08677  0.32804  0.92470  1.0000
  H   H109      1.0  0.11787  0.35480  0.86281  1.0000
  H   H110      1.0  0.11100  0.32176  0.82127  1.0000
  H   H111      1.0  0.07319  0.29664  0.91205  1.0000
  H   H112      1.0  0.08004  0.32959  0.95347  1.0000
  H   H113      1.0  0.04008  0.29665  0.86455  1.0000
  H   H114      1.0  0.18036  0.27845  0.67145  1.0000
  H   H115      1.0  0.16909  0.28467  0.62495  1.0000
  C   C93       1.0  0.31155  0.08843  0.89730  1.0000
  C   C94       1.0  0.30911  0.09421  0.85818  1.0000
  H   H116      1.0  0.24528  0.07327  0.52955  1.0000
  C   C95       1.0  0.18055  0.27347  0.63998  1.0000
  H   H117      1.0  0.29823  0.08102  0.91139  1.0000
  H   H118      1.0  0.31054  0.99455  0.93150  1.0000
  C   C96       1.0  0.15717  0.18255  0.62533  1.0000
  H   H119      1.0  0.02709  0.25015  0.53930  1.0000
  H   H120      1.0  0.12123  0.43586  0.90250  1.0000
  C   C97       1.0  0.27797  0.13182  0.93659  1.0000
  H   H121      1.0  0.14891  0.19024  0.64991  1.0000
  C   C98       1.0  0.31048  0.06263  0.56516  1.0000
  C   C99       1.0  0.10486  0.25365  0.50733  1.0000
  C   C100      1.0  0.19096  0.22364  0.53626  1.0000
  H   H122      1.0  0.29494  0.03839  0.50358  1.0000
  C   C101      1.0  0.13478  0.45937  0.97011  1.0000
  C   C102      1.0  0.27920  0.03896  0.56007  1.0000
  H   H123      1.0  0.01400  0.28620  0.85079  1.0000
  H   H124      1.0  0.14842  0.40570  0.97777  1.0000
  H   H125      1.0  0.01722  0.35931  0.92482  1.0000
  H   H126      1.0  0.04788  0.24823  0.65841  1.0000
  H   H127      1.0  0.15039  0.43374  0.90925  1.0000
  H   H128      1.0  0.13385  0.46959  0.90949  1.0000
  N   N7        1.0  0.13247  0.43579  0.96244  1.0000
  H   H129      1.0  0.30337  0.04372  0.84687  1.0000
  C   C103      1.0  0.02098  0.33725  0.87527  1.0000
  H   H130      1.0  0.32361  0.06927  0.58444  1.0000
  H   H131      1.0  0.28746  0.03937  0.64149  1.0000
  N   N8        1.0  0.02415  0.31233  0.81608  1.0000
  C   C104      1.0  0.19044  0.22873  0.57623  1.0000
  H   H132      1.0  0.11085  0.22381  0.53650  1.0000
  H   H133      1.0  0.19702  0.27633  0.62902  1.0000
  H   H134      1.0  0.14047  0.25950  0.63450  1.0000
  H   H135      1.0  0.17476  0.16086  0.66121  1.0000
  H   H136      1.0  0.03745  0.27995  0.82195  1.0000
  H   H137      1.0  0.19596  0.10445  0.63241  1.0000
  H   H138      1.0  0.03659  0.27444  0.56377  1.0000
  C   C105      1.0  0.17556  0.24452  0.59162  1.0000
  N   N9        1.0  0.17456  0.25050  0.63364  1.0000
  C   C106      1.0  0.15225  0.24790  0.64749  1.0000
  H   H139      1.0  0.18518  0.21971  0.65580  1.0000
  C   C107      1.0  0.01827  0.22658  0.72467  1.0000
  C   C108      1.0  0.00678  0.26679  0.64883  1.0000
  H   H140      1.0  0.15135  0.25084  0.67947  1.0000
  H   H141      1.0  0.20650  0.23926  0.65147  1.0000
  H   H142      1.0  0.18765  0.24179  0.68996  1.0000
  C   C109      1.0  0.16156  0.25492  0.56453  1.0000
  C   C110      1.0  0.18921  0.23719  0.65845  1.0000
  C   C111      1.0  0.01848  0.24025  0.75790  1.0000
  H   H143      1.0  0.22435  0.15689  0.62264  1.0000
  H   H144      1.0  0.14996  0.26728  0.57388  1.0000
  H   H145      1.0  0.14645  0.23124  0.64108  1.0000
  H   H146      1.0  0.99431  0.24078  0.56214  1.0000
  C   C112      1.0  0.17816  0.16217  0.56237  1.0000
  H   H147      1.0  0.27260  0.13390  0.87481  1.0000
  H   H148      1.0  0.00920  0.31840  0.76013  1.0000
  C   C113      1.0  0.31288  0.14472  0.96269  1.0000
  C   C114      1.0  0.18281  0.15471  0.60038  1.0000
  C   C115      1.0  0.17203  0.16563  0.63161  1.0000
  C   C116      1.0  0.20743  0.12627  0.57228  1.0000
  H   H149      1.0  0.06639  0.24904  0.61994  1.0000
  H   H150      1.0  0.02276  0.21707  0.57560  1.0000
  C   C117      1.0  0.24085  0.02923  0.55449  1.0000
  H   H151      1.0  0.29935  0.07637  0.55842  1.0000
  C   C118      1.0  0.25900  0.03496  0.57727  1.0000
  N   N10       1.0  0.29873  0.04497  0.58343  1.0000
  C   C119      1.0  0.18554  0.11894  0.62677  1.0000
  H   H152      1.0  0.25664  0.03652  0.60825  1.0000
  C   C120      1.0  0.21560  0.14311  0.63449  1.0000
  C   C121      1.0  0.02902  0.29302  0.83939  1.0000
  H   H153      1.0  0.19490  0.12008  0.55129  1.0000
  H   H154      1.0  0.22778  0.12985  0.63906  1.0000
  H   H155      1.0  0.20989  0.14812  0.66392  1.0000
  C   C122      1.0  0.27956  0.11411  0.51481  1.0000
  H   H156      1.0  0.17919  0.12435  0.65560  1.0000
  C   C123      1.0  0.29237  0.13544  0.96792  1.0000
  C   C124      1.0  0.25555  0.08687  0.53619  1.0000
  C   C125      1.0  0.11080  0.42948  0.97490  1.0000
  C   C126      1.0  0.26657  0.09628  0.50597  1.0000
  N   N11       1.0  0.19763  0.13611  0.60798  1.0000
  H   H157      1.0  0.05542  0.32621  0.82948  1.0000
  H   H158      1.0  0.21807  0.11214  0.57912  1.0000
  C   C127      1.0  0.05013  0.25491  0.62927  1.0000
  H   H159      1.0  0.28176  0.06619  0.62415  1.0000
  C   C128      1.0  0.03792  0.25645  0.56303  1.0000
  C   C129      1.0  0.24228  0.02707  0.51416  1.0000
  H   H160      1.0  0.15103  0.25752  0.50464  1.0000
  H   H161      1.0  0.03682  0.33198  0.88562  1.0000
  H   H162      1.0  0.05041  0.21760  0.59165  1.0000
  C   C130      1.0  0.03384  0.22381  0.59856  1.0000
  C   C131      1.0  0.30466  0.01818  0.88778  1.0000
  C   C132      1.0  0.00993  0.35296  0.89790  1.0000
  C   C133      1.0  0.15268  0.18922  0.58771  1.0000
  C   C134      1.0  0.01190  0.32866  0.83985  1.0000
  C   C135      1.0  0.01244  0.30487  0.78005  1.0000
  C   C136      1.0  0.01084  0.25509  0.61323  1.0000
  C   C137      1.0  0.13471  0.47450  0.93987  1.0000
  H   H163      1.0  0.15961  0.18438  0.52710  1.0000
  H   H164      1.0  0.05455  0.30980  0.78617  1.0000
  C   C138      1.0  0.31748  0.00704  0.91449  1.0000
  H   H165      1.0  0.13344  0.41104  0.91642  1.0000
  H   H166      1.0  0.02934  0.21676  0.62661  1.0000
  H   H167      1.0  0.18568  0.15507  0.53675  1.0000
  H   H168      1.0  0.14099  0.20221  0.58277  1.0000
  C   C139      1.0  0.23992  0.00206  0.70658  1.0000
  C   C140      1.0  0.28353  0.13731  0.89925  1.0000
  H   H169      1.0  0.28770  0.01444  0.88387  1.0000
  C   C141      1.0  0.16211  0.24955  0.52474  1.0000
  H   H170      1.0  0.05089  0.27287  0.63217  1.0000
  H   H171      1.0  0.30835  0.05847  0.64010  1.0000
  C   C142      1.0  0.29376  0.05253  0.62388  1.0000
  H   H172      1.0  0.16570  0.42885  0.97831  1.0000
  C   C143      1.0  0.13455  0.42898  0.92078  1.0000
  H   H173      1.0  0.02205  0.29237  0.76331  1.0000
  H   H174      1.0  0.04198  0.33641  0.78712  1.0000
  C   C144      1.0  0.04483  0.32162  0.80416  1.0000
  H   H175      1.0  0.01950  0.27099  0.66952  1.0000
  C   C145      1.0  0.17672  0.23391  0.51063  1.0000
  H   H176      1.0  0.20241  0.21156  0.52505  1.0000
  C   C146      1.0  0.16319  0.17910  0.55635  1.0000
  H   H177      1.0  0.09777  0.43842  0.95903  1.0000
  C   C147      1.0  0.31356  0.03456  0.86681  1.0000
  H   H178      1.0  0.99921  0.25918  0.79845  1.0000
  C   C148      1.0  0.99905  0.24948  0.77175  1.0000
  H   H179      1.0  0.99683  0.29728  0.78673  1.0000
  H   H180      1.0  0.30806  0.14985  0.86364  1.0000
  H   H181      1.0  0.31843  0.01982  0.55621  1.0000
  H   H182      1.0  0.99827  0.21193  0.67933  1.0000
  H   H183      1.0  0.99742  0.40030  0.95273  1.0000
  C   C149      1.0  0.31816  0.14990  0.92408  1.0000
  H   H184      1.0  0.02584  0.38618  0.99763  1.0000
  H   H185      1.0  0.32494  0.10830  0.81039  1.0000
  C   C150      1.0  0.30356  0.14633  0.89303  1.0000
  H   H186      1.0  0.30514  0.01217  0.59945  1.0000
  H   H187      1.0  0.31842  0.05735  0.53768  1.0000
  C   C151      1.0  0.31332  0.02575  0.58561  1.0000
  H   H188      1.0  0.28743  0.13059  0.99621  1.0000
  C   C152      1.0  0.32652  0.10372  0.84039  1.0000
  Fe  Fe21      1.0  0.09301  0.62144  0.08845  1.0000
  H   H189      1.0  0.04968  0.77421  0.48911  1.0000
  S   S41       1.0  0.11438  0.64229  0.12916  1.0000
  C   C153      1.0  0.15459  0.80474  0.47428  1.0000
  C   C154      1.0  0.08491  0.51905  0.03449  1.0000
  H   H190      1.0  0.02124  0.68449  0.04222  1.0000
  S   S42       1.0  0.07488  0.59125  0.10129  1.0000
  S   S43       1.0  0.06389  0.63970  0.06803  1.0000
  Fe  Fe22      1.0  0.25185  0.89768  0.28890  1.0000
  S   S44       1.0  0.22045  0.91695  0.29369  1.0000
  S   S45       1.0  0.26104  0.89538  0.22422  1.0000
  Fe  Fe23      1.0  0.25186  0.88964  0.37755  1.0000
  S   S46       1.0  0.22063  0.90781  0.38570  1.0000
  S   S47       1.0  0.26944  0.87855  0.43258  1.0000
  Fe  Fe24      1.0  0.20953  0.89022  0.33109  1.0000
  S   S48       1.0  0.17485  0.87835  0.32677  1.0000
  Fe  Fe25      1.0  0.23486  0.93253  0.34785  1.0000
  S   S49       1.0  0.23616  0.96670  0.37452  1.0000
  S   S50       1.0  0.24007  0.87018  0.32455  1.0000
  S   S51       1.0  0.26680  0.91503  0.34137  1.0000
  Fe  Fe26      1.0  0.08824  0.72319  0.31485  1.0000
  S   S52       1.0  0.08625  0.75287  0.27919  1.0000
  S   S53       1.0  0.08065  0.69030  0.28539  1.0000
  Fe  Fe27      1.0  0.09002  0.75049  0.39311  1.0000
  S   S54       1.0  0.08745  0.78148  0.36077  1.0000
  S   S55       1.0  0.09134  0.76066  0.45778  1.0000
  Fe  Fe28      1.0  0.06210  0.76499  0.32346  1.0000
  S   S56       1.0  0.03039  0.78182  0.30674  1.0000
  Fe  Fe29      1.0  0.11185  0.76630  0.32059  1.0000
  S   S57       1.0  0.14391  0.78101  0.30462  1.0000
  S   S58       1.0  0.06307  0.73503  0.35798  1.0000
  S   S59       1.0  0.11558  0.73566  0.35402  1.0000
  C   C155      1.0  0.28307  0.93247  0.48552  1.0000
  C   C156      1.0  0.30410  0.89907  0.13622  1.0000
  C   C157      1.0  0.08124  0.50077  0.00969  1.0000
  H   H191      1.0  0.11833  0.79747  0.43010  1.0000
  H   H192      1.0  0.01989  0.74482  0.35221  1.0000
  S   S60       1.0  0.10147  0.60978  0.02709  1.0000
  N   N12       1.0  0.26347  0.94658  0.48236  1.0000
  H   H193      1.0  0.27324  0.78602  0.11002  1.0000
  H   H194      1.0  0.10583  0.71718  0.11290  1.0000
  H   H195      1.0  0.22505  0.97662  0.29360  1.0000
  C   C158      1.0  0.16682  0.85095  0.32419  1.0000
  C   C159      1.0  0.14475  0.84628  0.32702  1.0000
  C   C160      1.0  0.13747  0.82489  0.32221  1.0000
  C   C161      1.0  0.15221  0.80801  0.31368  1.0000
  C   C162      1.0  0.17431  0.81261  0.31160  1.0000
  C   C163      1.0  0.18165  0.83388  0.31758  1.0000
  H   H196      1.0  0.13316  0.85936  0.33223  1.0000
  H   H197      1.0  0.12040  0.82158  0.32377  1.0000
  H   H198      1.0  0.18583  0.79962  0.30528  1.0000
  H   H199      1.0  0.19873  0.83705  0.31636  1.0000
  C   C164      1.0  0.26981  0.96714  0.46504  1.0000
  H   H200      1.0  0.15197  0.76198  0.40864  1.0000
  H   H201      1.0  0.02617  0.72085  0.46040  1.0000
  H   H202      1.0  0.27924  0.91612  0.49555  1.0000
  C   C165      1.0  0.28215  0.80093  0.10990  1.0000
  C   C166      1.0  0.00371  0.63655  0.04467  1.0000
  H   H203      1.0  0.03464  0.77833  0.44481  1.0000
  C   C167      1.0  0.28808  0.80946  0.07455  1.0000
  H   H204      1.0  0.27024  0.90618  0.14592  1.0000
  H   H205      1.0  0.11347  0.68878  0.11284  1.0000
  C   C168      1.0  0.08989  0.51568  0.07372  1.0000
  S   S61       1.0  0.08440  0.54540  0.01430  1.0000
  H   H206      1.0  0.09285  0.52945  0.09325  1.0000
  C   C169      1.0  0.10417  0.65641  0.17131  1.0000
  C   C170      1.0  0.11673  0.67251  0.19024  1.0000
  C   C171      1.0  0.10936  0.68378  0.22408  1.0000
  C   C172      1.0  0.08954  0.67865  0.24009  1.0000
  C   C173      1.0  0.07690  0.66270  0.22091  1.0000
  C   C174      1.0  0.08399  0.65188  0.18648  1.0000
  H   H207      1.0  0.13243  0.67608  0.17903  1.0000
  H   H208      1.0  0.11940  0.69579  0.23868  1.0000
  H   H209      1.0  0.06165  0.65843  0.23312  1.0000
  H   H210      1.0  0.07411  0.63957  0.17233  1.0000
  C   C175      1.0  0.28577  0.89471  0.19818  1.0000
  C   C176      1.0  0.28529  0.90050  0.15890  1.0000
  H   H211      1.0  0.17066  0.78984  0.38141  1.0000
  H   H212      1.0  0.31468  0.85363  0.11162  1.0000
  H   H213      1.0  0.30606  0.88262  0.24443  1.0000
  H   H214      1.0  0.12706  0.70643  0.08253  1.0000
  H   H215      1.0  0.02429  0.78870  0.49022  1.0000
  H   H216      1.0  0.30339  0.90370  0.10620  1.0000
  C   C177      1.0  0.15238  0.77032  0.43795  1.0000
  C   C178      1.0  0.00562  0.77168  0.32246  1.0000
  N   N13       1.0  0.09469  0.69839  0.06259  1.0000
  H   H217      1.0  0.01233  0.57208  0.05378  1.0000
  Fe  Fe30      1.0  0.07077  0.62700  0.00741  1.0000
  C   C179      1.0  0.02514  0.54090  0.03828  1.0000
  C   C180      1.0  0.07271  0.69458  0.07704  1.0000
  C   C181      1.0  0.06829  0.69272  0.11723  1.0000
  H   H218      1.0  0.05089  0.73600  0.46464  1.0000
  H   H219      1.0  0.30012  0.86842  0.00710  1.0000
  H   H220      1.0  0.01811  0.66349  0.20205  1.0000
  H   H221      1.0  0.18372  0.82388  0.46625  1.0000
  H   H222      1.0  0.09174  0.67489  0.01482  1.0000
  C   C182      1.0  0.17177  0.79884  0.41001  1.0000
  H   H223      1.0  0.01940  0.69220  0.25392  1.0000
  H   H224      1.0  0.03239  0.74056  0.42564  1.0000
  H   H225      1.0  0.05724  0.69200  0.01936  1.0000
  C   C183      1.0  0.23489  0.99097  0.34890  1.0000
  H   H226      1.0  0.24377  0.91951  0.46290  1.0000
  H   H227      1.0  0.10319  0.66451  0.05868  1.0000
  H   H228      1.0  0.04097  0.54450  0.05091  1.0000
  C   C184      1.0  0.00426  0.68909  0.23828  1.0000
  H   H229      1.0  0.28314  0.80481  0.17242  1.0000
  C   C185      1.0  0.13322  0.80181  0.41478  1.0000
  H   H230      1.0  0.27876  0.86063  0.03806  1.0000
  C   C186      1.0  0.29664  0.86086  0.03516  1.0000
  C   C187      1.0  0.99694  0.62819  0.07956  1.0000
  H   H231      1.0  0.28326  0.80051  0.04841  1.0000
  N   N14       1.0  0.15321  0.79420  0.43498  1.0000
  N   N15       1.0  0.19396  0.86564  0.21002  1.0000
  C   C188      1.0  0.18902  0.88912  0.21625  1.0000
  C   C189      1.0  0.21085  0.85966  0.23902  1.0000
  C   C190      1.0  0.20300  0.86253  0.17055  1.0000
  C   C191      1.0  0.17496  0.85173  0.21408  1.0000
  C   C192      1.0  0.15425  0.86005  0.22501  1.0000
  C   C193      1.0  0.17705  0.82892  0.20818  1.0000
  C   C194      1.0  0.13683  0.84632  0.22936  1.0000
  C   C195      1.0  0.15957  0.81536  0.21302  1.0000
  C   C196      1.0  0.13949  0.82404  0.22349  1.0000
  H   H232      1.0  0.18331  0.89285  0.24636  1.0000
  H   H233      1.0  0.20366  0.89908  0.21286  1.0000
  H   H234      1.0  0.17655  0.89493  0.19510  1.0000
  H   H235      1.0  0.20466  0.86209  0.26893  1.0000
  H   H236      1.0  0.22543  0.86977  0.23707  1.0000
  H   H237      1.0  0.21646  0.84255  0.23562  1.0000
  H   H238      1.0  0.19052  0.86606  0.14776  1.0000
  H   H239      1.0  0.21695  0.87335  0.16646  1.0000
  H   H240      1.0  0.20928  0.84578  0.16495  1.0000
  H   H241      1.0  0.15121  0.87701  0.23167  1.0000
  H   H242      1.0  0.19239  0.82133  0.20088  1.0000
  H   H243      1.0  0.12135  0.85292  0.23886  1.0000
  H   H244      1.0  0.16169  0.79792  0.20997  1.0000
  H   H245      1.0  0.12619  0.81339  0.22849  1.0000
  N   N16       1.0  0.02197  0.75401  0.48127  1.0000
  C   C197      1.0  0.24799  0.93603  0.45462  1.0000
  C   C198      1.0  0.09210  0.49440  0.08740  1.0000
  H   H246      1.0  0.13177  0.79444  0.38488  1.0000
  H   H247      1.0  0.25486  0.93398  0.42502  1.0000
  H   H248      1.0  0.04475  0.68639  0.16041  1.0000
  C   C199      1.0  0.00513  0.75339  0.34511  1.0000
  C   C200      1.0  0.03332  0.73704  0.45719  1.0000
  H   H249      1.0  0.27633  0.96428  0.43523  1.0000
  H   H250      1.0  0.16670  0.76396  0.45432  1.0000
  C   C201      1.0  0.30539  0.88735  0.21444  1.0000
  H   H251      1.0  0.01465  0.68131  0.11241  1.0000
  C   C202      1.0  0.10246  0.67893  0.04020  1.0000
  H   H252      1.0  0.25558  0.97830  0.46148  1.0000
  H   H253      1.0  0.09719  0.71452  0.47396  1.0000
  H   H254      1.0  0.22364  0.87758  0.45192  1.0000
  H   H255      1.0  0.13301  0.81971  0.41206  1.0000
  C   C203      1.0  0.11088  0.70300  0.09418  1.0000
  C   C204      1.0  0.04751  0.68824  0.12968  1.0000
  C   C205      1.0  0.28772  0.81145  0.14509  1.0000
  Fe  Fe31      1.0  0.04634  0.60943  0.07679  1.0000
  H   H256      1.0  0.18746  0.79384  0.42371  1.0000
  H   H257      1.0  0.13628  0.49652  0.04686  1.0000
  C   C206      1.0  0.23315  0.87612  0.47844  1.0000
  C   C207      1.0  0.03057  0.68545  0.10276  1.0000
  H   H258      1.0  0.11896  0.68101  0.02877  1.0000
  H   H259      1.0  0.08068  0.69408  0.13971  1.0000
  S   S62       1.0  0.01468  0.61230  0.10718  1.0000
  C   C208      1.0  0.03303  0.77473  0.47617  1.0000
  C   C209      1.0  0.17111  0.81952  0.48564  1.0000
  C   C210      1.0  0.03429  0.68734  0.06323  1.0000
  H   H260      1.0  0.02043  0.63506  0.03641  1.0000
  H   H261      1.0  0.23266  0.94570  0.45194  1.0000
  C   C211      1.0  0.25575  0.87560  0.47701  1.0000
  H   H262      1.0  0.13762  0.76507  0.45253  1.0000
  H   H263      1.0  0.28266  0.97540  0.48264  1.0000
  Fe  Fe32      1.0  0.08049  0.58072  0.03865  1.0000
  C   C212      1.0  0.00362  0.67296  0.20896  1.0000
  C   C213      1.0  0.22881  0.99152  0.30952  1.0000
  H   H264      1.0  0.17227  0.81631  0.40318  1.0000
  C   C214      1.0  0.00861  0.55666  0.03956  1.0000
  C   C215      1.0  0.05501  0.69180  0.05044  1.0000
  S   S63       1.0  0.05038  0.59761  0.01508  1.0000
  H   H265      1.0  0.29091  0.92969  0.45681  1.0000
  C   C216      1.0  0.32361  0.89124  0.15220  1.0000
  C   C217      1.0  0.29993  0.82891  0.07366  1.0000
  C   C218      1.0  0.09414  0.71708  0.03662  1.0000
  C   C219      1.0  0.30547  0.83900  0.11006  1.0000
  N   N17       1.0  0.30629  0.83874  0.03706  1.0000
  H   H266      1.0  0.12530  0.79025  0.49539  1.0000
  H   H267      1.0  0.30315  0.87198  0.05845  1.0000
  H   H268      1.0  0.08675  0.73164  0.05145  1.0000
  C   C220      1.0  0.29924  0.82637  0.00136  1.0000
  C   C221      1.0  0.29934  0.83049  0.14514  1.0000
  C   C222      1.0  0.99951  0.75595  0.46540  1.0000
  H   H269      1.0  0.99931  0.75892  0.43363  1.0000
  C   C223      1.0  0.02159  0.52085  0.01992  1.0000
  C   C224      1.0  0.00138  0.51635  0.00318  1.0000
  H   H270      1.0  0.08473  0.71370  0.00924  1.0000
  H   H271      1.0  0.03466  0.50892  0.01832  1.0000
  H   H272      1.0  0.11063  0.72127  0.02736  1.0000
  H   H273      1.0  0.30373  0.83877  0.17247  1.0000
  C   C225      1.0  0.32409  0.88541  0.19145  1.0000
  H   H274      1.0  0.99385  0.59606  0.01625  1.0000
  H   H275      1.0  0.00094  0.49330  0.09313  1.0000
  H   H276      1.0  0.30663  0.80980  0.00007  1.0000
  C   C226      1.0  0.00768  0.67896  0.77647  1.0000
  C   C227      1.0  0.14930  0.90946  0.75467  1.0000
  H   H277      1.0  0.02661  0.64868  0.81978  1.0000
  S   S64       1.0  0.06286  0.65378  0.96365  1.0000
  Fe  Fe33      1.0  0.23097  0.87621  0.65714  1.0000
  S   S65       1.0  0.20100  0.88320  0.69224  1.0000
  S   S66       1.0  0.22050  0.87137  0.59330  1.0000
  Fe  Fe34      1.0  0.26012  0.87804  0.73156  1.0000
  S   S67       1.0  0.23192  0.88412  0.77023  1.0000
  S   S68       1.0  0.29408  0.88198  0.75791  1.0000
  Fe  Fe35      1.0  0.21475  0.85882  0.73307  1.0000
  S   S69       1.0  0.19634  0.83223  0.76178  1.0000
  Fe  Fe36      1.0  0.22088  0.90782  0.72568  1.0000
  S   S70       1.0  0.20855  0.94053  0.74900  1.0000
  S   S71       1.0  0.24405  0.85062  0.69712  1.0000
  S   S72       1.0  0.24972  0.90289  0.68787  1.0000
  Fe  Fe37      1.0  0.08851  0.76332  0.73063  1.0000
  S   S73       1.0  0.10899  0.73322  0.72142  1.0000
  S   S74       1.0  0.10156  0.79732  0.72459  1.0000
  Fe  Fe38      1.0  0.04645  0.73788  0.72877  1.0000
  S   S75       1.0  0.06444  0.70642  0.71778  1.0000
  S   S76       1.0  0.01091  0.73142  0.73695  1.0000
  Fe  Fe39      1.0  0.08738  0.71799  0.76506  1.0000
  S   S77       1.0  0.10009  0.69290  0.80836  1.0000
  Fe  Fe40      1.0  0.08393  0.72444  0.67554  1.0000
  S   S78       1.0  0.09251  0.70989  0.61591  1.0000
  S   S79       1.0  0.06871  0.74902  0.77793  1.0000
  S   S80       1.0  0.06415  0.75490  0.68282  1.0000
  H   H278      1.0  0.00088  0.77693  0.53978  1.0000
  H   H279      1.0  0.25454  0.96085  0.86539  1.0000
  C   C228      1.0  0.10700  0.84333  0.79250  1.0000
  C   C229      1.0  0.22276  0.87467  0.51428  1.0000
  C   C230      1.0  0.31450  0.87550  0.88716  1.0000
  C   C231      1.0  0.09130  0.72410  0.57201  1.0000
  C   C232      1.0  0.08766  0.74648  0.57181  1.0000
  C   C233      1.0  0.09473  0.71269  0.53649  1.0000
  H   H280      1.0  0.08467  0.75544  0.59880  1.0000
  H   H281      1.0  0.09759  0.69536  0.53637  1.0000
  C   C234      1.0  0.22085  0.96412  0.73269  1.0000
  C   C235      1.0  0.23572  0.96287  0.70262  1.0000
  C   C236      1.0  0.08789  0.75735  0.53655  1.0000
  H   H282      1.0  0.23976  0.94743  0.68889  1.0000
  H   H283      1.0  0.08523  0.77470  0.53680  1.0000
  C   C237      1.0  0.23476  0.87293  0.54925  1.0000
  C   C238      1.0  0.25737  0.87234  0.54793  1.0000
  C   C239      1.0  0.12524  0.84358  0.81686  1.0000
  C   C240      1.0  0.13595  0.50468  0.98674  1.0000
  H   H284      1.0  0.26681  0.87082  0.57456  1.0000
  H   H285      1.0  0.30432  0.83430  0.97444  1.0000
  C   C241      1.0  0.17041  0.82209  0.74899  1.0000
  C   C242      1.0  0.15644  0.83247  0.72278  1.0000
  C   C243      1.0  0.13559  0.82438  0.71498  1.0000
  C   C244      1.0  0.12858  0.80571  0.73284  1.0000
  C   C245      1.0  0.14279  0.79494  0.75807  1.0000
  C   C246      1.0  0.16351  0.80323  0.76635  1.0000
  H   H286      1.0  0.16153  0.84690  0.70897  1.0000
  H   H287      1.0  0.12469  0.83283  0.69545  1.0000
  H   H288      1.0  0.13759  0.78063  0.77217  1.0000
  H   H289      1.0  0.17422  0.79506  0.78661  1.0000
  H   H290      1.0  0.25759  0.93098  0.76402  1.0000
  C   C247      1.0  0.07451  0.66487  0.92174  1.0000
  C   C248      1.0  0.09080  0.65413  0.90050  1.0000
  C   C249      1.0  0.09848  0.66303  0.86617  1.0000
  C   C250      1.0  0.09001  0.68274  0.85242  1.0000
  C   C251      1.0  0.07413  0.69377  0.87427  1.0000
  C   C252      1.0  0.06643  0.68487  0.90859  1.0000
  H   H291      1.0  0.09726  0.63878  0.91011  1.0000
  H   H292      1.0  0.11095  0.65443  0.84986  1.0000
  H   H293      1.0  0.06790  0.70921  0.86479  1.0000
  H   H294      1.0  0.05392  0.69344  0.92483  1.0000
  H   H295      1.0  0.16489  0.78714  0.68303  1.0000
  C   C253      1.0  0.26228  0.93203  0.79545  1.0000
  H   H296      1.0  0.26856  0.97080  0.76060  1.0000
  H   H297      1.0  0.22831  0.91987  0.58893  1.0000
  H   H298      1.0  0.20429  0.98564  0.77343  1.0000
  H   H299      1.0  0.14973  0.90021  0.72628  1.0000
  H   H300      1.0  0.00915  0.65417  0.88124  1.0000
  H   H301      1.0  0.13368  0.91863  0.75689  1.0000
  H   H302      1.0  0.26773  0.91552  0.80394  1.0000
  C   C254      1.0  0.21577  0.98446  0.75010  1.0000
  C   C255      1.0  0.24229  0.97207  0.57776  1.0000
  C   C256      1.0  0.27063  0.95535  0.87369  1.0000
  N   N18       1.0  0.27953  0.94796  0.80331  1.0000
  H   H303      1.0  0.13564  0.52200  0.99321  1.0000
  C   C257      1.0  0.29776  0.94211  0.77720  1.0000
  H   H304      1.0  0.15384  0.85972  0.83492  1.0000
  C   C258      1.0  0.28565  0.94799  0.84520  1.0000
  H   H305      1.0  0.11444  0.88870  0.74334  1.0000
  H   H306      1.0  0.04615  0.66788  0.80577  1.0000
  C   C259      1.0  0.17516  0.88567  0.78432  1.0000
  H   H307      1.0  0.20982  0.81746  0.61094  1.0000
  C   C260      1.0  0.15174  0.90820  0.82433  1.0000
  C   C261      1.0  0.24496  0.93160  0.53970  1.0000
  C   C262      1.0  0.02333  0.70351  0.82475  1.0000
  C   C263      1.0  0.13997  0.86036  0.81539  1.0000
  H   H308      1.0  0.25536  0.97397  0.80555  1.0000
  H   H309      1.0  0.04363  0.71525  0.59137  1.0000
  H   H310      1.0  0.25879  0.98438  0.53024  1.0000
  C   C264      1.0  0.99546  0.66457  0.87434  1.0000
  H   H311      1.0  0.20060  0.79213  0.55616  1.0000
  H   H312      1.0  0.12822  0.83038  0.83633  1.0000
  C   C265      1.0  0.13525  0.49681  0.94831  1.0000
  H   H313      1.0  0.03795  0.70586  0.80703  1.0000
  C   C266      1.0  0.13704  0.87728  0.78877  1.0000
  H   H314      1.0  0.16336  0.92176  0.82455  1.0000
  C   C267      1.0  0.30122  0.87979  0.80812  1.0000
  N   N19       1.0  0.15035  0.75598  0.63046  1.0000
  C   C268      1.0  0.15745  0.74262  0.66361  1.0000
  C   C269      1.0  0.12920  0.76644  0.63975  1.0000
  C   C270      1.0  0.14688  0.74105  0.59617  1.0000
  C   C271      1.0  0.16653  0.77281  0.62420  1.0000
  C   C272      1.0  0.17710  0.77492  0.58819  1.0000
  H   H315      1.0  0.25649  0.98050  0.66606  1.0000
  H   H316      1.0  0.14654  0.72874  0.66729  1.0000
  H   H317      1.0  0.17410  0.73587  0.65931  1.0000
  H   H318      1.0  0.15741  0.75195  0.69187  1.0000
  H   H319      1.0  0.12992  0.77657  0.66704  1.0000
  H   H320      1.0  0.11652  0.75425  0.64400  1.0000
  H   H321      1.0  0.12342  0.77706  0.61610  1.0000
  H   H322      1.0  0.16209  0.73231  0.58786  1.0000
  H   H323      1.0  0.13501  0.72833  0.60231  1.0000
  H   H324      1.0  0.14008  0.74972  0.57071  1.0000
  H   H325      1.0  0.17372  0.76453  0.56304  1.0000
  C   C273      1.0  0.00960  0.75896  0.58948  1.0000
  H   H326      1.0  0.99866  0.50070  0.98892  1.0000
  C   C274      1.0  0.18773  0.80350  0.65004  1.0000
  H   H327      1.0  0.22533  0.95594  0.62209  1.0000
  H   H328      1.0  0.17610  0.87391  0.75923  1.0000
  H   H329      1.0  0.09591  0.82997  0.79296  1.0000
  C   C275      1.0  0.03383  0.72833  0.57947  1.0000
  C   C276      1.0  0.27595  0.95538  0.91345  1.0000
  C   C277      1.0  0.19263  0.79078  0.58374  1.0000
  H   H330      1.0  0.13520  0.91532  0.82824  1.0000
  C   C278      1.0  0.29425  0.86810  0.87354  1.0000
  H   H331      1.0  0.15568  0.89851  0.85028  1.0000
  C   C279      1.0  0.17226  0.78769  0.65487  1.0000
  H   H332      1.0  0.18723  0.89846  0.78010  1.0000
  C   C280      1.0  0.24514  0.98171  0.68958  1.0000
  H   H333      1.0  0.08940  0.85919  0.74702  1.0000
  H   H334      1.0  0.31145  0.95336  0.78183  1.0000
  C   C281      1.0  0.11814  0.87663  0.76449  1.0000
  C   C282      1.0  0.23495  0.93392  0.57568  1.0000
  C   C283      1.0  0.10343  0.85982  0.76646  1.0000
  C   C284      1.0  0.28750  0.87051  0.83444  1.0000
  H   H335      1.0  0.13471  0.50816  0.92497  1.0000
  H   H336      1.0  0.02167  0.68026  0.75680  1.0000
  H   H337      1.0  0.28527  0.87287  0.51112  1.0000
  H   H338      1.0  0.02793  0.70641  0.85591  1.0000
  H   H339      1.0  0.20527  0.87521  0.51494  1.0000
  C   C285      1.0  0.00981  0.76289  0.54964  1.0000
  C   C286      1.0  0.23341  0.95416  0.59447  1.0000
  H   H340      1.0  0.24585  0.91556  0.52643  1.0000
  H   H341      1.0  0.24725  0.93620  0.81151  1.0000
  C   C287      1.0  0.25227  0.96991  0.54158  1.0000
  H   H342      1.0  0.18443  0.84066  0.53101  1.0000
  C   C288      1.0  0.02152  0.74166  0.60433  1.0000
  H   H343      1.0  0.26424  0.96105  0.93473  1.0000
  H   H344      1.0  0.00048  0.76959  0.60921  1.0000
  N   N20       1.0  0.01439  0.68161  0.81802  1.0000
  H   H345      1.0  0.16210  0.92190  0.75364  1.0000
  H   H346      1.0  0.27200  0.86448  0.82437  1.0000
  H   H347      1.0  0.28381  0.86017  0.89321  1.0000
  H   H348      1.0  0.00485  0.77141  0.69371  1.0000
  H   H349      1.0  0.04440  0.72133  0.52232  1.0000
  H   H350      1.0  0.18085  0.87697  0.81042  1.0000
  C   C289      1.0  0.19787  0.80509  0.61453  1.0000
  H   H351      1.0  0.03876  0.66709  0.85525  1.0000
  N   N21       1.0  0.15292  0.89488  0.78777  1.0000
  H   H352      1.0  0.19204  0.81453  0.67412  1.0000
  H   H353      1.0  0.01154  0.71650  0.81666  1.0000
  C   C290      1.0  0.27128  0.96974  0.79257  1.0000
  C   C291      1.0  0.30610  0.94020  0.85907  1.0000
  S   S81       1.0  0.32308  0.87013  0.93571  1.0000
  H   H354      1.0  0.29274  0.94249  0.74593  1.0000
  C   C292      1.0  0.03408  0.73204  0.53956  1.0000
  C   C293      1.0  0.32144  0.88728  0.82178  1.0000
  C   C294      1.0  0.02180  0.74934  0.52327  1.0000
  H   H355      1.0  0.02156  0.73878  0.63531  1.0000
  C   C295      1.0  0.17165  0.82946  0.52284  1.0000
  H   H356      1.0  0.28289  0.98253  0.80177  1.0000
  H   H357      1.0  0.30377  0.92527  0.78147  1.0000
  C   C296      1.0  0.03215  0.66555  0.82506  1.0000
  C   C297      1.0  0.13866  0.80086  0.50227  1.0000
  H   H358      1.0  0.12691  0.80781  0.56007  1.0000
  H   H359      1.0  0.31840  0.93371  0.83989  1.0000
  C   C298      1.0  0.15581  0.82520  0.54958  1.0000
  C   C299      1.0  0.26779  0.87346  0.51190  1.0000
  H   H360      1.0  0.24134  0.98769  0.59306  1.0000
  C   C300      1.0  0.13935  0.81091  0.53933  1.0000
  H   H361      1.0  0.15635  0.83299  0.57833  1.0000
  H   H362      1.0  0.07747  0.50310  0.97925  1.0000
  C   C301      1.0  0.25353  0.94955  0.52107  1.0000
  H   H363      1.0  0.29514  0.93954  0.50643  1.0000
  H   H364      1.0  0.00009  0.66300  0.77045  1.0000
  C   C302      1.0  0.09126  0.74593  0.50103  1.0000
  C   C303      1.0  0.09453  0.72351  0.50108  1.0000
  C   C304      1.0  0.29619  0.94780  0.92601  1.0000
  H   H365      1.0  0.99591  0.69169  0.76728  1.0000
  C   C305      1.0  0.99553  0.67924  0.84335  1.0000
  H   H366      1.0  0.30029  0.94765  0.95685  1.0000
  C   C306      1.0  0.31116  0.94014  0.89889  1.0000
  H   H367      1.0  0.99363  0.65078  0.99088  1.0000
  H   H368      1.0  0.28132  0.82531  0.99923  1.0000
  H   H369      1.0  0.32673  0.93382  0.90890  1.0000
  S   S82       1.0  0.39233  0.12649  0.03543  1.0000
  C   C307      1.0  0.52882  0.03532  0.08311  1.0000
  S   S83       1.0  0.41018  0.08781  0.09095  1.0000
  C   C308      1.0  0.35447  0.00710  0.03083  1.0000
  Fe  Fe41      1.0  0.37769  0.10313  0.07646  1.0000
  S   S84       1.0  0.34784  0.11290  0.11268  1.0000
  Fe  Fe42      1.0  0.42445  0.10900  0.04616  1.0000
  S   S85       1.0  0.45729  0.12428  0.06145  1.0000
  C   C309      1.0  0.37199  0.02050  0.03975  1.0000
  S   S86       1.0  0.60192  0.09058  0.07115  1.0000
  Fe  Fe43      1.0  0.62445  0.11868  0.07813  1.0000
  S   S87       1.0  0.63392  0.13413  0.13700  1.0000
  C   C310      1.0  0.33392  0.12721  0.01308  1.0000
  C   C311      1.0  0.64364  0.00157  0.12657  1.0000
  S   S88       1.0  0.37005  0.07873  0.02803  1.0000
  H   H370      1.0  0.33949  0.06013  0.13605  1.0000
  S   S89       1.0  0.60792  0.13692  0.02950  1.0000
  C   C312      1.0  0.48362  0.11807  0.04312  1.0000
  C   C313      1.0  0.52317  0.11997  0.05184  1.0000
  C   C314      1.0  0.50201  0.12415  0.06549  1.0000
  H   H371      1.0  0.57845  0.02307  0.10530  1.0000
  H   H372      1.0  0.49986  0.13215  0.09368  1.0000
  C   C315      1.0  0.39303  0.01339  0.03121  1.0000
  H   H373      1.0  0.53706  0.12477  0.06947  1.0000
  Fe  Fe44      1.0  0.58743  0.10729  0.01935  1.0000
  H   H374      1.0  0.36920  0.03630  0.05318  1.0000
  Fe  Fe45      1.0  0.40363  0.06552  0.03952  1.0000
  C   C316      1.0  0.35517  0.10415  0.19136  1.0000
  S   S90       1.0  0.65026  0.10440  0.03977  1.0000
  H   H375      1.0  0.53407  0.00098  0.02367  1.0000
  H   H376      1.0  0.62670  0.00343  0.11553  1.0000
  N   N22       1.0  0.51755  0.04103  0.04630  1.0000
  C   C317      1.0  0.58829  0.01867  0.08050  1.0000
  H   H377      1.0  0.60750  0.04718  0.08628  1.0000
  H   H378      1.0  0.49480  0.06575  0.02824  1.0000
  C   C318      1.0  0.34860  0.10333  0.23044  1.0000
  H   H379      1.0  0.64719  0.02728  0.29425  1.0000
  C   C319      1.0  0.53395  0.04738  0.01812  1.0000
  S   S91       1.0  0.41478  0.03070  0.03844  1.0000
  H   H380      1.0  0.62523  0.99520  0.28810  1.0000
  C   C320      1.0  0.61511  0.00661  0.01851  1.0000
  C   C321      1.0  0.52624  0.10999  0.01516  1.0000
  H   H381      1.0  0.33812  0.01275  0.03649  1.0000
  H   H382      1.0  0.51307  0.07440  0.06614  1.0000
  C   C322      1.0  0.48259  0.02241  0.02478  1.0000
  C   C323      1.0  0.50549  0.02213  0.03036  1.0000
  C   C324      1.0  0.60465  0.03240  0.06960  1.0000
  Fe  Fe46      1.0  0.62698  0.07752  0.02971  1.0000
  C   C325      1.0  0.53526  0.17337  0.01716  1.0000
  C   C326      1.0  0.50352  0.06034  0.05488  1.0000
  H   H383      1.0  0.49141  0.05722  0.07741  1.0000
  H   H384      1.0  0.37161  0.09978  0.18374  1.0000
  H   H385      1.0  0.65962  0.09413  0.12897  1.0000
  C   C327      1.0  0.65402  0.12188  0.16719  1.0000
  C   C328      1.0  0.61813  0.02633  0.03873  1.0000
  H   H386      1.0  0.54066  0.02172  0.07881  1.0000
  H   H387      1.0  0.36015  0.09822  0.25250  1.0000
  H   H388      1.0  0.56178  0.19013  0.04477  1.0000
  H   H389      1.0  0.44077  0.99413  0.07189  1.0000
  C   C329      1.0  0.32868  0.02723  0.13282  1.0000
  H   H390      1.0  0.51713  0.03040  0.10514  1.0000
  H   H391      1.0  0.47256  0.03653  0.03143  1.0000
  C   C330      1.0  0.34055  0.11098  0.16248  1.0000
  H   H392      1.0  0.53815  0.04917  0.09585  1.0000
  H   H393      1.0  0.45435  0.00484  0.00557  1.0000
  S   S92       1.0  0.63894  0.04312  0.02571  1.0000
  H   H394      1.0  0.52436  0.17670  0.04104  1.0000
  C   C331      1.0  0.64262  0.99366  0.28508  1.0000
  H   H395      1.0  0.33683  0.02328  0.10585  1.0000
  H   H396      1.0  0.54280  0.06207  0.02856  1.0000
  C   C332      1.0  0.48673  0.10800  0.00651  1.0000
  C   C333      1.0  0.33021  0.04790  0.14988  1.0000
  C   C334      1.0  0.58537  0.99889  0.06037  1.0000
  H   H397      1.0  0.54656  0.03456  0.01297  1.0000
  H   H398      1.0  0.47499  0.99440  0.10411  1.0000
  C   C335      1.0  0.51668  0.00250  0.02021  1.0000
  H   H399      1.0  0.65411  0.00428  0.10126  1.0000
  C   C336      1.0  0.55635  0.18086  0.01919  1.0000
  H   H400      1.0  0.35891  0.16179  0.01242  1.0000
  H   H401      1.0  0.32834  0.16569  0.05197  1.0000
  H   H402      1.0  0.34512  0.12930  0.03853  1.0000
  H   H403      1.0  0.44028  0.99517  0.12456  1.0000
  C   C337      1.0  0.32732  0.10908  0.24123  1.0000
  H   H404      1.0  0.65234  0.14731  0.21156  1.0000
  C   C338      1.0  0.65552  0.01200  0.28872  1.0000
  H   H405      1.0  0.64607  0.01480  0.14888  1.0000
  C   C339      1.0  0.47179  0.00415  0.00994  1.0000
  C   C340      1.0  0.59849  0.99306  0.02893  1.0000
  C   C341      1.0  0.33922  0.01222  0.92026  1.0000
  S   S93       1.0  0.37298  0.10811  0.92652  1.0000
  C   C342      1.0  0.38590  0.01445  0.90781  1.0000
  C   C343      1.0  0.54247  0.15607  0.95446  1.0000
  Fe  Fe47      1.0  0.63242  0.12011  0.99034  1.0000
  S   S94       1.0  0.61127  0.09177  0.97716  1.0000
  H   H406      1.0  0.53652  0.14575  0.93078  1.0000
  H   H407      1.0  0.37896  0.04098  0.84717  1.0000
  Fe  Fe48      1.0  0.38588  0.10104  0.98804  1.0000
  H   H408      1.0  0.34096  0.05305  0.85575  1.0000
  H   H409      1.0  0.58131  0.16056  0.86181  1.0000
  H   H410      1.0  0.51202  0.15484  0.98379  1.0000
  H   H411      1.0  0.59391  0.12745  0.90014  1.0000
  H   H412      1.0  0.63530  0.10741  0.88884  1.0000
  H   H413      1.0  0.58649  0.12689  0.95027  1.0000
  C   C344      1.0  0.64927  0.11505  0.87737  1.0000
  C   C345      1.0  0.34820  0.10224  0.90105  1.0000
  H   H414      1.0  0.33364  0.15622  0.91680  1.0000
  H   H415      1.0  0.34488  0.17508  0.97370  1.0000
  H   H416      1.0  0.37274  0.06471  0.87758  1.0000
  H   H417      1.0  0.61194  0.16084  0.90481  1.0000
  C   C346      1.0  0.33536  0.03978  0.87221  1.0000
  N   N23       1.0  0.57904  0.15696  0.92376  1.0000
  C   C347      1.0  0.34586  0.10779  0.86179  1.0000
  S   S95       1.0  0.41911  0.08577  0.99561  1.0000
  H   H418      1.0  0.56617  0.12487  0.91312  1.0000
  N   N24       1.0  0.37187  0.03426  0.90662  1.0000
  H   H419      1.0  0.34226  0.11646  0.99131  1.0000
  H   H420      1.0  0.35906  0.11546  0.84782  1.0000
  H   H421      1.0  0.60056  0.18402  0.93017  1.0000
  C   C348      1.0  0.33096  0.09223  0.91852  1.0000
  S   S96       1.0  0.65177  0.13894  0.94753  1.0000
  C   C349      1.0  0.50787  0.10415  0.99258  1.0000
  H   H422      1.0  0.36400  0.06140  0.94468  1.0000
  H   H423      1.0  0.50999  0.09657  0.96405  1.0000
  H   H424      1.0  0.38298  0.00467  0.93364  1.0000
  C   C350      1.0  0.37347  0.04592  0.94481  1.0000
  C   C351      1.0  0.34897  0.02855  0.89893  1.0000
  C   C352      1.0  0.58150  0.13306  0.92147  1.0000
  H   H425      1.0  0.40338  0.01840  0.91005  1.0000
  H   H426      1.0  0.55451  0.15666  0.87793  1.0000
  C   C353      1.0  0.57007  0.16444  0.88612  1.0000
  H   H427      1.0  0.39821  0.05160  0.88246  1.0000
  H   H428      1.0  0.38337  0.00390  0.88128  1.0000
  H   H429      1.0  0.64671  0.09856  0.82108  1.0000
  H   H430      1.0  0.34815  0.00353  0.94227  1.0000
  H   H431      1.0  0.56710  0.18227  0.88734  1.0000
  C   C354      1.0  0.60104  0.16603  0.92901  1.0000
  H   H432      1.0  0.60926  0.16024  0.95589  1.0000
  H   H433      1.0  0.39052  0.04980  0.95297  1.0000
  C   C355      1.0  0.38073  0.04840  0.87697  1.0000
  C   C356      1.0  0.56414  0.16331  0.95560  1.0000
  H   H434      1.0  0.36702  0.03628  0.96841  1.0000
  H   H435      1.0  0.32826  0.02939  0.60307  1.0000
  H   H436      1.0  0.33240  0.08752  0.94841  1.0000
  H   H437      1.0  0.65286  0.03730  0.94207  1.0000
  H   H438      1.0  0.47283  0.10349  0.98867  1.0000
  C   C357      1.0  0.65582  0.11002  0.83896  1.0000
  H   H439      1.0  0.62533  0.00198  0.99432  1.0000
  H   H440      1.0  0.35789  0.14882  0.96544  1.0000
  H   H441      1.0  0.52628  0.05117  0.98952  1.0000
  C   C358      1.0  0.52829  0.16112  0.98475  1.0000
  C   C359      1.0  0.57065  0.17604  0.98892  1.0000
  H   H442      1.0  0.58684  0.18204  0.99280  1.0000
  C   C360      1.0  0.34820  0.15901  0.98636  1.0000
  S   S97       1.0  0.55243  0.10469  0.99562  1.0000
  N   N25       1.0  0.32786  0.14828  0.99638  1.0000
  S   S98       1.0  0.60886  0.93763  0.03843  1.0000
  S   S99       1.0  0.56918  0.91934  0.08794  1.0000
  H   H443      1.0  0.64220  0.95890  0.27652  1.0000
  Fe  Fe49      1.0  0.34963  0.93568  0.00865  1.0000
  Fe  Fe50      1.0  0.60252  0.90781  0.07064  1.0000
  S   S100      1.0  0.63318  0.89734  0.10465  1.0000
  H   H444      1.0  0.48320  0.86946  0.05270  1.0000
  C   C361      1.0  0.65660  0.90969  0.23227  1.0000
  Fe  Fe51      1.0  0.35396  0.89809  0.06242  1.0000
  H   H445      1.0  0.63241  0.96075  0.18588  1.0000
  S   S101      1.0  0.34716  0.88658  0.12355  1.0000
  H   H446      1.0  0.64338  0.94670  0.12176  1.0000
  C   C362      1.0  0.50568  0.98428  0.00582  1.0000
  H   H447      1.0  0.33672  0.85141  0.05947  1.0000
  S   S102      1.0  0.37478  0.92687  0.05345  1.0000
  C   C363      1.0  0.43268  0.95173  0.06338  1.0000
  C   C364      1.0  0.47972  0.88349  0.03552  1.0000
  C   C365      1.0  0.48067  0.97781  0.10156  1.0000
  S   S103      1.0  0.56619  0.98096  0.07599  1.0000
  H   H448      1.0  0.33820  0.82416  0.03984  1.0000
  H   H449      1.0  0.46613  0.92477  0.09182  1.0000
  C   C366      1.0  0.35813  0.98624  0.01515  1.0000
  H   H450      1.0  0.44109  0.96103  0.16030  1.0000
  S   S104      1.0  0.33636  0.96941  0.00463  1.0000
  C   C367      1.0  0.49836  0.93594  0.09473  1.0000
  H   H451      1.0  0.50532  0.91970  0.09195  1.0000
  H   H452      1.0  0.51395  0.98799  0.10403  1.0000
  H   H453      1.0  0.62656  0.96617  0.09823  1.0000
  Fe  Fe52      1.0  0.57494  0.94786  0.05169  1.0000
  H   H454      1.0  0.59570  0.97825  0.01221  1.0000
  H   H455      1.0  0.43422  0.93384  0.06467  1.0000
  C   C368      1.0  0.64166  0.90256  0.15399  1.0000
  H   H456      1.0  0.61492  0.98019  0.16386  1.0000
  C   C369      1.0  0.62801  0.91235  0.18172  1.0000
  C   C370      1.0  0.65206  0.97323  0.27846  1.0000
  H   H457      1.0  0.61158  0.91682  0.17347  1.0000
  C   C371      1.0  0.48329  0.98510  0.00069  1.0000
  C   C372      1.0  0.37924  0.97886  0.00775  1.0000
  S   S105      1.0  0.32773  0.90875  0.02131  1.0000
  C   C373      1.0  0.43396  0.95330  0.13342  1.0000
  C   C374      1.0  0.50314  0.97443  0.10160  1.0000
  H   H458      1.0  0.62448  0.92276  0.24197  1.0000
  C   C375      1.0  0.64300  0.96353  0.11133  1.0000
  H   H459      1.0  0.44494  0.87969  0.03703  1.0000
  C   C376      1.0  0.63539  0.91572  0.22061  1.0000
  Fe  Fe53      1.0  0.55677  0.90454  0.03093  1.0000
  C   C377      1.0  0.47590  0.93907  0.09465  1.0000
  H   H460      1.0  0.33902  0.87918  0.20412  1.0000
  C   C378      1.0  0.45793  0.88926  0.02668  1.0000
  C   C379      1.0  0.39668  0.99252  0.01547  1.0000
  H   H461      1.0  0.44039  0.95650  0.03608  1.0000
  H   H462      1.0  0.41500  0.95520  0.06028  1.0000
  S   S106      1.0  0.52430  0.88707  0.03365  1.0000
  H   H463      1.0  0.43772  0.93563  0.13430  1.0000
  N   N26       1.0  0.44245  0.96295  0.09809  1.0000
  C   C380      1.0  0.63190  0.97733  0.17433  1.0000
  H   H464      1.0  0.63516  0.98890  0.19915  1.0000
  N   N27       1.0  0.64762  0.97987  0.14286  1.0000
  Fe  Fe54      1.0  0.39054  0.90744  0.00460  1.0000
  C   C381      1.0  0.46631  0.96013  0.09782  1.0000
  H   H465      1.0  0.63892  0.88394  0.02193  1.0000
  C   C382      1.0  0.51194  0.95358  0.09792  1.0000
  H   H466      1.0  0.52935  0.95108  0.09745  1.0000
  H   H467      1.0  0.41602  0.95513  0.13476  1.0000
  C   C383      1.0  0.33019  0.84026  0.03617  1.0000
  S   S107      1.0  0.37148  0.87751  0.01657  1.0000
  C   C384      1.0  0.49704  0.89551  0.02212  1.0000
  H   H468      1.0  0.41694  0.98748  0.09671  1.0000
  S   S108      1.0  0.59005  0.88998  0.01618  1.0000
  C   C385      1.0  0.45309  0.90699  0.00358  1.0000
  H   H469      1.0  0.65177  0.91875  0.03485  1.0000
  H   H470      1.0  0.65487  0.96431  0.08756  1.0000
  H   H471      1.0  0.33559  0.84657  0.00807  1.0000
  C   C386      1.0  0.43495  0.98594  0.09787  1.0000
  H   H472      1.0  0.41292  0.98702  0.00858  1.0000
  C   C387      1.0  0.49216  0.91359  0.99990  1.0000
  H   H473      1.0  0.33232  0.89424  0.80164  1.0000
  H   H474      1.0  0.65941  0.90602  0.65417  1.0000
  S   S109      1.0  0.61641  0.92911  0.93295  1.0000
  H   H475      1.0  0.64796  0.94632  0.88331  1.0000
  H   H476      1.0  0.34369  0.89089  0.87097  1.0000
  H   H477      1.0  0.38210  0.96278  0.99525  1.0000
  C   C388      1.0  0.63123  0.89446  0.88520  1.0000
  H   H478      1.0  0.62121  0.86195  0.65348  1.0000
  H   H479      1.0  0.61120  0.91093  0.80824  1.0000
  C   C389      1.0  0.64688  0.92926  0.87562  1.0000
  H   H480      1.0  0.61191  0.86578  0.70199  1.0000
  C   C390      1.0  0.64410  0.88547  0.85494  1.0000
  S   S110      1.0  0.36607  0.91847  0.95896  1.0000
  H   H481      1.0  0.64922  0.88309  0.62814  1.0000
  Fe  Fe55      1.0  0.34597  0.89036  0.97445  1.0000
  H   H482      1.0  0.62981  0.96031  0.73219  1.0000
  H   H483      1.0  0.63896  0.88797  0.97073  1.0000
  H   H484      1.0  0.61579  0.94951  0.79543  1.0000
  H   H485      1.0  0.62011  0.88443  0.89996  1.0000
  H   H486      1.0  0.60376  0.88474  0.66590  1.0000
  C   C391      1.0  0.63254  0.91647  0.89577  1.0000
  H   H487      1.0  0.62106  0.88297  0.75974  1.0000
  N   N28       1.0  0.63667  0.88793  0.68628  1.0000
  C   C392      1.0  0.63072  0.90515  0.71545  1.0000
  C   C393      1.0  0.61959  0.93732  0.77303  1.0000
  H   H488      1.0  0.63913  0.93344  0.68218  1.0000
  C   C394      1.0  0.61697  0.91554  0.78018  1.0000
  C   C395      1.0  0.62260  0.89965  0.75207  1.0000
  C   C396      1.0  0.62750  0.94334  0.73744  1.0000
  C   C397      1.0  0.61756  0.87453  0.67653  1.0000
  C   C398      1.0  0.63286  0.92759  0.70883  1.0000
  C   C399      1.0  0.47040  0.91912  0.99045  1.0000
  C   C400      1.0  0.64456  0.89636  0.64929  1.0000
  H   H489      1.0  0.65393  0.92480  0.98429  1.0000
  H   H490      1.0  0.51462  0.96938  0.99888  1.0000
  H   H491      1.0  0.63205  0.90656  0.63461  1.0000
  Fe  Fe56      1.0  0.59537  0.92078  0.98467  1.0000
  S   S111      1.0  0.56141  0.93400  0.99561  1.0000
  H   H492      1.0  0.64288  0.86846  0.84697  1.0000
  C   C401      1.0  0.64912  0.88222  0.99561  1.0000
  C   C402      1.0  0.32792  0.88546  0.86116  1.0000
  H   H493      1.0  0.65253  0.86457  0.99143  1.0000
  H   H494      1.0  0.47486  0.97092  0.98953  1.0000
  H   H495      1.0  0.46694  0.93271  0.97227  1.0000
  H   H496      1.0  0.64896  0.86531  0.72864  1.0000
  S   S112      1.0  0.42595  0.91492  0.99024  1.0000
  H   H497      1.0  0.50518  0.92300  0.98921  1.0000
  C   C403      1.0  0.65407  0.87384  0.70254  1.0000
  C   C404      1.0  0.65991  0.92024  0.84568  1.0000
  C   C405      1.0  0.65862  0.89825  0.83509  1.0000
  H   H498      1.0  0.65976  0.86124  0.68096  1.0000
  Fe  Fe57      1.0  0.89504  0.38761  0.06047  1.0000
  H   H499      1.0  0.68108  0.13118  0.25398  1.0000
  S   S113      1.0  0.90189  0.37604  0.12268  1.0000
  H   H500      1.0  0.67148  0.04995  0.32588  1.0000
  H   H501      1.0  0.95404  0.44184  0.01873  1.0000
  H   H502      1.0  0.81069  0.37579  0.15217  1.0000
  H   H503      1.0  0.83629  0.18057  0.43762  1.0000
  S   S114      1.0  0.91139  0.41866  0.04593  1.0000
  Fe  Fe58      1.0  0.87765  0.28895  0.29006  1.0000
  S   S115      1.0  0.90107  0.26070  0.28330  1.0000
  S   S116      1.0  0.86441  0.30547  0.23516  1.0000
  Fe  Fe59      1.0  0.87420  0.28163  0.37907  1.0000
  S   S117      1.0  0.89709  0.25326  0.37664  1.0000
  S   S118      1.0  0.85963  0.29071  0.43782  1.0000
  Fe  Fe60      1.0  0.91679  0.27377  0.33867  1.0000
  S   S119      1.0  0.95103  0.28309  0.35586  1.0000
  Fe  Fe61      1.0  0.87859  0.24319  0.32223  1.0000
  S   S120      1.0  0.86867  0.20792  0.31309  1.0000
  S   S121      1.0  0.89449  0.30299  0.34349  1.0000
  S   S122      1.0  0.85445  0.27057  0.32649  1.0000
  Fe  Fe62      1.0  0.72645  0.10509  0.29729  1.0000
  S   S123      1.0  0.76285  0.10552  0.29452  1.0000
  S   S124      1.0  0.70836  0.09195  0.24320  1.0000
  Fe  Fe63      1.0  0.72755  0.11533  0.38636  1.0000
  S   S125      1.0  0.76369  0.11685  0.38911  1.0000
  S   S126      1.0  0.70661  0.11459  0.43972  1.0000
  Fe  Fe64      1.0  0.76053  0.13553  0.33389  1.0000
  S   S127      1.0  0.77375  0.16917  0.32251  1.0000
  Fe  Fe65      1.0  0.76255  0.08696  0.34967  1.0000
  S   S128      1.0  0.77909  0.05578  0.36751  1.0000
  S   S129      1.0  0.72381  0.13589  0.33371  1.0000
  S   S130      1.0  0.72668  0.08469  0.34978  1.0000
  C   C406      1.0  0.84222  0.19749  0.31726  1.0000
  C   C407      1.0  0.83964  0.17495  0.31833  1.0000
  C   C408      1.0  0.81891  0.16597  0.32091  1.0000
  C   C409      1.0  0.80045  0.17945  0.32182  1.0000
  C   C410      1.0  0.80307  0.20199  0.32082  1.0000
  C   C411      1.0  0.82380  0.21099  0.31887  1.0000
  H   H504      1.0  0.85375  0.16432  0.31708  1.0000
  H   H505      1.0  0.81721  0.14861  0.32150  1.0000
  H   H506      1.0  0.78893  0.21259  0.32155  1.0000
  H   H507      1.0  0.82543  0.22834  0.31820  1.0000
  N   N29       1.0  0.92558  0.33502  0.44615  1.0000
  N   N30       1.0  0.74502  0.05330  0.47864  1.0000
  H   H508      1.0  0.74125  0.08047  0.44117  1.0000
  C   C412      1.0  0.74618  0.18221  0.21296  1.0000
  H   H509      1.0  0.94904  0.38707  0.03616  1.0000
  C   C413      1.0  0.70742  0.02547  0.32585  1.0000
  C   C414      1.0  0.97029  0.48783  0.06655  1.0000
  C   C415      1.0  0.87371  0.28444  0.48169  1.0000
  H   H510      1.0  0.70969  0.18877  0.25236  1.0000
  H   H511      1.0  0.90278  0.27257  0.45402  1.0000
  H   H512      1.0  0.72831  0.17415  0.28202  1.0000
  C   C416      1.0  0.76436  0.03177  0.30349  1.0000
  C   C417      1.0  0.77102  0.03170  0.34258  1.0000
  C   C418      1.0  0.77168  0.01207  0.36194  1.0000
  H   H513      1.0  0.76424  0.04672  0.28806  1.0000
  H   H514      1.0  0.77749  0.01171  0.39177  1.0000
  C   C419      1.0  0.68103  0.04993  0.29881  1.0000
  C   C420      1.0  0.97470  0.26816  0.34357  1.0000
  C   C421      1.0  0.97416  0.24985  0.31859  1.0000
  C   C422      1.0  0.73508  0.06384  0.44436  1.0000
  H   H515      1.0  0.95886  0.24430  0.30662  1.0000
  H   H516      1.0  0.69807  0.02374  0.35283  1.0000
  C   C423      1.0  0.93308  0.33792  0.40592  1.0000
  S   S131      1.0  0.86666  0.46297  0.03127  1.0000
  C   C424      1.0  0.67845  0.01025  0.28608  1.0000
  C   C425      1.0  0.98543  0.44629  0.04590  1.0000
  C   C426      1.0  0.89196  0.35513  0.15187  1.0000
  C   C427      1.0  0.90269  0.35078  0.18739  1.0000
  C   C428      1.0  0.89491  0.33528  0.21267  1.0000
  C   C429      1.0  0.87600  0.32407  0.20310  1.0000
  C   C430      1.0  0.86533  0.32828  0.16744  1.0000
  C   C431      1.0  0.87331  0.34354  0.14185  1.0000
  H   H517      1.0  0.91712  0.35958  0.19554  1.0000
  H   H518      1.0  0.90333  0.33234  0.23989  1.0000
  H   H519      1.0  0.85060  0.31989  0.15972  1.0000
  H   H520      1.0  0.86472  0.34677  0.11491  1.0000
  S   S132      1.0  0.90628  0.37029  0.00564  1.0000
  C   C432      1.0  0.75881  0.01228  0.28382  1.0000
  C   C433      1.0  0.83176  0.40299  0.14855  1.0000
  C   C434      1.0  0.74223  0.14542  0.23062  1.0000
  H   H521      1.0  0.87161  0.20112  0.39734  1.0000
  H   H522      1.0  0.87782  0.40931  0.20408  1.0000
  N   N31       1.0  0.85844  0.43390  0.14759  1.0000
  C   C435      1.0  0.86067  0.45042  0.17970  1.0000
  C   C436      1.0  0.87984  0.43005  0.12974  1.0000
  C   C437      1.0  0.84371  0.44319  0.11753  1.0000
  C   C438      1.0  0.85076  0.41339  0.16299  1.0000
  C   C439      1.0  0.86268  0.40297  0.19297  1.0000
  C   C440      1.0  0.95836  0.30962  0.45341  1.0000
  H   H523      1.0  0.89614  0.32435  0.47200  1.0000
  H   H524      1.0  0.87315  0.44575  0.20170  1.0000
  H   H525      1.0  0.86566  0.46628  0.16875  1.0000
  H   H526      1.0  0.84508  0.45305  0.19499  1.0000
  H   H527      1.0  0.88562  0.44462  0.11517  1.0000
  H   H528      1.0  0.87901  0.41667  0.10740  1.0000
  H   H529      1.0  0.89258  0.42517  0.15115  1.0000
  H   H530      1.0  0.82719  0.44644  0.12883  1.0000
  H   H531      1.0  0.84964  0.45889  0.10737  1.0000
  H   H532      1.0  0.84263  0.43239  0.09095  1.0000
  C   C441      1.0  0.73678  0.01589  0.45189  1.0000
  H   H533      1.0  0.88682  0.21237  0.43733  1.0000
  H   H534      1.0  0.70484  0.16095  0.26148  1.0000
  C   C442      1.0  0.69984  0.14090  0.13205  1.0000
  C   C443      1.0  0.71767  0.17268  0.25549  1.0000
  C   C444      1.0  0.95686  0.47362  0.04558  1.0000
  C   C445      1.0  0.68714  0.10384  0.21508  1.0000
  H   H535      1.0  0.94952  0.34490  0.40589  1.0000
  C   C446      1.0  0.71532  0.16270  0.18651  1.0000
  H   H536      1.0  0.84641  0.23396  0.40140  1.0000
  C   C447      1.0  0.76866  0.05092  0.47272  1.0000
  H   H537      1.0  0.75466  0.01230  0.25314  1.0000
  H   H538      1.0  0.89233  0.33553  0.42518  1.0000
  C   C448      1.0  0.71409  0.14298  0.16400  1.0000
  H   H539      1.0  0.75291  0.13958  0.20666  1.0000
  H   H540      1.0  0.75558  0.17766  0.18654  1.0000
  C   C449      1.0  0.70165  0.18009  0.17460  1.0000
  H   H541      1.0  0.73103  0.13228  0.23748  1.0000
  H   H542      1.0  0.90442  0.30914  0.42944  1.0000
  H   H543      1.0  0.75296  0.14798  0.25666  1.0000
  H   H544      1.0  0.73844  0.19832  0.20836  1.0000
  H   H545      1.0  0.71634  0.01670  0.25038  1.0000
  H   H546      1.0  0.67458  0.15602  0.09808  1.0000
  C   C450      1.0  0.89484  0.27592  0.48130  1.0000
  H   H547      1.0  0.92207  0.34889  0.38938  1.0000
  H   H548      1.0  0.86293  0.24391  0.44057  1.0000
  N   N32       1.0  0.85685  0.23110  0.19821  1.0000
  C   C451      1.0  0.84431  0.21090  0.19948  1.0000
  C   C452      1.0  0.87991  0.22530  0.20588  1.0000
  C   C453      1.0  0.84906  0.24583  0.23014  1.0000
  C   C454      1.0  0.85478  0.24215  0.16075  1.0000
  C   C455      1.0  0.84260  0.23370  0.12834  1.0000
  C   C456      1.0  0.86525  0.26208  0.15586  1.0000
  C   C457      1.0  0.84098  0.24473  0.09350  1.0000
  C   C458      1.0  0.86350  0.27295  0.12096  1.0000
  C   C459      1.0  0.85137  0.26431  0.08986  1.0000
  H   H549      1.0  0.84993  0.19857  0.17740  1.0000
  H   H550      1.0  0.84626  0.20322  0.22829  1.0000
  H   H551      1.0  0.82668  0.21417  0.19506  1.0000
  H   H552      1.0  0.88220  0.21708  0.23405  1.0000
  H   H553      1.0  0.89034  0.23972  0.20759  1.0000
  H   H554      1.0  0.88636  0.21424  0.18246  1.0000
  H   H555      1.0  0.83232  0.25195  0.22403  1.0000
  H   H556      1.0  0.84906  0.23769  0.25846  1.0000
  H   H557      1.0  0.85938  0.26018  0.23473  1.0000
  H   H558      1.0  0.83413  0.21865  0.12916  1.0000
  H   H559      1.0  0.87479  0.26959  0.17915  1.0000
  H   H560      1.0  0.83155  0.23809  0.06912  1.0000
  H   H561      1.0  0.84999  0.27288  0.06290  1.0000
  C   C460      1.0  0.66425  0.10229  0.15611  1.0000
  N   N33       1.0  0.85234  0.21110  0.44681  1.0000
  C   C461      1.0  0.87264  0.20217  0.42977  1.0000
  C   C462      1.0  0.83421  0.19793  0.43061  1.0000
  H   H562      1.0  0.69864  0.12555  0.11597  1.0000
  H   H563      1.0  0.77631  0.06687  0.46928  1.0000
  H   H564      1.0  0.83194  0.35887  0.20516  1.0000
  H   H565      1.0  0.67640  0.19091  0.13508  1.0000
  C   C463      1.0  0.68626  0.15810  0.12184  1.0000
  C   C464      1.0  0.67668  0.12322  0.22659  1.0000
  C   C465      1.0  0.96575  0.38695  0.02760  1.0000
  H   H566      1.0  0.74405  0.01949  0.42469  1.0000
  H   H567      1.0  0.71730  0.04514  0.26031  1.0000
  H   H568      1.0  0.87155  0.28825  0.11819  1.0000
  H   H569      1.0  0.67018  0.05399  0.27376  1.0000
  H   H570      1.0  0.83321  0.19831  0.39828  1.0000
  H   H571      1.0  0.75791  0.18433  0.23787  1.0000
  H   H572      1.0  0.73874  0.05496  0.41657  1.0000
  H   H573      1.0  0.71879  0.03904  0.33087  1.0000
  C   C466      1.0  0.72880  0.99508  0.45553  1.0000
  C   C467      1.0  0.68721  0.17768  0.14296  1.0000
  N   N34       1.0  0.73010  0.16553  0.22070  1.0000
  C   C468      1.0  0.70609  0.03127  0.25676  1.0000
  H   H574      1.0  0.72345  0.12865  0.17100  1.0000
  N   N35       1.0  0.69281  0.02901  0.29178  1.0000
  C   C469      1.0  0.96446  0.45291  0.03520  1.0000
  H   H575      1.0  0.81830  0.20414  0.44128  1.0000
  H   H576      1.0  0.94051  0.47861  0.03734  1.0000
  H   H577      1.0  0.87635  0.18560  0.44004  1.0000
  H   H578      1.0  0.83453  0.24148  0.44747  1.0000
  H   H579      1.0  0.71717  0.06536  0.44688  1.0000
  H   H580      1.0  0.69236  0.06365  0.30239  1.0000
  C   C470      1.0  0.98181  0.37930  0.05310  1.0000
  H   H581      1.0  0.94024  0.36381  0.47042  1.0000
  H   H582      1.0  0.74636  0.13509  0.46679  1.0000
  Fe  Fe66      1.0  0.88041  0.42872  0.01600  1.0000
  S   S133      1.0  0.86327  0.39843  0.03352  1.0000
  H   H583      1.0  0.86538  0.37575  0.23041  1.0000
  C   C471      1.0  0.92393  0.35680  0.46554  1.0000
  H   H584      1.0  0.93345  0.32229  0.38883  1.0000
  H   H585      1.0  0.82201  0.40924  0.12494  1.0000
  C   C472      1.0  0.68072  0.09337  0.17991  1.0000
  C   C473      1.0  0.90371  0.32569  0.44316  1.0000
  C   C474      1.0  0.82503  0.38365  0.16395  1.0000
  H   H586      1.0  0.71770  0.01062  0.32215  1.0000
  C   C475      1.0  0.83691  0.37411  0.19385  1.0000
  C   C476      1.0  0.84887  0.23351  0.43358  1.0000
  H   H587      1.0  0.70178  0.19561  0.18998  1.0000
  H   H588      1.0  0.68866  0.07834  0.17075  1.0000
  H   H589      1.0  0.69570  0.03420  0.23059  1.0000
  C   C477      1.0  0.85572  0.38372  0.20824  1.0000
  H   H590      1.0  0.96271  0.31065  0.42329  1.0000
  H   H591      1.0  0.91404  0.36825  0.44788  1.0000
  H   H592      1.0  0.68292  0.00832  0.14543  1.0000
  H   H593      1.0  0.97741  0.37364  0.08124  1.0000
  C   C478      1.0  0.87587  0.48947  0.02095  1.0000
  H   H594      1.0  0.77250  0.04114  0.44590  1.0000
  H   H595      1.0  0.91601  0.35647  0.49423  1.0000
  C   C479      1.0  0.94001  0.32074  0.46929  1.0000
  C   C480      1.0  0.97162  0.29629  0.47616  1.0000
  C   C481      1.0  0.71757  0.12044  0.48676  1.0000
  C   C482      1.0  0.73569  0.03165  0.48291  1.0000
  H   H596      1.0  0.99050  0.43005  0.03715  1.0000
  H   H597      1.0  0.71889  0.00142  0.17250  1.0000
  C   C483      1.0  0.73743  0.13062  0.49188  1.0000
  C   C484      1.0  0.85418  0.21122  0.48989  1.0000
  H   H598      1.0  0.77681  0.04283  0.49760  1.0000
  C   C485      1.0  0.99138  0.48140  0.07724  1.0000
  H   H599      1.0  0.98532  0.28775  0.46313  1.0000
  H   H600      1.0  0.88159  0.23293  0.49401  1.0000
  H   H601      1.0  0.99308  0.22477  0.28915  1.0000
  C   C486      1.0  0.66024  0.13222  0.20266  1.0000
  S   S134      1.0  0.88935  0.41380  0.95746  1.0000
  H   H602      1.0  0.69938  0.14245  0.83528  1.0000
  C   C487      1.0  0.87044  0.22346  0.50975  1.0000
  S   S135      1.0  0.85716  0.35731  0.94050  1.0000
  Fe  Fe67      1.0  0.88518  0.29006  0.73761  1.0000
  S   S136      1.0  0.89257  0.25905  0.76804  1.0000
  S   S137      1.0  0.87991  0.32328  0.76783  1.0000
  Fe  Fe68      1.0  0.90124  0.27107  0.65808  1.0000
  S   S138      1.0  0.91069  0.23958  0.68476  1.0000
  S   S139      1.0  0.91225  0.27329  0.59537  1.0000
  Fe  Fe69      1.0  0.87832  0.24240  0.71387  1.0000
  S   S140      1.0  0.85986  0.21109  0.70192  1.0000
  Fe  Fe70      1.0  0.92388  0.25897  0.73569  1.0000
  S   S141      1.0  0.95569  0.25863  0.76980  1.0000
  S   S142      1.0  0.86846  0.27357  0.68522  1.0000
  S   S143      1.0  0.91700  0.29024  0.70708  1.0000
  Fe  Fe71      1.0  0.75728  0.14212  0.74729  1.0000
  S   S144      1.0  0.72537  0.14990  0.71792  1.0000
  S   S145      1.0  0.77753  0.16894  0.77579  1.0000
  Fe  Fe72      1.0  0.75341  0.09351  0.72740  1.0000
  S   S146      1.0  0.72206  0.09812  0.69460  1.0000
  S   S147      1.0  0.77107  0.06142  0.73556  1.0000
  Fe  Fe73      1.0  0.73709  0.12726  0.66945  1.0000
  S   S148      1.0  0.74412  0.13888  0.60892  1.0000
  Fe  Fe74      1.0  0.71324  0.12013  0.74626  1.0000
  C   C488      1.0  0.81070  0.23520  0.66081  1.0000
  S   S149      1.0  0.76931  0.12078  0.69846  1.0000
  S   S150      1.0  0.74422  0.11422  0.77964  1.0000
  C   C489      1.0  0.73390  0.13039  0.56256  1.0000
  C   C490      1.0  0.74542  0.13577  0.52958  1.0000
  C   C491      1.0  0.71430  0.11966  0.55755  1.0000
  H   H603      1.0  0.76055  0.14414  0.53318  1.0000
  C   C492      1.0  0.89646  0.27688  0.55242  1.0000
  C   C493      1.0  0.67864  0.14009  0.88489  1.0000
  C   C494      1.0  0.87510  0.28479  0.55299  1.0000
  C   C495      1.0  0.75137  0.99902  0.74007  1.0000
  H   H604      1.0  0.86746  0.28844  0.58055  1.0000
  C   C496      1.0  0.83667  0.20013  0.72274  1.0000
  C   C497      1.0  0.82664  0.20974  0.75529  1.0000
  C   C498      1.0  0.80850  0.20004  0.77112  1.0000
  C   C499      1.0  0.80011  0.18081  0.75442  1.0000
  C   C500      1.0  0.81000  0.17137  0.72160  1.0000
  C   C501      1.0  0.82818  0.18098  0.70593  1.0000
  H   H605      1.0  0.83298  0.22449  0.76848  1.0000
  H   H606      1.0  0.80095  0.20746  0.79653  1.0000
  H   H607      1.0  0.80382  0.15654  0.70855  1.0000
  H   H608      1.0  0.83586  0.17343  0.68079  1.0000
  C   C502      1.0  0.74172  0.06823  0.51293  1.0000
  C   C503      1.0  0.72000  0.02121  0.72425  1.0000
  C   C504      1.0  0.73283  0.03966  0.72459  1.0000
  C   C505      1.0  0.75499  0.03803  0.73297  1.0000
  C   C506      1.0  0.76428  0.01758  0.74029  1.0000
  H   H609      1.0  0.78849  0.21927  0.69577  1.0000
  H   H610      1.0  0.70284  0.02274  0.71793  1.0000
  H   H611      1.0  0.72546  0.05517  0.71878  1.0000
  H   H612      1.0  0.78144  0.01613  0.74672  1.0000
  C   C507      1.0  0.77917  0.21567  0.63426  1.0000
  C   C508      1.0  0.69153  0.07189  0.88373  1.0000
  C   C509      1.0  0.97918  0.23244  0.71813  1.0000
  C   C510      1.0  0.97941  0.24590  0.75167  1.0000
  H   H613      1.0  0.72429  0.03606  0.54293  1.0000
  H   H614      1.0  0.72290  0.02944  0.85697  1.0000
  H   H615      1.0  0.66336  0.07330  0.96784  1.0000
  H   H616      1.0  0.96409  0.22945  0.70259  1.0000
  C   C511      1.0  0.68568  0.02227  0.81588  1.0000
  Fe  Fe75      1.0  0.87561  0.38265  0.97733  1.0000
  H   H617      1.0  0.95186  0.27170  0.64420  1.0000
  C   C512      1.0  0.66371  0.04688  0.92554  1.0000
  C   C513      1.0  0.86452  0.34746  0.89319  1.0000
  C   C514      1.0  0.87862  0.35865  0.87020  1.0000
  C   C515      1.0  0.88320  0.35092  0.83209  1.0000
  C   C516      1.0  0.87437  0.33153  0.81683  1.0000
  C   C517      1.0  0.86060  0.32007  0.84009  1.0000
  C   C518      1.0  0.85553  0.32814  0.87786  1.0000
  H   H618      1.0  0.88544  0.37366  0.88134  1.0000
  H   H619      1.0  0.89352  0.36016  0.81416  1.0000
  H   H620      1.0  0.85332  0.30538  0.82855  1.0000
  H   H621      1.0  0.84443  0.31946  0.89521  1.0000
  N   N36       1.0  0.69450  0.04340  0.82985  1.0000
  N   N37       1.0  0.92908  0.29731  0.86674  1.0000
  C   C519      1.0  0.93803  0.27498  0.86098  1.0000
  C   C520      1.0  0.90641  0.29542  0.87934  1.0000
  C   C521      1.0  0.92901  0.30770  0.82851  1.0000
  C   C522      1.0  0.94134  0.31067  0.89584  1.0000
  C   C523      1.0  0.93417  0.33210  0.90574  1.0000
  C   C524      1.0  0.96035  0.30298  0.91542  1.0000
  C   C525      1.0  0.94919  0.30416  0.53159  1.0000
  C   C526      1.0  0.97094  0.31582  0.94394  1.0000
  C   C527      1.0  0.99098  0.33662  0.82878  1.0000
  H   H622      1.0  0.93806  0.26594  0.88837  1.0000
  H   H623      1.0  0.92831  0.26541  0.83908  1.0000
  H   H624      1.0  0.95475  0.27499  0.84959  1.0000
  C   C528      1.0  0.79228  0.22301  0.66622  1.0000
  H   H625      1.0  0.89653  0.28575  0.85783  1.0000
  H   H626      1.0  0.89803  0.31138  0.88256  1.0000
  H   H627      1.0  0.83104  0.24981  0.61965  1.0000
  H   H628      1.0  0.91989  0.29808  0.80582  1.0000
  H   H629      1.0  0.68794  0.09559  0.93088  1.0000
  H   H630      1.0  0.74983  0.06205  0.53962  1.0000
  H   H631      1.0  0.96724  0.28706  0.90956  1.0000
  C   C529      1.0  0.97156  0.25600  0.60033  1.0000
  C   C530      1.0  0.98960  0.36060  0.88597  1.0000
  H   H632      1.0  0.96417  0.35830  0.84283  1.0000
  N   N38       1.0  0.75959  0.20300  0.64094  1.0000
  H   H633      1.0  0.92115  0.32402  0.82952  1.0000
  C   C531      1.0  0.67392  0.11985  0.82341  1.0000
  H   H634      1.0  0.77095  0.18756  0.69328  1.0000
  H   H635      1.0  0.93883  0.36091  0.94169  1.0000
  H   H636      1.0  0.95770  0.25167  0.58200  1.0000
  C   C532      1.0  0.99255  0.24992  0.58928  1.0000
  H   H637      1.0  0.69011  0.00909  0.83595  1.0000
  C   C533      1.0  0.98572  0.27281  0.65949  1.0000
  S   S151      1.0  0.68081  0.11385  0.77417  1.0000
  H   H638      1.0  0.72640  0.05636  0.84044  1.0000
  H   H639      1.0  0.82062  0.24041  0.68568  1.0000
  H   H640      1.0  0.69062  0.10712  0.51600  1.0000
  H   H641      1.0  0.84747  0.29524  0.51839  1.0000
  H   H642      1.0  0.74224  0.20932  0.58713  1.0000
  C   C534      1.0  0.81663  0.24047  0.62357  1.0000
  C   C535      1.0  0.86382  0.28865  0.51771  1.0000
  H   H643      1.0  0.72891  0.20748  0.66923  1.0000
  H   H644      1.0  0.97738  0.28328  0.53268  1.0000
  Fe  Fe76      1.0  0.91924  0.40214  0.98887  1.0000
  C   C536      1.0  0.96713  0.29368  0.51521  1.0000
  H   H645      1.0  0.72420  0.07107  0.51856  1.0000
  C   C537      1.0  0.68572  0.05129  0.86768  1.0000
  S   S152      1.0  0.95135  0.40476  0.96037  1.0000
  H   H646      1.0  0.69397  0.05323  0.77001  1.0000
  H   H647      1.0  0.88531  0.23316  0.56484  1.0000
  N   N39       1.0  0.82567  0.10630  0.76570  1.0000
  C   C538      1.0  0.82120  0.10070  0.72398  1.0000
  C   C539      1.0  0.83565  0.08717  0.78427  1.0000
  C   C540      1.0  0.80452  0.11090  0.78436  1.0000
  C   C541      1.0  0.84068  0.12467  0.76920  1.0000
  C   C542      1.0  0.83609  0.14388  0.79179  1.0000
  C   C543      1.0  0.86063  0.12372  0.74939  1.0000
  C   C544      1.0  0.85023  0.16126  0.79296  1.0000
  C   C545      1.0  0.87453  0.14131  0.75044  1.0000
  C   C546      1.0  0.86921  0.16012  0.77186  1.0000
  H   H648      1.0  0.80820  0.08853  0.72009  1.0000
  H   H649      1.0  0.81598  0.11532  0.70799  1.0000
  H   H650      1.0  0.83549  0.09346  0.70901  1.0000
  H   H651      1.0  0.85100  0.08184  0.77026  1.0000
  H   H652      1.0  0.82464  0.07307  0.78234  1.0000
  H   H653      1.0  0.83940  0.09075  0.81561  1.0000
  H   H654      1.0  0.79625  0.12532  0.77192  1.0000
  H   H655      1.0  0.79326  0.09713  0.78003  1.0000
  H   H656      1.0  0.80633  0.11373  0.81637  1.0000
  H   H657      1.0  0.82133  0.14629  0.80782  1.0000
  H   H658      1.0  0.86549  0.10948  0.73240  1.0000
  H   H659      1.0  0.84603  0.17605  0.80922  1.0000
  H   H660      1.0  0.88937  0.14052  0.73413  1.0000
  H   H661      1.0  0.87966  0.17400  0.77167  1.0000
  C   C547      1.0  0.84289  0.19947  0.55390  1.0000
  H   H662      1.0  0.75072  0.22117  0.69335  1.0000
  C   C548      1.0  0.72909  0.00088  0.73253  1.0000
  H   H663      1.0  0.92005  0.33925  0.89179  1.0000
  H   H664      1.0  0.73379  0.18581  0.61068  1.0000
  H   H665      1.0  0.90569  0.28771  0.90801  1.0000
  C   C549      1.0  0.68551  0.13466  0.84686  1.0000
  H   H666      1.0  0.72553  0.03411  0.80608  1.0000
  C   C550      1.0  0.71786  0.00444  0.52096  1.0000
  C   C551      1.0  0.80411  0.23364  0.59151  1.0000
  H   H667      1.0  0.69827  0.07469  0.80450  1.0000
  H   H668      1.0  0.83229  0.19014  0.57132  1.0000
  H   H669      1.0  0.82760  0.18929  0.50102  1.0000
  C   C552      1.0  0.68358  0.07965  0.91948  1.0000
  C   C553      1.0  0.96304  0.33652  0.95371  1.0000
  H   H670      1.0  0.73946  0.23153  0.64904  1.0000
  C   C554      1.0  0.78565  0.22136  0.59653  1.0000
  H   H671      1.0  0.98285  0.28110  0.68728  1.0000
  C   C555      1.0  0.71834  0.04075  0.83357  1.0000
  H   H672      1.0  0.70518  0.11564  0.58272  1.0000
  H   H673      1.0  0.92257  0.26594  0.51561  1.0000
  C   C556      1.0  0.68940  0.05936  0.79957  1.0000
  C   C557      1.0  0.70607  0.11492  0.51973  1.0000
  C   C558      1.0  0.90612  0.27224  0.51641  1.0000
  H   H674      1.0  0.68738  0.15205  0.90234  1.0000
  H   H675      1.0  0.86091  0.21189  0.60387  1.0000
  H   H676      1.0  0.94573  0.30936  0.81789  1.0000
  C   C559      1.0  0.85901  0.21170  0.57237  1.0000
  C   C560      1.0  0.67159  0.03890  0.88986  1.0000
  H   H677      1.0  0.94533  0.30160  0.56173  1.0000
  C   C561      1.0  0.99307  0.39433  0.98065  1.0000
  H   H678      1.0  0.70208  0.08232  0.86854  1.0000
  H   H679      1.0  0.90067  0.47905  0.98110  1.0000
  C   C562      1.0  0.97138  0.39458  0.99151  1.0000
  H   H680      1.0  0.77863  0.17380  0.64840  1.0000
  H   H681      1.0  0.77675  0.21655  0.57044  1.0000
  C   C563      1.0  0.76557  0.18352  0.66300  1.0000
  C   C564      1.0  0.87273  0.22368  0.55032  1.0000
  C   C565      1.0  0.74401  0.21641  0.66409  1.0000
  C   C566      1.0  0.96818  0.26738  0.63538  1.0000
  C   C567      1.0  0.93570  0.31735  0.50901  1.0000
  H   H682      1.0  0.75161  0.17271  0.66571  1.0000
  H   H683      1.0  0.92157  0.32449  0.52280  1.0000
  H   H684      1.0  0.80883  0.23785  0.56259  1.0000
  H   H685      1.0  0.75887  0.18467  0.58634  1.0000
  C   C568      1.0  0.74825  0.19554  0.60452  1.0000
  H   H686      1.0  0.69232  0.01690  0.78719  1.0000
  C   C569      1.0  0.84038  0.19917  0.51330  1.0000
  H   H687      1.0  0.66778  0.02321  0.81198  1.0000
  C   C570      1.0  0.94482  0.34469  0.93437  1.0000
  H   H688      1.0  0.98270  0.33112  0.80245  1.0000
  C   C571      1.0  0.66964  0.06720  0.94026  1.0000
  H   H689      1.0  0.97115  0.34636  0.97607  1.0000
  H   H690      1.0  0.98528  0.30966  0.95886  1.0000
  H   H691      1.0  0.71057  0.99983  0.54778  1.0000
  H   H692      1.0  0.67182  0.06367  0.79856  1.0000
  C   C572      1.0  0.72589  0.02529  0.51771  1.0000
  C   C573      1.0  0.89259  0.49284  0.99509  1.0000
  C   C574      1.0  0.66050  0.13037  0.90039  1.0000
  H   H693      1.0  0.74859  0.08446  0.50845  1.0000
  C   C575      1.0  0.98009  0.35235  0.85168  1.0000
  H   H694      1.0  0.98105  0.37283  0.90353  1.0000
  H   H695      1.0  0.66630  0.02303  0.88034  1.0000
  S   S153      1.0  0.90852  0.61416  0.05157  1.0000
  Fe  Fe77      1.0  0.87851  0.63510  0.06033  1.0000
  S   S154      1.0  0.86861  0.64353  0.12302  1.0000
  Fe  Fe78      1.0  0.86783  0.78483  0.33458  1.0000
  S   S155      1.0  0.84722  0.75625  0.31936  1.0000
  S   S156      1.0  0.85555  0.81995  0.33556  1.0000
  Fe  Fe79      1.0  0.90818  0.75588  0.34982  1.0000
  S   S157      1.0  0.88994  0.72547  0.33596  1.0000
  S   S158      1.0  0.94219  0.74823  0.37124  1.0000
  Fe  Fe80      1.0  0.87573  0.74297  0.28507  1.0000
  S   S159      1.0  0.87740  0.73345  0.22017  1.0000
  Fe  Fe81      1.0  0.86373  0.74166  0.37180  1.0000
  S   S160      1.0  0.84444  0.72465  0.41648  1.0000
  S   S161      1.0  0.89551  0.77281  0.29726  1.0000
  S   S162      1.0  0.88277  0.77085  0.38878  1.0000
  Fe  Fe82      1.0  0.72559  0.92116  0.38696  1.0000
  S   S163      1.0  0.75734  0.91948  0.35548  1.0000
  S   S164      1.0  0.72866  0.93235  0.45109  1.0000
  Fe  Fe83      1.0  0.69907  0.91297  0.30970  1.0000
  S   S165      1.0  0.72913  0.91040  0.27452  1.0000
  C   C576      1.0  0.76108  0.83634  0.40993  1.0000
  Fe  Fe84      1.0  0.74343  0.89055  0.32306  1.0000
  S   S166      1.0  0.75906  0.85705  0.31137  1.0000
  Fe  Fe85      1.0  0.74015  0.93950  0.31038  1.0000
  S   S167      1.0  0.75027  0.96899  0.27813  1.0000
  S   S168      1.0  0.71233  0.89119  0.35670  1.0000
  S   S169      1.0  0.70950  0.94303  0.34351  1.0000
  H   H696      1.0  0.77392  0.91211  0.48941  1.0000
  C   C577      1.0  0.66994  0.97656  0.15835  1.0000
  H   H697      1.0  0.95352  0.59027  0.06390  1.0000
  C   C578      1.0  0.75290  0.81557  0.41074  1.0000
  H   H698      1.0  0.76512  0.97779  0.35822  1.0000
  C   C579      1.0  0.82842  0.82981  0.33035  1.0000
  C   C580      1.0  0.81145  0.81624  0.31896  1.0000
  C   C581      1.0  0.79035  0.82486  0.31374  1.0000
  C   C582      1.0  0.78586  0.84711  0.32002  1.0000
  C   C583      1.0  0.80276  0.86065  0.33198  1.0000
  C   C584      1.0  0.82392  0.85202  0.33702  1.0000
  H   H699      1.0  0.81458  0.79918  0.31358  1.0000
  H   H700      1.0  0.77738  0.81427  0.30445  1.0000
  H   H701      1.0  0.79959  0.87779  0.33681  1.0000
  H   H702      1.0  0.83692  0.86269  0.34578  1.0000
  C   C585      1.0  0.66291  0.89667  0.16558  1.0000
  H   H703      1.0  0.83857  0.69114  0.46857  1.0000
  C   C586      1.0  0.84994  0.72373  0.46729  1.0000
  H   H704      1.0  0.67171  0.88640  0.06065  1.0000
  C   C587      1.0  0.71226  0.96924  0.18956  1.0000
  C   C588      1.0  0.98796  0.55285  0.02210  1.0000
  C   C589      1.0  0.80050  0.76952  0.45622  1.0000
  H   H705      1.0  0.71323  0.97319  0.49264  1.0000
  C   C590      1.0  0.67038  0.90030  0.20434  1.0000
  H   H706      1.0  0.80080  0.77404  0.35816  1.0000
  C   C591      1.0  0.96621  0.77501  0.32644  1.0000
  C   C592      1.0  0.96600  0.75711  0.35016  1.0000
  C   C593      1.0  0.75862  0.99280  0.30358  1.0000
  H   H707      1.0  0.95126  0.78358  0.31958  1.0000
  Fe  Fe86      1.0  0.91529  0.63754  0.00502  1.0000
  C   C594      1.0  0.87235  0.66841  0.15002  1.0000
  C   C595      1.0  0.87940  0.68708  0.13269  1.0000
  C   C596      1.0  0.88105  0.70671  0.15474  1.0000
  C   C597      1.0  0.87591  0.70794  0.19447  1.0000
  C   C598      1.0  0.86945  0.68915  0.21211  1.0000
  C   C599      1.0  0.86756  0.66957  0.18994  1.0000
  H   H708      1.0  0.88313  0.68650  0.10208  1.0000
  H   H709      1.0  0.88608  0.72109  0.14069  1.0000
  H   H710      1.0  0.86539  0.68976  0.24257  1.0000
  H   H711      1.0  0.86207  0.65526  0.20368  1.0000
  H   H712      1.0  0.75266  0.88384  0.45546  1.0000
  H   H713      1.0  0.78953  0.85561  0.41309  1.0000
  H   H714      1.0  0.97007  0.62429  0.11739  1.0000
  C   C600      1.0  0.69697  0.95308  0.19029  1.0000
  C   C601      1.0  0.91976  0.72657  0.46128  1.0000
  H   H715      1.0  0.98624  0.79645  0.29513  1.0000
  C   C602      1.0  0.98602  0.78231  0.31275  1.0000
  C   C603      1.0  0.68742  0.98921  0.27881  1.0000
  C   C604      1.0  0.85765  0.74140  0.49012  1.0000
  C   C605      1.0  0.79969  0.76572  0.38616  1.0000
  S   S170      1.0  0.66487  0.91403  0.28194  1.0000
  C   C606      1.0  0.96009  0.63941  0.06427  1.0000
  C   C607      1.0  0.78324  0.83940  0.41428  1.0000
  N   N40       1.0  0.94538  0.70988  0.23650  1.0000
  C   C608      1.0  0.92802  0.69498  0.24677  1.0000
  C   C609      1.0  0.94789  0.72595  0.26940  1.0000
  C   C610      1.0  0.93817  0.72183  0.20173  1.0000
  H   H716      1.0  0.75028  0.85007  0.40499  1.0000
  H   H717      1.0  0.73012  0.98312  0.43173  1.0000
  C   C611      1.0  0.82756  0.78603  0.41893  1.0000
  H   H718      1.0  0.67364  0.88901  0.14456  1.0000
  H   H719      1.0  0.89513  0.70407  0.47408  1.0000
  C   C612      1.0  0.75768  0.88184  0.48555  1.0000
  H   H720      1.0  0.93320  0.68485  0.27154  1.0000
  H   H721      1.0  0.91294  0.70399  0.25531  1.0000
  H   H722      1.0  0.92317  0.68393  0.22205  1.0000
  H   H723      1.0  0.95287  0.71802  0.29687  1.0000
  H   H724      1.0  0.93245  0.73489  0.27569  1.0000
  H   H725      1.0  0.95993  0.73844  0.26309  1.0000
  H   H726      1.0  0.93357  0.71078  0.17684  1.0000
  H   H727      1.0  0.92360  0.73221  0.20777  1.0000
  H   H728      1.0  0.95114  0.73246  0.19188  1.0000
  C   C613      1.0  0.96657  0.64597  0.02790  1.0000
  H   H729      1.0  0.96025  0.56343  0.07938  1.0000
  H   H730      1.0  0.68665  0.89540  0.21280  1.0000
  H   H731      1.0  0.94329  0.64071  0.07206  1.0000
  H   H732      1.0  0.94282  0.55037  0.01734  1.0000
  N   N41       1.0  0.84877  0.80593  0.21248  1.0000
  C   C614      1.0  0.87080  0.81324  0.22410  1.0000
  C   C615      1.0  0.84384  0.78736  0.23659  1.0000
  C   C616      1.0  0.84949  0.79829  0.17113  1.0000
  C   C617      1.0  0.83172  0.82294  0.21755  1.0000
  C   C618      1.0  0.80985  0.81846  0.20735  1.0000
  C   C619      1.0  0.83602  0.84401  0.23343  1.0000
  C   C620      1.0  0.79335  0.83401  0.21290  1.0000
  C   C621      1.0  0.81940  0.85950  0.23845  1.0000
  C   C622      1.0  0.79813  0.85449  0.22837  1.0000
  H   H733      1.0  0.87174  0.81813  0.25560  1.0000
  H   H734      1.0  0.88321  0.80007  0.21982  1.0000
  H   H735      1.0  0.87581  0.82704  0.20671  1.0000
  H   H736      1.0  0.84278  0.79265  0.26770  1.0000
  H   H737      1.0  0.85655  0.77440  0.23438  1.0000
  H   H738      1.0  0.82833  0.77963  0.22799  1.0000
  H   H739      1.0  0.83424  0.79052  0.16109  1.0000
  H   H740      1.0  0.85240  0.81196  0.15179  1.0000
  H   H741      1.0  0.86257  0.78584  0.16631  1.0000
  H   H742      1.0  0.80524  0.80271  0.19583  1.0000
  H   H743      1.0  0.85195  0.84879  0.24334  1.0000
  H   H744      1.0  0.77665  0.83007  0.20617  1.0000
  H   H745      1.0  0.82289  0.87526  0.25168  1.0000
  H   H746      1.0  0.78519  0.86627  0.23387  1.0000
  H   H747      1.0  0.70120  0.93777  0.20331  1.0000
  H   H748      1.0  0.68174  0.95518  0.27038  1.0000
  H   H749      1.0  0.81133  0.75493  0.45876  1.0000
  H   H750      1.0  0.70131  0.89549  0.46794  1.0000
  C   C623      1.0  0.86551  0.50778  0.03843  1.0000
  H   H751      1.0  0.85251  0.50551  0.05835  1.0000
  H   H752      1.0  0.83797  0.77116  0.41987  1.0000
  H   H753      1.0  0.83259  0.79637  0.44452  1.0000
  H   H754      1.0  0.98047  0.58375  0.07891  1.0000
  H   H755      1.0  0.96431  0.50396  0.07450  1.0000
  C   C624      1.0  0.98556  0.70119  0.24764  1.0000
  H   H756      1.0  0.94413  0.75041  0.45699  1.0000
  C   C625      1.0  0.93510  0.74084  0.47665  1.0000
  H   H757      1.0  0.95101  0.67728  0.18090  1.0000
  C   C626      1.0  0.97529  0.63046  0.09015  1.0000
  C   C627      1.0  0.79747  0.82165  0.41784  1.0000
  H   H758      1.0  0.86324  0.54285  0.04353  1.0000
  H   H759      1.0  0.74135  0.85184  0.49061  1.0000
  S   S171      1.0  0.85864  0.61456  0.01731  1.0000
  C   C628      1.0  0.66270  0.91758  0.00951  1.0000
  H   H760      1.0  0.80367  0.78031  0.48220  1.0000
  C   C629      1.0  0.98546  0.74618  0.35894  1.0000
  H   H761      1.0  0.91705  0.72504  0.43004  1.0000
  C   C630      1.0  0.96552  0.69738  0.22765  1.0000
  C   C631      1.0  0.67614  0.95663  0.17494  1.0000
  H   H762      1.0  0.75978  0.78194  0.41538  1.0000
  H   H763      1.0  0.83160  0.79430  0.39184  1.0000
  C   C632      1.0  0.96617  0.57717  0.06280  1.0000
  H   H764      1.0  0.98536  0.73212  0.37680  1.0000
  H   H765      1.0  0.68723  0.86925  0.02799  1.0000
  N   N42       1.0  0.80423  0.78084  0.41972  1.0000
  C   C633      1.0  0.88803  0.53243  0.00371  1.0000
  H   H766      1.0  0.81448  0.82525  0.41940  1.0000
  C   C634      1.0  0.68170  0.88626  0.03399  1.0000
  C   C635      1.0  0.78970  0.80015  0.41767  1.0000
  H   H767      1.0  0.98731  0.71343  0.27065  1.0000
  C   C636      1.0  0.71994  0.92111  0.49491  1.0000
  C   C637      1.0  0.70668  0.90305  0.49519  1.0000
  C   C638      1.0  0.87156  0.52906  0.03004  1.0000
  H   H768      1.0  0.72837  0.96644  0.20175  1.0000
  C   C639      1.0  0.76691  0.79772  0.41501  1.0000
  H   H769      1.0  0.73562  0.81330  0.40715  1.0000
  C   C640      1.0  0.76489  0.99278  0.34287  1.0000
  H   H770      1.0  0.86158  0.75622  0.47637  1.0000
  H   H771      1.0  0.81131  0.75171  0.38524  1.0000
  H   H772      1.0  0.78367  0.76375  0.45795  1.0000
  C   C641      1.0  0.90754  0.71468  0.48610  1.0000
  H   H773      1.0  0.69623  0.89597  0.04136  1.0000
  C   C642      1.0  0.84475  0.70478  0.48566  1.0000
  C   C643      1.0  0.96555  0.68096  0.19765  1.0000
  C   C644      1.0  0.67438  0.97110  0.27508  1.0000
  H   H774      1.0  0.66484  0.94364  0.17642  1.0000
  H   H775      1.0  0.78341  0.75857  0.38718  1.0000
  H   H776      1.0  0.99024  0.76976  0.47873  1.0000
  H   H777      1.0  0.67655  0.92803  0.01746  1.0000
  H   H778      1.0  0.99039  0.74090  0.46963  1.0000
  C   C645      1.0  0.71933  0.98939  0.48998  1.0000
  S   S172      1.0  0.88663  0.65945  0.01612  1.0000
  H   H779      1.0  0.70471  0.98644  0.27680  1.0000
  N   N43       1.0  0.97117  0.57028  0.02217  1.0000
  C   C646      1.0  0.98850  0.64549  0.01882  1.0000
  N   N44       1.0  0.66929  0.89478  0.00031  1.0000
  H   H780      1.0  0.98398  0.65641  0.16570  1.0000
  C   C647      1.0  0.98434  0.66896  0.18860  1.0000
  C   C648      1.0  0.70681  0.98898  0.17325  1.0000
  Fe  Fe87      1.0  0.88946  0.59523  0.00591  1.0000
  C   C649      1.0  0.98471  0.53204  0.00422  1.0000
  C   C650      1.0  0.68599  0.99271  0.15779  1.0000
  H   H781      1.0  0.93838  0.57756  0.00324  1.0000
  H   H782      1.0  0.96697  0.60247  0.00029  1.0000
  C   C651      1.0  0.95049  0.56393  0.00266  1.0000
  C   C652      1.0  0.97929  0.58908  0.00164  1.0000
  H   H783      1.0  0.66506  0.86888  0.93132  1.0000
  S   S173      1.0  0.67483  0.88589  0.79776  1.0000
  S   S174      1.0  0.84810  0.64945  0.92231  1.0000
  N   N45       1.0  0.82349  0.75807  0.83750  1.0000
  H   H784      1.0  0.83758  0.78695  0.86287  1.0000
  H   H785      1.0  0.84364  0.73777  0.80015  1.0000
  C   C653      1.0  0.80114  0.76735  0.83526  1.0000
  C   C654      1.0  0.83925  0.51106  0.95062  1.0000
  S   S175      1.0  0.89921  0.61724  0.95841  1.0000
  Fe  Fe88      1.0  0.86360  0.73707  0.65447  1.0000
  S   S176      1.0  0.86500  0.77325  0.65772  1.0000
  S   S177      1.0  0.85914  0.71593  0.59951  1.0000
  Fe  Fe89      1.0  0.87241  0.73286  0.74371  1.0000
  S   S178      1.0  0.87462  0.76909  0.75210  1.0000
  S   S179      1.0  0.88367  0.71278  0.79561  1.0000
  Fe  Fe90      1.0  0.84534  0.77123  0.71207  1.0000
  S   S180      1.0  0.81318  0.78840  0.72715  1.0000
  Fe  Fe91      1.0  0.89404  0.76764  0.69738  1.0000
  S   S181      1.0  0.92592  0.78404  0.68736  1.0000
  S   S182      1.0  0.84215  0.73481  0.70633  1.0000
  S   S183      1.0  0.89352  0.73155  0.69117  1.0000
  Fe  Fe92      1.0  0.70963  0.90602  0.67117  1.0000
  S   S184      1.0  0.73921  0.92546  0.68460  1.0000
  S   S185      1.0  0.69806  0.89398  0.61089  1.0000
  Fe  Fe93      1.0  0.69919  0.90189  0.75875  1.0000
  S   S186      1.0  0.72870  0.92047  0.77807  1.0000
  C   C655      1.0  0.97744  0.66310  0.89804  1.0000
  Fe  Fe94      1.0  0.71929  0.94312  0.73021  1.0000
  S   S187      1.0  0.71138  0.97910  0.73722  1.0000
  Fe  Fe95      1.0  0.74622  0.90097  0.73079  1.0000
  S   S188      1.0  0.78088  0.88743  0.73394  1.0000
  S   S189      1.0  0.68893  0.92531  0.71327  1.0000
  S   S190      1.0  0.71753  0.88073  0.71505  1.0000
  C   C656      1.0  0.70696  0.90456  0.56662  1.0000
  C   C657      1.0  0.72039  0.92247  0.56631  1.0000
  C   C658      1.0  0.70021  0.89487  0.53088  1.0000
  H   H786      1.0  0.72568  0.93015  0.59349  1.0000
  N   N46       1.0  0.92853  0.73447  0.58589  1.0000
  C   C659      1.0  0.85504  0.72052  0.54910  1.0000
  C   C660      1.0  0.70181  0.90636  0.96393  1.0000
  C   C661      1.0  0.84764  0.70306  0.52590  1.0000
  H   H787      1.0  0.86435  0.50504  0.90930  1.0000
  H   H788      1.0  0.84389  0.68803  0.53925  1.0000
  C   C662      1.0  0.80460  0.81606  0.72642  1.0000
  C   C663      1.0  0.78240  0.82117  0.72992  1.0000
  C   C664      1.0  0.77483  0.84287  0.73148  1.0000
  C   C665      1.0  0.78943  0.85978  0.73025  1.0000
  C   C666      1.0  0.81160  0.85468  0.72627  1.0000
  C   C667      1.0  0.81915  0.83296  0.72410  1.0000
  H   H789      1.0  0.77099  0.80825  0.73178  1.0000
  H   H790      1.0  0.75775  0.84648  0.73461  1.0000
  H   H791      1.0  0.82307  0.86762  0.72532  1.0000
  H   H792      1.0  0.83627  0.82933  0.72158  1.0000
  C   C668      1.0  0.97011  0.77701  0.69076  1.0000
  C   C669      1.0  0.94971  0.76965  0.70113  1.0000
  C   C670      1.0  0.94852  0.75068  0.72175  1.0000
  H   H793      1.0  0.97116  0.79176  0.67497  1.0000
  H   H794      1.0  0.93301  0.74503  0.73056  1.0000
  C   C671      1.0  0.82795  0.74537  0.87260  1.0000
  H   H795      1.0  0.68983  0.88101  0.53074  1.0000
  H   H796      1.0  0.86976  0.71758  0.91705  1.0000
  C   C672      1.0  0.95871  0.69071  0.86191  1.0000
  H   H797      1.0  0.86239  0.74000  0.86145  1.0000
  C   C673      1.0  0.85811  0.66671  0.88661  1.0000
  C   C674      1.0  0.87976  0.67286  0.88698  1.0000
  C   C675      1.0  0.88720  0.68666  0.85855  1.0000
  C   C676      1.0  0.87319  0.69459  0.82934  1.0000
  C   C677      1.0  0.85155  0.68831  0.82871  1.0000
  C   C678      1.0  0.84407  0.67447  0.85722  1.0000
  H   H798      1.0  0.89079  0.66705  0.90929  1.0000
  H   H799      1.0  0.90395  0.69136  0.85940  1.0000
  H   H800      1.0  0.84059  0.69409  0.80634  1.0000
  H   H801      1.0  0.82731  0.66982  0.85657  1.0000
  H   H802      1.0  0.78885  0.75448  0.83224  1.0000
  C   C679      1.0  0.85988  0.73991  0.53115  1.0000
  C   C680      1.0  0.82662  0.74376  0.80258  1.0000
  H   H803      1.0  0.80316  0.72160  0.94843  1.0000
  H   H804      1.0  0.96340  0.73235  0.58604  1.0000
  C   C681      1.0  0.82263  0.59150  0.93064  1.0000
  H   H805      1.0  0.94992  0.75505  0.52705  1.0000
  H   H806      1.0  0.70646  0.91710  0.98795  1.0000
  H   H807      1.0  0.75852  0.98343  0.74671  1.0000
  N   N47       1.0  0.77433  0.87567  0.60738  1.0000
  C   C682      1.0  0.78780  0.89341  0.62430  1.0000
  C   C683      1.0  0.75398  0.87568  0.62939  1.0000
  C   C684      1.0  0.78629  0.85497  0.61366  1.0000
  C   C685      1.0  0.76914  0.87791  0.56544  1.0000
  C   C686      1.0  0.77539  0.89603  0.54420  1.0000
  C   C687      1.0  0.75685  0.86193  0.54481  1.0000
  C   C688      1.0  0.71004  0.89187  0.89951  1.0000
  H   H808      1.0  0.84004  0.49472  0.96120  1.0000
  H   H809      1.0  0.68854  0.86784  0.87582  1.0000
  H   H810      1.0  0.79189  0.89097  0.65556  1.0000
  H   H811      1.0  0.80348  0.89435  0.60920  1.0000
  H   H812      1.0  0.77912  0.90935  0.62336  1.0000
  H   H813      1.0  0.75717  0.87483  0.66130  1.0000
  H   H814      1.0  0.74356  0.86181  0.62094  1.0000
  H   H815      1.0  0.74420  0.89064  0.62421  1.0000
  H   H816      1.0  0.80127  0.85388  0.59623  1.0000
  H   H817      1.0  0.79118  0.85328  0.64484  1.0000
  H   H818      1.0  0.77643  0.84060  0.60585  1.0000
  H   H819      1.0  0.78420  0.90934  0.55744  1.0000
  H   H820      1.0  0.75101  0.84803  0.55926  1.0000
  C   C689      1.0  0.82505  0.52638  0.96715  1.0000
  C   C690      1.0  0.68306  0.89355  0.96550  1.0000
  S   S191      1.0  0.94730  0.65170  0.99169  1.0000
  H   H821      1.0  0.81625  0.72928  0.80313  1.0000
  C   C691      1.0  0.95910  0.67606  0.89178  1.0000
  H   H822      1.0  0.83498  0.78663  0.81054  1.0000
  H   H823      1.0  0.85570  0.77093  0.83293  1.0000
  C   C692      1.0  0.95012  0.74269  0.59845  1.0000
  H   H824      1.0  0.81664  0.56909  0.86223  1.0000
  C   C693      1.0  0.83268  0.57647  0.86826  1.0000
  C   C694      1.0  0.81143  0.73956  0.89827  1.0000
  C   C695      1.0  0.83858  0.77639  0.83608  1.0000
  H   H825      1.0  0.96953  0.52757  0.99042  1.0000
  C   C696      1.0  0.81601  0.72625  0.92962  1.0000
  H   H826      1.0  0.79756  0.77799  0.86118  1.0000
  H   H827      1.0  0.97572  0.70441  0.81601  1.0000
  C   C697      1.0  0.98785  0.74660  0.72220  1.0000
  H   H828      1.0  0.72885  0.91597  0.93019  1.0000
  H   H829      1.0  0.71993  0.89158  0.87379  1.0000
  C   C698      1.0  0.98918  0.76552  0.70127  1.0000
  H   H830      1.0  0.82335  0.60827  0.91979  1.0000
  H   H831      1.0  0.81325  0.55870  0.96894  1.0000
  Fe  Fe96      1.0  0.86978  0.63755  0.97217  1.0000
  C   C699      1.0  0.71491  0.90567  0.93119  1.0000
  H   H832      1.0  0.95227  0.74301  0.63074  1.0000
  C   C700      1.0  0.91061  0.71696  0.52641  1.0000
  H   H833      1.0  0.95232  0.75978  0.59062  1.0000
  H   H834      1.0  0.91124  0.51639  0.96596  1.0000
  H   H835      1.0  0.86556  0.75357  0.54863  1.0000
  H   H836      1.0  0.86361  0.54187  0.88593  1.0000
  H   H837      1.0  0.79870  0.77744  0.80914  1.0000
  C   C701      1.0  0.86004  0.58560  0.91658  1.0000
  H   H838      1.0  0.81478  0.52180  0.99054  1.0000
  C   C702      1.0  0.85241  0.53807  0.90828  1.0000
  H   H839      1.0  0.86512  0.58479  0.94767  1.0000
  C   C703      1.0  0.85294  0.51690  0.92132  1.0000
  C   C704      1.0  0.75124  0.86392  0.50547  1.0000
  H   H840      1.0  0.83206  0.59322  0.85716  1.0000
  H   H841      1.0  0.84480  0.56727  0.85051  1.0000
  C   C705      1.0  0.84913  0.73715  0.88054  1.0000
  C   C706      1.0  0.85353  0.72406  0.91217  1.0000
  C   C707      1.0  0.83698  0.71842  0.93641  1.0000
  C   C708      1.0  0.96746  0.73920  0.73209  1.0000
  H   H842      1.0  0.82251  0.75234  0.77545  1.0000
  H   H843      1.0  0.79479  0.74473  0.89436  1.0000
  H   H844      1.0  0.90793  0.70921  0.60598  1.0000
  H   H845      1.0  0.86055  0.60286  0.90829  1.0000
  C   C709      1.0  0.67886  0.87929  0.93300  1.0000
  H   H846      1.0  0.91350  0.76617  0.58345  1.0000
  C   C710      1.0  0.72675  0.93071  0.53069  1.0000
  C   C711      1.0  0.82441  0.54763  0.95441  1.0000
  C   C712      1.0  0.92639  0.73104  0.54315  1.0000
  H   H847      1.0  0.91305  0.75431  0.63008  1.0000
  C   C713      1.0  0.92517  0.71413  0.60667  1.0000
  H   H848      1.0  0.92938  0.71588  0.63827  1.0000
  H   H849      1.0  0.93518  0.70054  0.59419  1.0000
  H   H850      1.0  0.95270  0.55932  0.97142  1.0000
  H   H851      1.0  0.73710  0.94460  0.53087  1.0000
  H   H852      1.0  0.96627  0.72464  0.74837  1.0000
  S   S192      1.0  0.89599  0.55888  0.99046  1.0000
  C   C714      1.0  0.83814  0.55414  0.92443  1.0000
  H   H853      1.0  0.80565  0.58621  0.92611  1.0000
  N   N48       1.0  0.83820  0.57654  0.91043  1.0000
  H   H854      1.0  0.98379  0.58446  0.97127  1.0000
  H   H855      1.0  0.89527  0.74474  0.59199  1.0000
  C   C715      1.0  0.91187  0.75062  0.59834  1.0000
  C   C716      1.0  0.97667  0.69244  0.83821  1.0000
  H   H856      1.0  0.97767  0.65196  0.92174  1.0000
  H   H857      1.0  0.82633  0.59295  0.96242  1.0000
  H   H858      1.0  0.89994  0.70803  0.54412  1.0000
  H   H859      1.0  0.84040  0.70761  0.96004  1.0000
  H   H860      1.0  0.87264  0.57675  0.89945  1.0000
  C   C717      1.0  0.69229  0.87848  0.90073  1.0000
  C   C718      1.0  0.89854  0.51412  0.98651  1.0000
  H   H861      1.0  0.94445  0.70089  0.85724  1.0000
  H   H862      1.0  0.94525  0.67483  0.91044  1.0000
  H   H863      1.0  0.66834  0.88348  0.71183  1.0000
  C   C719      1.0  0.76972  0.89781  0.50484  1.0000
  C   C720      1.0  0.93835  0.74323  0.51696  1.0000
  H   H864      1.0  0.67090  0.93032  0.83070  1.0000
