data_image0
_chemical_formula_structural       FeS2FeSCFeHFeS3FeS2FeS2FeSFeS3FeS2FeS2FeSFeS3CHCH2CHCSHC6H6CH2CHCNH2C4HCH3C6H4C2H2CH4C2H5CHCHC2HC4H2C2HCH3C2HCH4CHNCH2C2H4CHCHNC6HC2H10C3HC2H2C3HCHCH3C2HCH3CH2CHCHCHCH3C2H2SHNHNC4H3CHC2H2CH2CH3C2HCHC2H3CNHCHCHCFeS2FeS2FeHFeS3FeS2FeS2FeSFeS3FeS2FeS2FeSFeS3C3H2C2HNHC2H3CHCH2C6H5C4HCH3C6H4C2H4CHCNHC3H3CH2C5H3C2H3NH5CH6CNHC2H3CHC2HCNC9H16C3H2CH5CHC2HCH3C2HC2H2CH2SNH4CH2C2H2CHCH2CFeS2FeSHFeSFeS3FeS2FeS2FeSFeS3FeS2FeS2FeCFeS3C6H2SHC6H2CHC6H5CH4C3HC6H5C2H4C6H3NC8H13CHNC7H9CHNC7HCH12CH2CHCNHCHCHC2H2CH2C2H4C2H2CHCH2CH2C4SCH2CHC2HCHCH2NH3CHC2HC3H2CH7C2H6C2H2C2HC2H2C2HCHC3HC2HCHC2H3C2FeS2FeS2FeSFeS3FeS2FeS2FeSFeS3FeS2FeS2FeHFeS3C2HC5H2C4HC2HCHCH4CH4C6H4C6H5CHNH2CHC6H3CHC2H2CH2CH2NCHCHCH2C2H2NC9H15C2HNCH4C4H3CHC2H2CNC7HCH8CH2C4H5CH3C2H2C3H2CSHCH5C4H2NH2C2H2CH2CHCH2C2FeS2FeSCFeCFeS3FeS2FeS2FeSFeS3CHC5HC6H5CH3NHCH3NH3CH7C2HC2HC4NCH5CH2CH2SCH2CH2CHC3HC2H7CH5C3HSHC4H3C2HCH2FeH2FeS2FeHFeS3FeS2FeS2FeSFeCS2C2H4C6H5CHCHCH4C5HC3H2CHCH4CH8C2NCHSH5CHCNC2HSCHCSC2HCH3CH2NC2HCH2C2H2FeS2FeS2FeSFeS2FeS2FeS2FeSFeS3C2H2CH2CHCH4CHC4H3SC6H5CH2C5HNC2H2CHCH2CHCH4CH2NH2CHCH2CH2CHNH7C3HCH2C2HC2HC2H3N2H4C2HNHCHCH6C2HFeS2FeS2FeSFeS2FeS2FeS2FeSFeS3CHC2HC5H3C6H4C6H4C3HC4H5C2HC2N2H2C3H2CH4C3HCH2C3HCHC3H5CHCH3C2HC2H5CH7C2HNHCH3CHSH3CHC2H2CHC4H3CH2CHC2HCH3C7H2CHFeS2FeS2FeSFeS3FeS2FeS2FeSFeCS2FeS2FeS2FeSFeS3C6H5CH5NHCH4CH2C2HC3H2C6H6C5HCHCHC2NH4C2HC2H3C4H4CHSHCNC2H2C3NH2C3H3C5H2C2HCH2CHCH3C2NC9H20C4HCNC4HCH2C2HCH3CH7C3H4C2H3CFeS2FeS2FeSFeS3FeS2FeS2FeSFeS3FeS2FeS2FeSFeS3C2H2C5HC6H5CH2CH2C2HC3H2C6H4NCH3CHC2HC2HCH6C2H3C2HNC9H14NCHC2HCH2C2H3C2H4C6H2CHNH2NH5CHC2HNH2C2HCSCHC2HC2H2C4HC2H2CHCH2C2H2NHC2H2C3H4CH7C3H3C3H2CH4CHNH3CH2C2HC2H3C4H4C4HCHCHFeS2FeS2FeSFeS3HFeS2FeS2FeSFeS3FeS2FeS2FeSFeS3C2HCHC6H6C2HC3H2C6H4C2H2C2H2CH2C3H2C3H2C3H2CHCH2CH2CHC3H3C2HNC9H14CH2CHCHCH10C3H3CH3CH3CH3CNC7HC2H2NC3H2C2HC2H7NHC2H3NH3C3H3CH2CH4CHCH3CNH2C2FeS2FeS2FeSFeS4FeS2FeS2FeSFeS3FeSHFeS2FeSFeS3H2CH2C2HCHCH4C6H5C6H4CH2CHC4HCH4C3H2NC9H15CHCH8C2H2CH2CHCH2CH4C2HCNHC2H2C4HC2H2C2NH2CH3N2H2CH6CHC2HCHCHNCH2CHCH
_chemical_formula_sum              "Fe128 S256 C960 H1152 N64"
_cell_length_a       67.4156
_cell_length_b       67.3576
_cell_length_c       42.6759
_cell_angle_alpha    89.9072
_cell_angle_beta     89.8608
_cell_angle_gamma    84.2121

_space_group_name_H-M_alt    "P 1"
_space_group_IT_number       1

loop_
  _space_group_symop_operation_xyz
  'x, y, z'

loop_
  _atom_site_type_symbol
  _atom_site_label
  _atom_site_symmetry_multiplicity
  _atom_site_fract_x
  _atom_site_fract_y
  _atom_site_fract_z
  _atom_site_occupancy
  Fe  Fe1       1.0  0.25892  0.06956  0.10269  1.0000
  S   S1        1.0  0.23292  0.06694  0.13531  1.0000
  S   S2        1.0  0.25089  0.06249  0.05227  1.0000
  Fe  Fe2       1.0  0.28751  0.07625  0.15815  1.0000
  S   S3        1.0  0.26314  0.07423  0.19333  1.0000
  C   C1        1.0  0.27424  0.08431  0.01402  1.0000
  Fe  Fe3       1.0  0.25506  0.04781  0.16494  1.0000
  H   H1        1.0  0.04099  0.30502  0.14655  1.0000
  Fe  Fe4       1.0  0.24327  0.09364  0.16014  1.0000
  S   S4        1.0  0.22747  0.12443  0.17388  1.0000
  S   S5        1.0  0.28037  0.04917  0.13114  1.0000
  S   S6        1.0  0.26838  0.09697  0.12594  1.0000
  Fe  Fe5       1.0  0.11217  0.40841  0.31718  1.0000
  S   S7        1.0  0.08272  0.41733  0.33981  1.0000
  S   S8        1.0  0.12925  0.43390  0.30050  1.0000
  Fe  Fe6       1.0  0.10632  0.36359  0.31743  1.0000
  S   S9        1.0  0.07652  0.37008  0.34103  1.0000
  S   S10       1.0  0.11262  0.32979  0.30907  1.0000
  Fe  Fe7       1.0  0.07131  0.39527  0.30721  1.0000
  S   S11       1.0  0.04102  0.39892  0.28530  1.0000
  Fe  Fe8       1.0  0.09058  0.39137  0.37217  1.0000
  S   S12       1.0  0.07879  0.39735  0.42170  1.0000
  S   S13       1.0  0.10000  0.38789  0.28150  1.0000
  S   S14       1.0  0.12118  0.38346  0.35161  1.0000
  Fe  Fe9       1.0  0.11863  0.22626  0.09984  1.0000
  S   S15       1.0  0.10201  0.20233  0.12119  1.0000
  S   S16       1.0  0.13010  0.22009  0.05002  1.0000
  Fe  Fe10      1.0  0.12054  0.24810  0.16399  1.0000
  S   S17       1.0  0.10501  0.22457  0.18910  1.0000
  S   S18       1.0  0.12780  0.27864  0.18263  1.0000
  Fe  Fe11      1.0  0.12481  0.20199  0.16007  1.0000
  S   S19       1.0  0.13875  0.17011  0.17221  1.0000
  Fe  Fe12      1.0  0.08395  0.22674  0.14785  1.0000
  S   S20       1.0  0.05057  0.23717  0.15201  1.0000
  S   S21       1.0  0.14177  0.22547  0.13803  1.0000
  S   S22       1.0  0.09912  0.25077  0.12338  1.0000
  C   C2        1.0  0.02902  0.22408  0.15304  1.0000
  H   H2        1.0  0.08331  0.46696  0.32436  1.0000
  C   C3        1.0  0.02997  0.20334  0.15622  1.0000
  H   H3        1.0  0.01315  0.17781  0.16092  1.0000
  H   H4        1.0  0.04434  0.19463  0.15775  1.0000
  C   C4        1.0  0.02561  0.39244  0.31576  1.0000
  H   H5        1.0  0.31994  0.12696  0.20576  1.0000
  C   C5        1.0  0.02918  0.39877  0.34622  1.0000
  S   S23       1.0  0.25563  0.01693  0.18751  1.0000
  H   H6        1.0  0.04123  0.40779  0.35080  1.0000
  C   C6        1.0  0.11717  0.31584  0.27371  1.0000
  C   C7        1.0  0.12262  0.32465  0.24565  1.0000
  C   C8        1.0  0.12628  0.31292  0.21838  1.0000
  C   C9        1.0  0.12416  0.29230  0.21847  1.0000
  C   C10       1.0  0.11866  0.28350  0.24653  1.0000
  C   C11       1.0  0.11534  0.29517  0.27393  1.0000
  H   H7        1.0  0.12427  0.34046  0.24503  1.0000
  H   H8        1.0  0.13063  0.31993  0.19696  1.0000
  H   H9        1.0  0.11714  0.26767  0.24719  1.0000
  H   H10       1.0  0.11133  0.28811  0.29551  1.0000
  H   H11       1.0  0.05211  0.45536  0.32470  1.0000
  H   H12       1.0  0.02390  0.39035  0.47396  1.0000
  C   C12       1.0  0.25635  0.00602  0.03569  1.0000
  H   H13       1.0  0.32749  0.08218  0.28657  1.0000
  H   H14       1.0  0.10027  0.25301  0.03222  1.0000
  C   C13       1.0  0.08820  0.38746  0.45769  1.0000
  H   H15       1.0  0.13637  0.13968  0.07592  1.0000
  C   C14       1.0  0.10501  0.37353  0.45935  1.0000
  N   N1        1.0  0.06311  0.29723  0.18220  1.0000
  H   H16       1.0  0.11278  0.36857  0.43811  1.0000
  H   H17       1.0  0.16477  0.17409  0.03002  1.0000
  C   C15       1.0  0.12083  0.47864  0.36516  1.0000
  C   C16       1.0  0.12144  0.45978  0.35068  1.0000
  C   C17       1.0  0.12767  0.45742  0.31947  1.0000
  C   C18       1.0  0.13282  0.47418  0.30277  1.0000
  H   H18       1.0  0.15528  0.46559  0.45900  1.0000
  C   C19       1.0  0.32397  0.08031  0.23629  1.0000
  H   H19       1.0  0.11754  0.44697  0.36380  1.0000
  H   H20       1.0  0.13779  0.47246  0.27871  1.0000
  H   H21       1.0  0.22220  0.10785  0.08235  1.0000
  C   C20       1.0  0.16364  0.15779  0.17192  1.0000
  C   C21       1.0  0.18056  0.16816  0.17450  1.0000
  C   C22       1.0  0.19984  0.15769  0.17499  1.0000
  C   C23       1.0  0.20264  0.13673  0.17216  1.0000
  C   C24       1.0  0.18577  0.12639  0.16885  1.0000
  C   C25       1.0  0.16646  0.13682  0.16919  1.0000
  H   H22       1.0  0.17876  0.18424  0.17685  1.0000
  H   H23       1.0  0.21269  0.16594  0.17766  1.0000
  H   H24       1.0  0.18754  0.11031  0.16680  1.0000
  H   H25       1.0  0.15356  0.12854  0.16740  1.0000
  C   C26       1.0  0.11185  0.36608  0.48870  1.0000
  C   C27       1.0  0.25441  0.01064  0.09128  1.0000
  H   H26       1.0  0.16323  0.12456  0.04879  1.0000
  H   H27       1.0  0.08340  0.32374  0.41980  1.0000
  C   C28       1.0  0.07831  0.39382  0.48548  1.0000
  H   H28       1.0  0.14411  0.14780  0.11356  1.0000
  H   H29       1.0  0.05004  0.36735  0.44039  1.0000
  H   H30       1.0  0.08495  0.29291  0.14500  1.0000
  H   H31       1.0  0.26264  0.12165  0.26392  1.0000
  C   C29       1.0  0.10590  0.24543  0.01120  1.0000
  C   C30       1.0  0.04559  0.48808  0.32508  1.0000
  H   H32       1.0  0.27951  0.09088  0.03516  1.0000
  H   H33       1.0  0.29184  0.11242  0.19015  1.0000
  H   H34       1.0  0.12027  0.40733  0.48955  1.0000
  H   H35       1.0  0.07856  0.34477  0.44492  1.0000
  H   H36       1.0  0.08508  0.31285  0.22825  1.0000
  C   C31       1.0  0.04091  0.31968  0.32081  1.0000
  H   H37       1.0  0.02050  0.44816  0.34652  1.0000
  C   C32       1.0  0.00854  0.47066  0.26482  1.0000
  H   H38       1.0  0.24046  0.00319  0.09298  1.0000
  C   C33       1.0  0.03640  0.32225  0.20642  1.0000
  C   C34       1.0  0.07098  0.27868  0.19867  1.0000
  H   H39       1.0  0.02492  0.31816  0.19082  1.0000
  C   C35       1.0  0.03009  0.33395  0.37075  1.0000
  C   C36       1.0  0.07590  0.33921  0.42087  1.0000
  C   C37       1.0  0.06985  0.31942  0.22747  1.0000
  C   C38       1.0  0.26060  0.07004  0.01601  1.0000
  H   H40       1.0  0.07575  0.26645  0.18189  1.0000
  H   H41       1.0  0.09261  0.48035  0.29237  1.0000
  C   C39       1.0  0.00090  0.45234  0.26957  1.0000
  C   C40       1.0  0.02567  0.32754  0.34065  1.0000
  H   H42       1.0  0.07238  0.46585  0.28582  1.0000
  C   C41       1.0  0.01225  0.19385  0.15803  1.0000
  H   H43       1.0  0.01573  0.34480  0.22807  1.0000
  H   H44       1.0  0.03748  0.31486  0.29742  1.0000
  H   H45       1.0  0.08356  0.34887  0.40449  1.0000
  C   C42       1.0  0.05627  0.31284  0.20538  1.0000
  C   C43       1.0  0.06426  0.33483  0.24856  1.0000
  H   H46       1.0  0.07409  0.31830  0.15006  1.0000
  C   C44       1.0  0.04514  0.32733  0.43722  1.0000
  H   H47       1.0  0.07256  0.31246  0.31533  1.0000
  H   H48       1.0  0.29145  0.13855  0.17980  1.0000
  H   H49       1.0  0.05957  0.27318  0.21443  1.0000
  H   H50       1.0  0.23481  0.14850  0.03668  1.0000
  C   C45       1.0  0.14769  0.45285  0.46610  1.0000
  H   H51       1.0  0.01107  0.43911  0.26574  1.0000
  N   N2        1.0  0.05426  0.33991  0.41377  1.0000
  C   C46       1.0  0.04557  0.36089  0.41778  1.0000
  H   H52       1.0  0.02901  0.36250  0.41749  1.0000
  H   H53       1.0  0.27575  0.16442  0.21652  1.0000
  C   C47       1.0  0.02326  0.46359  0.34284  1.0000
  C   C48       1.0  0.23377  0.12351  0.00566  1.0000
  H   H54       1.0  0.02864  0.32825  0.43484  1.0000
  H   H55       1.0  0.05102  0.31136  0.43461  1.0000
  H   H56       1.0  0.25445  0.11547  0.22600  1.0000
  H   H57       1.0  0.01773  0.34000  0.38518  1.0000
  C   C49       1.0  0.07868  0.47584  0.30311  1.0000
  H   H58       1.0  0.00931  0.25121  0.14880  1.0000
  C   C50       1.0  0.05002  0.33286  0.38183  1.0000
  H   H59       1.0  0.22130  0.00920  0.14840  1.0000
  N   N3        1.0  0.15744  0.16198  0.07477  1.0000
  C   C51       1.0  0.15242  0.16712  0.04171  1.0000
  C   C52       1.0  0.14050  0.15280  0.08918  1.0000
  C   C53       1.0  0.15942  0.18098  0.09155  1.0000
  C   C54       1.0  0.17566  0.14771  0.07607  1.0000
  C   C55       1.0  0.17603  0.12874  0.06142  1.0000
  C   C56       1.0  0.19321  0.15181  0.09226  1.0000
  H   H60       1.0  0.23839  0.11255  0.02356  1.0000
  C   C57       1.0  0.20979  0.13758  0.09419  1.0000
  C   C58       1.0  0.20948  0.11899  0.08009  1.0000
  H   H61       1.0  0.14919  0.15396  0.02773  1.0000
  H   H62       1.0  0.13888  0.17805  0.04012  1.0000
  H   H63       1.0  0.00756  0.37539  0.28657  1.0000
  H   H64       1.0  0.26579  0.00254  0.01465  1.0000
  H   H65       1.0  0.26217  0.00949  0.11434  1.0000
  H   H66       1.0  0.04065  0.35615  0.26478  1.0000
  H   H67       1.0  0.17099  0.18953  0.08081  1.0000
  H   H68       1.0  0.14527  0.19097  0.09117  1.0000
  H   H69       1.0  0.16281  0.17847  0.11672  1.0000
  H   H70       1.0  0.01783  0.22108  0.05926  1.0000
  C   C59       1.0  0.31759  0.13072  0.23018  1.0000
  C   C60       1.0  0.29734  0.13850  0.27638  1.0000
  C   C61       1.0  0.01006  0.38068  0.31000  1.0000
  H   H71       1.0  0.01966  0.39882  0.39439  1.0000
  C   C62       1.0  0.99681  0.48847  0.27095  1.0000
  C   C63       1.0  0.13612  0.44379  0.44436  1.0000
  H   H72       1.0  0.11717  0.42044  0.43636  1.0000
  H   H73       1.0  0.30402  0.02456  0.25103  1.0000
  C   C64       1.0  0.12015  0.22889  0.01356  1.0000
  C   C65       1.0  0.01477  0.38664  0.49367  1.0000
  C   C66       1.0  0.03087  0.33762  0.22780  1.0000
  H   H74       1.0  0.28146  0.02956  0.06259  1.0000
  C   C67       1.0  0.01702  0.39364  0.37091  1.0000
  H   H75       1.0  0.05303  0.28026  0.14349  1.0000
  C   C68       1.0  0.04720  0.29194  0.16062  1.0000
  H   H76       1.0  0.05068  0.37053  0.39879  1.0000
  H   H77       1.0  0.19255  0.10012  0.05260  1.0000
  H   H78       1.0  0.09247  0.30728  0.17672  1.0000
  C   C69       1.0  0.00148  0.38192  0.36522  1.0000
  C   C70       1.0  0.07926  0.30427  0.16266  1.0000
  H   H79       1.0  0.03495  0.28558  0.17357  1.0000
  C   C71       1.0  0.06521  0.32459  0.36104  1.0000
  H   H80       1.0  0.02378  0.47098  0.25687  1.0000
  H   H81       1.0  0.25344  0.15202  0.21235  1.0000
  H   H82       1.0  0.08436  0.28071  0.21288  1.0000
  C   C72       1.0  0.04150  0.46799  0.33021  1.0000
  H   H83       1.0  0.31364  0.14170  0.31927  1.0000
  H   H84       1.0  0.30822  0.07862  0.23752  1.0000
  C   C73       1.0  0.28545  0.01314  0.06479  1.0000
  H   H85       1.0  0.28320  0.14139  0.28833  1.0000
  C   C74       1.0  0.99802  0.37536  0.33481  1.0000
  H   H86       1.0  0.01888  0.20842  0.01018  1.0000
  C   C75       1.0  0.12812  0.42004  0.48383  1.0000
  H   H87       1.0  0.07515  0.33980  0.26478  1.0000
  C   C76       1.0  0.04483  0.34403  0.24858  1.0000
  H   H88       1.0  0.26255  0.15693  0.25045  1.0000
  H   H89       1.0  0.04827  0.33199  0.46162  1.0000
  H   H90       1.0  0.19435  0.16568  0.10445  1.0000
  C   C77       1.0  0.06061  0.31823  0.33098  1.0000
  C   C78       1.0  0.01021  0.23515  0.15127  1.0000
  H   H91       1.0  0.08087  0.32338  0.36693  1.0000
  H   H92       1.0  0.22272  0.14075  0.10767  1.0000
  S   S24       1.0  0.32014  0.08000  0.17074  1.0000
  H   H93       1.0  0.26909  0.12660  0.17943  1.0000
  N   N4        1.0  0.26746  0.00216  0.06545  1.0000
  H   H94       1.0  0.11655  0.48023  0.38953  1.0000
  N   N5        1.0  0.27968  0.13288  0.22575  1.0000
  C   C79       1.0  0.26804  0.11759  0.23995  1.0000
  C   C80       1.0  0.26737  0.15241  0.22636  1.0000
  C   C81       1.0  0.28329  0.12738  0.19238  1.0000
  C   C82       1.0  0.29826  0.13412  0.24383  1.0000
  H   H95       1.0  0.29542  0.00872  0.04467  1.0000
  H   H96       1.0  0.01033  0.32893  0.33262  1.0000
  H   H97       1.0  0.06532  0.40462  0.48435  1.0000
  C   C83       1.0  0.00860  0.47890  0.35059  1.0000
  H   H98       1.0  0.99817  0.22104  0.25674  1.0000
  C   C84       1.0  0.19271  0.11465  0.06346  1.0000
  C   C85       1.0  0.23184  0.14374  0.01305  1.0000
  H   H99       1.0  0.13482  0.44940  0.42054  1.0000
  H   H100      1.0  0.25062  0.02206  0.03326  1.0000
  C   C86       1.0  0.12627  0.42746  0.45326  1.0000
  H   H101      1.0  0.31698  0.03675  0.20118  1.0000
  H   H102      1.0  0.12683  0.16356  0.09060  1.0000
  C   C87       1.0  0.32000  0.02420  0.24745  1.0000
  H   H103      1.0  0.24976  0.02683  0.08778  1.0000
  H   H104      1.0  0.01206  0.19533  0.06046  1.0000
  H   H105      1.0  0.27716  0.10290  0.24148  1.0000
  C   C88       1.0  0.31466  0.13883  0.29430  1.0000
  C   C89       1.0  0.22900  0.99505  0.15552  1.0000
  H   H106      1.0  0.29430  0.01051  0.08668  1.0000
  C   C90       1.0  0.00655  0.21099  0.06657  1.0000
  H   H107      1.0  0.24330  0.99719  0.03450  1.0000
  C   C91       1.0  0.13155  0.49316  0.31693  1.0000
  C   C92       1.0  0.24603  0.99475  0.17429  1.0000
  H   H108      1.0  0.99769  0.41164  0.26882  1.0000
  H   H109      1.0  0.12493  0.35538  0.48988  1.0000
  H   H110      1.0  0.32742  0.01248  0.29323  1.0000
  C   C93       1.0  0.32732  0.03097  0.21928  1.0000
  N   N6        1.0  0.06445  0.49343  0.31097  1.0000
  H   H111      1.0  0.00605  0.21174  0.09259  1.0000
  C   C94       1.0  0.00427  0.21081  0.99972  1.0000
  H   H112      1.0  0.99688  0.25621  0.26499  1.0000
  C   C95       1.0  0.99640  0.37920  0.48847  1.0000
  H   H113      1.0  0.99503  0.23674  0.22214  1.0000
  C   C96       1.0  0.14960  0.44554  0.49683  1.0000
  Fe  Fe13      1.0  0.28288  0.08057  0.80183  1.0000
  S   S25       1.0  0.25462  0.06668  0.79095  1.0000
  S   S26       1.0  0.30104  0.08435  0.75671  1.0000
  Fe  Fe14      1.0  0.27299  0.07968  0.87234  1.0000
  S   S27       1.0  0.24510  0.06463  0.86541  1.0000
  S   S28       1.0  0.28216  0.09076  0.92004  1.0000
  Fe  Fe15      1.0  0.26316  0.04539  0.83035  1.0000
  H   H114      1.0  0.01459  0.38756  0.57313  1.0000
  Fe  Fe16      1.0  0.23885  0.08733  0.82663  1.0000
  S   S29       1.0  0.20608  0.10079  0.82310  1.0000
  S   S30       1.0  0.29182  0.05871  0.84033  1.0000
  S   S31       1.0  0.26625  0.10304  0.83464  1.0000
  Fe  Fe17      1.0  0.10807  0.41468  0.63919  1.0000
  S   S32       1.0  0.08495  0.40801  0.60400  1.0000
  S   S33       1.0  0.12238  0.44337  0.62816  1.0000
  Fe  Fe18      1.0  0.10705  0.37272  0.67122  1.0000
  S   S34       1.0  0.08413  0.36366  0.63734  1.0000
  S   S35       1.0  0.11975  0.35319  0.71247  1.0000
  Fe  Fe19      1.0  0.10177  0.37775  0.59973  1.0000
  S   S36       1.0  0.11199  0.36395  0.55298  1.0000
  Fe  Fe20      1.0  0.06965  0.39495  0.64451  1.0000
  S   S37       1.0  0.03728  0.40515  0.65229  1.0000
  S   S38       1.0  0.12596  0.38472  0.63299  1.0000
  S   S39       1.0  0.09146  0.40358  0.68047  1.0000
  Fe  Fe21      1.0  0.13018  0.20622  0.82884  1.0000
  S   S40       1.0  0.12972  0.23948  0.83794  1.0000
  S   S41       1.0  0.16196  0.19033  0.82159  1.0000
  Fe  Fe22      1.0  0.08404  0.20936  0.82686  1.0000
  S   S42       1.0  0.08091  0.24224  0.83536  1.0000
  S   S43       1.0  0.05686  0.19291  0.81598  1.0000
  Fe  Fe23      1.0  0.10596  0.24408  0.80095  1.0000
  S   S44       1.0  0.10215  0.26584  0.75916  1.0000
  Fe  Fe24      1.0  0.10476  0.23525  0.87180  1.0000
  S   S45       1.0  0.09902  0.25295  0.91690  1.0000
  S   S46       1.0  0.10772  0.21122  0.78980  1.0000
  S   S47       1.0  0.10657  0.20191  0.86547  1.0000
  C   C97       1.0  0.02834  0.21672  0.84990  1.0000
  C   C98       1.0  0.03225  0.20081  0.82903  1.0000
  C   C99       1.0  0.01623  0.19073  0.81842  1.0000
  H   H115      1.0  0.04049  0.22454  0.85841  1.0000
  H   H116      1.0  0.01913  0.17835  0.80237  1.0000
  C   C100      1.0  0.10680  0.24298  0.95390  1.0000
  C   C101      1.0  0.12745  0.21931  0.98600  1.0000
  H   H117      1.0  0.17725  0.20811  0.74118  1.0000
  N   N7        1.0  0.14178  0.42028  0.53861  1.0000
  H   H118      1.0  0.01856  0.34194  0.60928  1.0000
  C   C102      1.0  0.02743  0.36927  0.62888  1.0000
  C   C103      1.0  0.02105  0.38701  0.64464  1.0000
  H   H119      1.0  0.30605  0.02274  0.79118  1.0000
  H   H120      1.0  0.04279  0.36625  0.62172  1.0000
  H   H121      1.0  0.29120  0.10160  0.98304  1.0000
  C   C104      1.0  0.12181  0.42082  0.55333  1.0000
  H   H122      1.0  0.11167  0.41171  0.54054  1.0000
  C   C105      1.0  0.12069  0.22618  0.95633  1.0000
  H   H123      1.0  0.07764  0.39169  0.53604  1.0000
  H   H124      1.0  0.23217  0.10136  0.97113  1.0000
  C   C106      1.0  0.10729  0.29023  0.74694  1.0000
  C   C107      1.0  0.11951  0.30186  0.76406  1.0000
  C   C108      1.0  0.12308  0.32105  0.75321  1.0000
  C   C109      1.0  0.11449  0.32895  0.72516  1.0000
  C   C110      1.0  0.10236  0.31726  0.70800  1.0000
  C   C111      1.0  0.09887  0.29805  0.71878  1.0000
  H   H125      1.0  0.12638  0.29607  0.78545  1.0000
  H   H126      1.0  0.13254  0.32989  0.76665  1.0000
  H   H127      1.0  0.09571  0.32300  0.68633  1.0000
  H   H128      1.0  0.08950  0.28921  0.70515  1.0000
  H   H129      1.0  0.15092  0.30245  0.70790  1.0000
  C   C112      1.0  0.31918  0.01933  0.77662  1.0000
  C   C113      1.0  0.10513  0.47170  0.67046  1.0000
  C   C114      1.0  0.11531  0.46800  0.64210  1.0000
  C   C115      1.0  0.12118  0.48430  0.62494  1.0000
  H   H130      1.0  0.23498  0.00629  0.86419  1.0000
  C   C116      1.0  0.28084  0.09036  0.98445  1.0000
  H   H131      1.0  0.10068  0.45933  0.68407  1.0000
  H   H132      1.0  0.12920  0.48165  0.60313  1.0000
  H   H133      1.0  0.21881  0.16320  0.94203  1.0000
  C   C117      1.0  0.19419  0.12586  0.82242  1.0000
  C   C118      1.0  0.20489  0.14258  0.82002  1.0000
  C   C119      1.0  0.19477  0.16205  0.82000  1.0000
  C   C120      1.0  0.17382  0.16524  0.82262  1.0000
  C   C121      1.0  0.16314  0.14853  0.82540  1.0000
  C   C122      1.0  0.17325  0.12904  0.82516  1.0000
  H   H134      1.0  0.22094  0.14053  0.81769  1.0000
  H   H135      1.0  0.20326  0.17478  0.81772  1.0000
  H   H136      1.0  0.14706  0.15059  0.82738  1.0000
  H   H137      1.0  0.16472  0.11632  0.82712  1.0000
  C   C123      1.0  0.27409  0.08205  0.95669  1.0000
  C   C124      1.0  0.26071  0.06753  0.95876  1.0000
  H   H138      1.0  0.22280  0.04907  0.75515  1.0000
  H   H139      1.0  0.25548  0.06093  0.93763  1.0000
  H   H140      1.0  0.19986  0.03915  0.83165  1.0000
  H   H141      1.0  0.02690  0.47267  0.65268  1.0000
  C   C125      1.0  0.20012  0.13404  0.90876  1.0000
  H   H142      1.0  0.25071  0.12607  0.90391  1.0000
  C   C126      1.0  0.00107  0.39092  0.65331  1.0000
  N   N8        1.0  0.22023  0.12516  0.91852  1.0000
  H   H143      1.0  0.03562  0.39520  0.52808  1.0000
  C   C127      1.0  0.15060  0.39920  0.53707  1.0000
  C   C128      1.0  0.15025  0.28388  0.66724  1.0000
  C   C129      1.0  0.13990  0.42875  0.50657  1.0000
  H   H144      1.0  0.15878  0.45327  0.51243  1.0000
  H   H145      1.0  0.23752  0.02754  0.76939  1.0000
  H   H146      1.0  0.01517  0.47365  0.61477  1.0000
  C   C130      1.0  0.00950  0.38515  0.54948  1.0000
  H   H147      1.0  0.12484  0.23107  0.73030  1.0000
  H   H148      1.0  0.16547  0.39797  0.52547  1.0000
  C   C131      1.0  0.15180  0.28723  0.69926  1.0000
  C   C132      1.0  0.00870  0.22230  0.86027  1.0000
  C   C133      1.0  0.22236  0.03293  0.76059  1.0000
  C   C134      1.0  0.01368  0.35560  0.62160  1.0000
  C   C135      1.0  0.15457  0.25113  0.70961  1.0000
  H   H149      1.0  0.21710  0.09922  0.88995  1.0000
  H   H150      1.0  0.00121  0.42833  0.62426  1.0000
  H   H151      1.0  0.12286  0.41468  0.57753  1.0000
  C   C136      1.0  0.15654  0.23934  0.76478  1.0000
  C   C137      1.0  0.10214  0.37271  0.51654  1.0000
  H   H152      1.0  0.99762  0.24955  0.78659  1.0000
  H   H153      1.0  0.17539  0.21453  0.70059  1.0000
  H   H154      1.0  0.23291  0.12777  0.87244  1.0000
  N   N9        1.0  0.20666  0.02967  0.78403  1.0000
  H   H155      1.0  0.13888  0.21537  0.70256  1.0000
  H   H156      1.0  0.23606  0.09569  0.91894  1.0000
  H   H157      1.0  0.11449  0.43636  0.55498  1.0000
  H   H158      1.0  0.23126  0.99542  0.76429  1.0000
  H   H159      1.0  0.15527  0.42440  0.58376  1.0000
  C   C138      1.0  0.15392  0.27119  0.72027  1.0000
  H   H160      1.0  0.15401  0.23345  0.66682  1.0000
  H   H161      1.0  0.00628  0.43737  0.67610  1.0000
  H   H162      1.0  0.16959  0.24750  0.77060  1.0000
  H   H163      1.0  0.21981  0.02530  0.73807  1.0000
  H   H164      1.0  0.22582  0.03310  0.82335  1.0000
  H   H165      1.0  0.08870  0.26558  0.97979  1.0000
  C   C139      1.0  0.15119  0.26442  0.65595  1.0000
  N   N10       1.0  0.15636  0.23374  0.73113  1.0000
  H   H166      1.0  0.21292  0.05608  0.80927  1.0000
  C   C140      1.0  0.01637  0.46540  0.63740  1.0000
  C   C141      1.0  0.18748  0.03931  0.77164  1.0000
  H   H167      1.0  0.14264  0.24872  0.77142  1.0000
  H   H168      1.0  0.13988  0.20888  0.74296  1.0000
  H   H169      1.0  0.17001  0.43072  0.55100  1.0000
  C   C142      1.0  0.22635  0.15783  0.98991  1.0000
  H   H170      1.0  0.14811  0.44690  0.56325  1.0000
  C   C143      1.0  0.23011  0.11724  0.97519  1.0000
  C   C144      1.0  0.13929  0.22177  0.72645  1.0000
  H   H171      1.0  0.00592  0.23451  0.87665  1.0000
  C   C145      1.0  0.17512  0.22096  0.72456  1.0000
  N   N11       1.0  0.08770  0.30368  0.85652  1.0000
  C   C146      1.0  0.09381  0.31103  0.88752  1.0000
  C   C147      1.0  0.06916  0.29389  0.86155  1.0000
  C   C148      1.0  0.10364  0.28852  0.84565  1.0000
  C   C149      1.0  0.08450  0.31951  0.83238  1.0000
  C   C150      1.0  0.07664  0.31518  0.80258  1.0000
  C   C151      1.0  0.09020  0.33910  0.83675  1.0000
  C   C152      1.0  0.07442  0.32956  0.77885  1.0000
  C   C153      1.0  0.08815  0.35329  0.81265  1.0000
  C   C154      1.0  0.08034  0.34851  0.78376  1.0000
  H   H172      1.0  0.08262  0.32287  0.89676  1.0000
  H   H173      1.0  0.09533  0.29879  0.90533  1.0000
  H   H174      1.0  0.10867  0.31684  0.88641  1.0000
  H   H175      1.0  0.05648  0.30501  0.86801  1.0000
  H   H176      1.0  0.07098  0.28247  0.88061  1.0000
  H   H177      1.0  0.06473  0.28570  0.84055  1.0000
  H   H178      1.0  0.11781  0.29526  0.84143  1.0000
  H   H179      1.0  0.10675  0.27639  0.86323  1.0000
  H   H180      1.0  0.09962  0.28138  0.82339  1.0000
  H   H181      1.0  0.07294  0.30037  0.79679  1.0000
  H   H182      1.0  0.09664  0.34373  0.85832  1.0000
  H   H183      1.0  0.06891  0.32574  0.75600  1.0000
  H   H184      1.0  0.09301  0.36799  0.81607  1.0000
  H   H185      1.0  0.07939  0.35932  0.76477  1.0000
  H   H186      1.0  0.18854  0.13063  0.92603  1.0000
  H   H187      1.0  0.32109  0.07966  0.63268  1.0000
  C   C155      1.0  0.32202  0.00124  0.76070  1.0000
  C   C156      1.0  0.15443  0.43111  0.55981  1.0000
  C   C157      1.0  0.18974  0.00263  0.81095  1.0000
  H   H188      1.0  0.15748  0.22596  0.78036  1.0000
  H   H189      1.0  0.18275  0.03132  0.75054  1.0000
  C   C158      1.0  0.20501  0.00831  0.79080  1.0000
  H   H190      1.0  0.14106  0.38958  0.52390  1.0000
  H   H191      1.0  0.09416  0.49401  0.70433  1.0000
  H   H192      1.0  0.18827  0.22962  0.72682  1.0000
  H   H193      1.0  0.13854  0.20659  0.98756  1.0000
  H   H194      1.0  0.14996  0.26189  0.63097  1.0000
  C   C159      1.0  0.00356  0.20956  0.96699  1.0000
  H   H195      1.0  0.17928  0.01368  0.82196  1.0000
  C   C160      1.0  0.08526  0.38654  0.51479  1.0000
  C   C161      1.0  0.21148  0.03993  0.81333  1.0000
  H   H196      1.0  0.12655  0.21875  0.93532  1.0000
  C   C162      1.0  0.22432  0.13121  0.95104  1.0000
  H   H197      1.0  0.18861  0.05518  0.76497  1.0000
  H   H198      1.0  0.02372  0.45013  0.63267  1.0000
  H   H199      1.0  0.15237  0.39236  0.56085  1.0000
  C   C163      1.0  0.22085  0.10321  0.91442  1.0000
  C   C164      1.0  0.22273  0.15172  0.95931  1.0000
  H   H200      1.0  0.15457  0.27499  0.74477  1.0000
  C   C165      1.0  0.15342  0.24825  0.67671  1.0000
  C   C166      1.0  0.23535  0.13233  0.89712  1.0000
  H   H201      1.0  0.19573  0.12821  0.88570  1.0000
  H   H202      1.0  0.23503  0.14885  0.89709  1.0000
  C   C167      1.0  0.09941  0.25254  0.98145  1.0000
  H   H203      1.0  0.20996  0.09670  0.93002  1.0000
  H   H204      1.0  0.14819  0.29644  0.65124  1.0000
  S   S48       1.0  0.26603  0.01231  0.81729  1.0000
  N   N12       1.0  0.99650  0.46508  0.65238  1.0000
  H   H205      1.0  0.00426  0.26480  0.73879  1.0000
  H   H206      1.0  0.17523  0.03973  0.78914  1.0000
  H   H207      1.0  0.19924  0.15051  0.90582  1.0000
  H   H208      1.0  0.01719  0.20627  0.95355  1.0000
  C   C168      1.0  0.10149  0.49141  0.68194  1.0000
  H   H209      1.0  0.24331  0.05068  0.98955  1.0000
  H   H210      1.0  0.32224  0.07350  0.69980  1.0000
  C   C169      1.0  0.32705  0.08204  0.74761  1.0000
  C   C170      1.0  0.02134  0.38951  0.52410  1.0000
  H   H211      1.0  0.22508  0.17360  0.99563  1.0000
  H   H212      1.0  0.00796  0.45914  0.69910  1.0000
  C   C171      1.0  0.25390  0.06168  0.98827  1.0000
  H   H213      1.0  0.00826  0.29280  0.70423  1.0000
  C   C172      1.0  0.99654  0.19639  0.82866  1.0000
  H   H214      1.0  0.99602  0.40438  0.66596  1.0000
  H   H215      1.0  0.00051  0.49209  0.67820  1.0000
  C   C173      1.0  0.99875  0.45253  0.68102  1.0000
  Fe  Fe25      1.0  0.26580  0.87716  0.11876  1.0000
  S   S49       1.0  0.23249  0.88175  0.11695  1.0000
  S   S50       1.0  0.28348  0.88105  0.07418  1.0000
  Fe  Fe26      1.0  0.26657  0.87676  0.19088  1.0000
  S   S51       1.0  0.23287  0.88203  0.19318  1.0000
  H   H216      1.0  0.20586  0.92306  0.08610  1.0000
  Fe  Fe27      1.0  0.23258  0.85857  0.15519  1.0000
  S   S52       1.0  0.21671  0.82950  0.15273  1.0000
  Fe  Fe28      1.0  0.23592  0.90466  0.15462  1.0000
  S   S53       1.0  0.22084  0.93609  0.14551  1.0000
  S   S54       1.0  0.26631  0.85249  0.15462  1.0000
  S   S55       1.0  0.26919  0.90080  0.15496  1.0000
  Fe  Fe29      1.0  0.12105  0.75856  0.15989  1.0000
  S   S56       1.0  0.13779  0.72780  0.15844  1.0000
  S   S57       1.0  0.13433  0.78878  0.16661  1.0000
  Fe  Fe30      1.0  0.08063  0.74181  0.14343  1.0000
  S   S58       1.0  0.09564  0.71061  0.13956  1.0000
  S   S59       1.0  0.04830  0.74334  0.12675  1.0000
  Fe  Fe31      1.0  0.11132  0.71687  0.18421  1.0000
  S   S60       1.0  0.10561  0.69726  0.22711  1.0000
  Fe  Fe32      1.0  0.12007  0.72419  0.11412  1.0000
  S   S61       1.0  0.13333  0.71084  0.06874  1.0000
  S   S62       1.0  0.09562  0.74812  0.18878  1.0000
  S   S63       1.0  0.10422  0.75496  0.11493  1.0000
  Fe  Fe33      1.0  0.09645  0.58828  0.37780  1.0000
  S   S64       1.0  0.12676  0.57846  0.35820  1.0000
  S   S65       1.0  0.09062  0.60651  0.42214  1.0000
  Fe  Fe34      1.0  0.07575  0.56941  0.32369  1.0000
  S   S66       1.0  0.10434  0.55830  0.30006  1.0000
  S   S67       1.0  0.04722  0.56011  0.30467  1.0000
  Fe  Fe35      1.0  0.11450  0.54899  0.34852  1.0000
  C   C174      1.0  0.24228  0.91562  0.05907  1.0000
  Fe  Fe36      1.0  0.11332  0.58900  0.31160  1.0000
  S   S68       1.0  0.12876  0.60767  0.27571  1.0000
  S   S69       1.0  0.08510  0.55854  0.37133  1.0000
  S   S70       1.0  0.08373  0.60048  0.33201  1.0000
  C   C175      1.0  0.02788  0.56786  0.33044  1.0000
  C   C176      1.0  0.02950  0.58394  0.35063  1.0000
  C   C177      1.0  0.01353  0.59055  0.37032  1.0000
  C   C178      1.0  0.31669  0.84668  0.02536  1.0000
  C   C179      1.0  0.32092  0.92445  0.25694  1.0000
  C   C180      1.0  0.01066  0.55795  0.33071  1.0000
  H   H217      1.0  0.04276  0.59171  0.35037  1.0000
  H   H218      1.0  0.01435  0.60360  0.38477  1.0000
  S   S71       1.0  0.28187  0.87518  0.23900  1.0000
  H   H219      1.0  0.00931  0.54556  0.31505  1.0000
  C   C181      1.0  0.02473  0.74731  0.14567  1.0000
  C   C182      1.0  0.02213  0.75660  0.17490  1.0000
  C   C183      1.0  0.00301  0.75925  0.18881  1.0000
  C   C184      1.0  0.09922  0.60992  0.48455  1.0000
  C   C185      1.0  0.05598  0.54919  0.48131  1.0000
  C   C186      1.0  0.00806  0.74068  0.13063  1.0000
  H   H220      1.0  0.03476  0.76197  0.18662  1.0000
  H   H221      1.0  0.30429  0.82232  0.21531  1.0000
  C   C187      1.0  0.27859  0.88283  0.01028  1.0000
  H   H222      1.0  0.00983  0.73355  0.10797  1.0000
  C   C188      1.0  0.11165  0.67189  0.23881  1.0000
  C   C189      1.0  0.12663  0.65921  0.22427  1.0000
  C   C190      1.0  0.13147  0.63958  0.23561  1.0000
  C   C191      1.0  0.12117  0.63216  0.26116  1.0000
  C   C192      1.0  0.10584  0.64468  0.27520  1.0000
  C   C193      1.0  0.10129  0.66444  0.26431  1.0000
  H   H223      1.0  0.13482  0.66466  0.20476  1.0000
  H   H224      1.0  0.14338  0.63010  0.22455  1.0000
  H   H225      1.0  0.09768  0.63923  0.29470  1.0000
  H   H226      1.0  0.08972  0.67409  0.27583  1.0000
  H   H227      1.0  0.09097  0.52602  0.48338  1.0000
  C   C194      1.0  0.10344  0.59898  0.45694  1.0000
  H   H228      1.0  0.23862  0.95406  0.04465  1.0000
  H   H229      1.0  0.12106  0.57381  0.43655  1.0000
  H   H230      1.0  0.29159  0.91742  0.24372  1.0000
  H   H231      1.0  0.29918  0.97971  0.24958  1.0000
  C   C195      1.0  0.12508  0.72020  0.03160  1.0000
  C   C196      1.0  0.11169  0.73735  0.02895  1.0000
  C   C197      1.0  0.31218  0.87332  0.28241  1.0000
  H   H232      1.0  0.10582  0.74493  0.04972  1.0000
  C   C198      1.0  0.19360  0.81855  0.15694  1.0000
  C   C199      1.0  0.17551  0.82979  0.16392  1.0000
  C   C200      1.0  0.15771  0.82038  0.16696  1.0000
  C   C201      1.0  0.15758  0.79958  0.16323  1.0000
  C   C202      1.0  0.17573  0.78831  0.15652  1.0000
  C   C203      1.0  0.19351  0.79773  0.15334  1.0000
  H   H233      1.0  0.17516  0.84577  0.16683  1.0000
  H   H234      1.0  0.14387  0.82934  0.17221  1.0000
  H   H235      1.0  0.17610  0.77231  0.15388  1.0000
  H   H236      1.0  0.20735  0.78877  0.14807  1.0000
  H   H237      1.0  0.16520  0.63098  0.34082  1.0000
  C   C204      1.0  0.26127  0.85808  0.03729  1.0000
  C   C205      1.0  0.27358  0.87354  0.03832  1.0000
  H   H238      1.0  0.31964  0.86825  0.20393  1.0000
  H   H239      1.0  0.25730  0.85085  0.05876  1.0000
  H   H240      1.0  0.24401  0.91896  0.08443  1.0000
  H   H241      1.0  0.28963  0.97738  0.02446  1.0000
  C   C206      1.0  0.16318  0.79571  0.07086  1.0000
  C   C207      1.0  0.22149  0.97699  0.14690  1.0000
  C   C208      1.0  0.23093  0.95844  0.15683  1.0000
  C   C209      1.0  0.24810  0.95816  0.17524  1.0000
  C   C210      1.0  0.25551  0.97621  0.18398  1.0000
  C   C211      1.0  0.28571  0.80505  0.18759  1.0000
  H   H242      1.0  0.20809  0.97742  0.13293  1.0000
  H   H243      1.0  0.25552  0.94406  0.18315  1.0000
  H   H244      1.0  0.26869  0.97587  0.19839  1.0000
  N   N13       1.0  0.04596  0.69013  0.19107  1.0000
  C   C212      1.0  0.06163  0.67358  0.19799  1.0000
  C   C213      1.0  0.04419  0.69194  0.15652  1.0000
  C   C214      1.0  0.05300  0.70870  0.20376  1.0000
  C   C215      1.0  0.02614  0.68716  0.20433  1.0000
  C   C216      1.0  0.00998  0.70222  0.20095  1.0000
  C   C217      1.0  0.02195  0.66916  0.21930  1.0000
  C   C218      1.0  0.04743  0.72291  0.04755  1.0000
  C   C219      1.0  0.27489  0.94905  0.09859  1.0000
  H   H245      1.0  0.03270  0.51883  0.33099  1.0000
  H   H246      1.0  0.07642  0.67665  0.18832  1.0000
  H   H247      1.0  0.06385  0.67155  0.22369  1.0000
  H   H248      1.0  0.05819  0.65927  0.18734  1.0000
  H   H249      1.0  0.03835  0.67855  0.14616  1.0000
  H   H250      1.0  0.05875  0.69378  0.14526  1.0000
  H   H251      1.0  0.03397  0.70514  0.14935  1.0000
  H   H252      1.0  0.05376  0.70829  0.22981  1.0000
  H   H253      1.0  0.06817  0.71100  0.19506  1.0000
  H   H254      1.0  0.04341  0.72231  0.19679  1.0000
  H   H255      1.0  0.01193  0.71614  0.18937  1.0000
  H   H256      1.0  0.26027  0.97613  0.11523  1.0000
  H   H257      1.0  0.01216  0.66019  0.31794  1.0000
  C   C220      1.0  0.22391  0.92312  0.01126  1.0000
  H   H258      1.0  0.19245  0.92738  0.04991  1.0000
  N   N14       1.0  0.13969  0.63763  0.37124  1.0000
  C   C221      1.0  0.11785  0.63685  0.36880  1.0000
  C   C222      1.0  0.14374  0.65875  0.37491  1.0000
  C   C223      1.0  0.14876  0.63040  0.34105  1.0000
  C   C224      1.0  0.14739  0.62583  0.39876  1.0000
  C   C225      1.0  0.14055  0.63124  0.42939  1.0000
  C   C226      1.0  0.16150  0.60869  0.39621  1.0000
  C   C227      1.0  0.16827  0.59784  0.42276  1.0000
  H   H259      1.0  0.17873  0.58460  0.42027  1.0000
  H   H260      1.0  0.11154  0.64495  0.34775  1.0000
  H   H261      1.0  0.11420  0.62117  0.36712  1.0000
  H   H262      1.0  0.10961  0.64343  0.38951  1.0000
  H   H263      1.0  0.13570  0.66607  0.39523  1.0000
  H   H264      1.0  0.13893  0.66784  0.35390  1.0000
  H   H265      1.0  0.14556  0.61485  0.33590  1.0000
  H   H266      1.0  0.14268  0.63951  0.32076  1.0000
  H   H267      1.0  0.16732  0.60313  0.37396  1.0000
  C   C228      1.0  0.04171  0.61313  0.47839  1.0000
  H   H268      1.0  0.15997  0.65987  0.37834  1.0000
  N   N15       1.0  0.23804  0.82589  0.25109  1.0000
  C   C229      1.0  0.23401  0.80909  0.27177  1.0000
  C   C230      1.0  0.24266  0.84288  0.27112  1.0000
  C   C231      1.0  0.21953  0.83257  0.23352  1.0000
  C   C232      1.0  0.25449  0.81902  0.22935  1.0000
  C   C233      1.0  0.25134  0.80573  0.20445  1.0000
  C   C234      1.0  0.27426  0.82431  0.23316  1.0000
  C   C235      1.0  0.28621  0.93913  0.07500  1.0000
  H   H269      1.0  0.01167  0.53095  0.46231  1.0000
  C   C236      1.0  0.28951  0.81754  0.21237  1.0000
  H   H270      1.0  0.24755  0.80359  0.28539  1.0000
  H   H271      1.0  0.22178  0.81352  0.28871  1.0000
  H   H272      1.0  0.22949  0.79623  0.25807  1.0000
  H   H273      1.0  0.24691  0.85555  0.25654  1.0000
  H   H274      1.0  0.25496  0.83855  0.28787  1.0000
  H   H275      1.0  0.22968  0.84875  0.28573  1.0000
  H   H276      1.0  0.21289  0.82013  0.22169  1.0000
  H   H277      1.0  0.20754  0.83969  0.24895  1.0000
  H   H278      1.0  0.22252  0.84359  0.21513  1.0000
  H   H279      1.0  0.23691  0.80056  0.20037  1.0000
  H   H280      1.0  0.27835  0.83392  0.25176  1.0000
  H   H281      1.0  0.05077  0.51912  0.28561  1.0000
  C   C237      1.0  0.25480  0.85130  0.00829  1.0000
  H   H282      1.0  0.16263  0.74429  0.03493  1.0000
  H   H283      1.0  0.12938  0.64367  0.43317  1.0000
  C   C238      1.0  0.00519  0.59821  0.49525  1.0000
  H   H284      1.0  0.22506  0.95032  0.07977  1.0000
  C   C239      1.0  0.14757  0.62038  0.45576  1.0000
  N   N16       1.0  0.22432  0.92685  0.04545  1.0000
  H   H285      1.0  0.30029  0.87563  0.29949  1.0000
  C   C240      1.0  0.04373  0.56064  0.42948  1.0000
  H   H286      1.0  0.27773  0.95269  0.23955  1.0000
  C   C241      1.0  0.11747  0.58221  0.45776  1.0000
  H   H287      1.0  0.25605  0.91904  0.04664  1.0000
  C   C242      1.0  0.03875  0.53871  0.48405  1.0000
  C   C243      1.0  0.22490  0.94819  0.05382  1.0000
  H   H288      1.0  0.12632  0.79232  0.09710  1.0000
  H   H289      1.0  0.07406  0.50890  0.27017  1.0000
  C   C244      1.0  0.20635  0.91992  0.06044  1.0000
  H   H290      1.0  0.13806  0.56351  0.48653  1.0000
  H   H291      1.0  0.14254  0.69703  0.00594  1.0000
  C   C245      1.0  0.29326  0.94910  0.24582  1.0000
  C   C246      1.0  0.02461  0.53919  0.45998  1.0000
  H   H292      1.0  0.24581  0.83888  0.00762  1.0000
  H   H293      1.0  0.07050  0.56883  0.44954  1.0000
  H   H294      1.0  0.07805  0.49828  0.35562  1.0000
  H   H295      1.0  0.00076  0.51059  0.35227  1.0000
  C   C247      1.0  0.12844  0.78994  0.07138  1.0000
  C   C248      1.0  0.06012  0.50481  0.28155  1.0000
  H   H296      1.0  0.00886  0.59234  0.27477  1.0000
  H   H297      1.0  0.05223  0.49599  0.26443  1.0000
  C   C249      1.0  0.28506  0.96990  0.04531  1.0000
  H   H298      1.0  0.09548  0.75814  0.99758  1.0000
  C   C250      1.0  0.15776  0.75639  0.01922  1.0000
  H   H299      1.0  0.24174  0.89925  0.05738  1.0000
  H   H300      1.0  0.06567  0.52051  0.33815  1.0000
  C   C251      1.0  0.30105  0.92924  0.24828  1.0000
  H   H301      1.0  0.04075  0.60456  0.28411  1.0000
  H   H302      1.0  0.21149  0.95750  0.04501  1.0000
  C   C252      1.0  0.02721  0.61424  0.28900  1.0000
  C   C253      1.0  0.30539  0.96426  0.25168  1.0000
  C   C254      1.0  0.30743  0.87222  0.25037  1.0000
  C   C255      1.0  0.05794  0.56027  0.45331  1.0000
  S   S72       1.0  0.12612  0.51855  0.36808  1.0000
  C   C256      1.0  0.22329  0.90340  0.99978  1.0000
  H   H303      1.0  0.14351  0.75168  0.08014  1.0000
  H   H304      1.0  0.28804  0.89487  0.01094  1.0000
  C   C257      1.0  0.12584  0.49542  0.34836  1.0000
  H   H305      1.0  0.09271  0.69599  0.04928  1.0000
  C   C258      1.0  0.06482  0.71296  0.05970  1.0000
  C   C259      1.0  0.15032  0.77570  0.03005  1.0000
  H   H306      1.0  0.16023  0.80958  0.05677  1.0000
  C   C260      1.0  0.03046  0.50327  0.33380  1.0000
  H   H307      1.0  0.16922  0.75699  0.08263  1.0000
  C   C261      1.0  0.07592  0.70376  0.00724  1.0000
  H   H308      1.0  0.03324  0.60853  0.43088  1.0000
  H   H309      1.0  0.04568  0.56918  0.40835  1.0000
  N   N17       1.0  0.14892  0.78096  0.06374  1.0000
  H   H310      1.0  0.03662  0.73065  0.06334  1.0000
  H   H311      1.0  0.29750  0.80010  0.17125  1.0000
  H   H312      1.0  0.15130  0.76772  0.11001  1.0000
  C   C262      1.0  0.29119  0.94951  0.04832  1.0000
  H   H313      1.0  0.00192  0.59576  0.44423  1.0000
  C   C263      1.0  0.26868  0.96941  0.09581  1.0000
  C   C264      1.0  0.15347  0.76355  0.08490  1.0000
  H   H314      1.0  0.16231  0.80029  0.09593  1.0000
  C   C265      1.0  0.00268  0.66654  0.22983  1.0000
  C   C266      1.0  0.27355  0.98051  0.06897  1.0000
  C   C267      1.0  0.01099  0.59996  0.46338  1.0000
  H   H315      1.0  0.20583  0.90354  0.05818  1.0000
  H   H316      1.0  0.13575  0.50588  0.30389  1.0000
  C   C268      1.0  0.14428  0.79019  0.00683  1.0000
  H   H317      1.0  0.12481  0.80483  0.06051  1.0000
  H   H318      1.0  0.06747  0.71301  0.08470  1.0000
  H   H319      1.0  0.01611  0.55054  0.41419  1.0000
  H   H320      1.0  0.30003  0.94170  0.03002  1.0000
  H   H321      1.0  0.14183  0.62452  0.47887  1.0000
  H   H322      1.0  0.04297  0.63827  0.30583  1.0000
  H   H323      1.0  0.27101  0.94094  0.11938  1.0000
  C   C269      1.0  0.30751  0.83291  0.00762  1.0000
  C   C270      1.0  0.02709  0.55016  0.43279  1.0000
  H   H324      1.0  0.17880  0.78946  0.06600  1.0000
  H   H325      1.0  0.11711  0.78014  0.06334  1.0000
  H   H326      1.0  0.31492  0.84698  0.05065  1.0000
  H   H327      1.0  0.22326  0.89080  0.01553  1.0000
  H   H328      1.0  0.08899  0.51020  0.32317  1.0000
  H   H329      1.0  0.29865  0.82250  0.01922  1.0000
  C   C271      1.0  0.13220  0.71034  0.00412  1.0000
  C   C272      1.0  0.02848  0.63318  0.30138  1.0000
  H   H330      1.0  0.03323  0.65681  0.22284  1.0000
  H   H331      1.0  0.32617  0.90884  0.25885  1.0000
  C   C273      1.0  0.01222  0.49871  0.34619  1.0000
  C   C274      1.0  0.26668  0.79909  0.18372  1.0000
  H   H332      1.0  0.29112  0.92335  0.07746  1.0000
  C   C275      1.0  0.01113  0.64544  0.30830  1.0000
  C   C276      1.0  0.00861  0.60735  0.28376  1.0000
  H   H333      1.0  0.13889  0.80529  0.01318  1.0000
  H   H334      1.0  0.26365  0.78951  0.16428  1.0000
  C   C277      1.0  0.07897  0.70333  0.03965  1.0000
  C   C278      1.0  0.02900  0.60734  0.45527  1.0000
  H   H335      1.0  0.08882  0.62323  0.48404  1.0000
  C   C279      1.0  0.10574  0.74476  0.99926  1.0000
  H   H336      1.0  0.99973  0.65259  0.24063  1.0000
  C   C280      1.0  0.04411  0.72330  0.01524  1.0000
  C   C281      1.0  0.99522  0.56387  0.35163  1.0000
  C   C282      1.0  0.99638  0.58053  0.37074  1.0000
  H   H337      1.0  0.00108  0.76660  0.21129  1.0000
  C   C283      1.0  0.07462  0.50611  0.33297  1.0000
  C   C284      1.0  0.32300  0.86919  0.22862  1.0000
  H   H338      1.0  0.00286  0.50264  0.26771  1.0000
  C   C285      1.0  0.16137  0.60370  0.45245  1.0000
  H   H339      1.0  0.05558  0.61884  0.47178  1.0000
  C   C286      1.0  0.12706  0.57638  0.48611  1.0000
  C   C287      1.0  0.32748  0.86057  0.01053  1.0000
  H   H340      1.0  0.09589  0.55086  0.47355  1.0000
  H   H341      1.0  0.03047  0.73139  0.00695  1.0000
  H   H342      1.0  0.16636  0.59505  0.47294  1.0000
  C   C288      1.0  0.09115  0.54138  0.49289  1.0000
  C   C289      1.0  0.32534  0.95960  0.26048  1.0000
  Fe  Fe37      1.0  0.24136  0.90179  0.85633  1.0000
  S   S73       1.0  0.26965  0.89041  0.88098  1.0000
  S   S74       1.0  0.22855  0.93417  0.86419  1.0000
  Fe  Fe38      1.0  0.23382  0.85960  0.83270  1.0000
  S   S75       1.0  0.26199  0.84596  0.85532  1.0000
  S   S76       1.0  0.21614  0.83888  0.80285  1.0000
  Fe  Fe39      1.0  0.25275  0.86519  0.89687  1.0000
  S   S77       1.0  0.25268  0.85012  0.94442  1.0000
  Fe  Fe40      1.0  0.27680  0.87224  0.83717  1.0000
  S   S78       1.0  0.30994  0.86680  0.82388  1.0000
  S   S79       1.0  0.22374  0.87748  0.87528  1.0000
  S   S80       1.0  0.24924  0.88513  0.81136  1.0000
  Fe  Fe41      1.0  0.12882  0.75476  0.82555  1.0000
  S   S81       1.0  0.13811  0.72814  0.85614  1.0000
  S   S82       1.0  0.15179  0.77395  0.80318  1.0000
  Fe  Fe42      1.0  0.08445  0.74457  0.82586  1.0000
  S   S83       1.0  0.09133  0.71775  0.85660  1.0000
  S   S84       1.0  0.05325  0.75228  0.80592  1.0000
  Fe  Fe43      1.0  0.11020  0.73743  0.88396  1.0000
  S   S85       1.0  0.10482  0.74546  0.93534  1.0000
  Fe  Fe44      1.0  0.11826  0.71096  0.82541  1.0000
  S   S86       1.0  0.12913  0.67978  0.80624  1.0000
  S   S87       1.0  0.10175  0.76485  0.85454  1.0000
  S   S88       1.0  0.11050  0.73698  0.79339  1.0000
  Fe  Fe45      1.0  0.07366  0.58676  0.61237  1.0000
  S   S89       1.0  0.07988  0.58480  0.66364  1.0000
  S   S90       1.0  0.04319  0.59015  0.59133  1.0000
  Fe  Fe46      1.0  0.11674  0.58323  0.59435  1.0000
  S   S91       1.0  0.12737  0.58104  0.64482  1.0000
  S   S92       1.0  0.13455  0.57931  0.54921  1.0000
  Fe  Fe47      1.0  0.10344  0.56003  0.65079  1.0000
  H   H343      1.0  0.32289  0.87838  0.91781  1.0000
  Fe  Fe48      1.0  0.10300  0.60601  0.65474  1.0000
  S   S93       1.0  0.09985  0.63450  0.68497  1.0000
  S   S94       1.0  0.09497  0.56043  0.60024  1.0000
  S   S95       1.0  0.09466  0.60972  0.60360  1.0000
  C   C290      1.0  0.02802  0.57519  0.61209  1.0000
  C   C291      1.0  0.00738  0.57796  0.60801  1.0000
  H   H344      1.0  0.03196  0.79590  0.82759  1.0000
  C   C292      1.0  0.11307  0.55736  0.76801  1.0000
  C   C293      1.0  0.02398  0.54930  0.65045  1.0000
  C   C294      1.0  0.03637  0.56072  0.63307  1.0000
  C   C295      1.0  0.31980  0.84703  0.95898  1.0000
  C   C296      1.0  0.10752  0.50768  0.66487  1.0000
  H   H345      1.0  0.00953  0.63031  0.75730  1.0000
  H   H346      1.0  0.05235  0.55831  0.63603  1.0000
  C   C297      1.0  0.12236  0.58696  0.51393  1.0000
  C   C298      1.0  0.10007  0.62691  0.81731  1.0000
  C   C299      1.0  0.05267  0.73619  0.94991  1.0000
  C   C300      1.0  0.11125  0.59221  0.80681  1.0000
  H   H347      1.0  0.10494  0.61229  0.53413  1.0000
  C   C301      1.0  0.03181  0.74515  0.82551  1.0000
  C   C302      1.0  0.03263  0.73943  0.85701  1.0000
  H   H348      1.0  0.00516  0.60114  0.66694  1.0000
  C   C303      1.0  0.24106  0.99192  0.85534  1.0000
  H   H349      1.0  0.22261  0.88422  0.95942  1.0000
  C   C304      1.0  0.01338  0.74625  0.80983  1.0000
  H   H350      1.0  0.04669  0.73871  0.86922  1.0000
  H   H351      1.0  0.00905  0.81205  0.78789  1.0000
  H   H352      1.0  0.22502  0.95398  0.99484  1.0000
  H   H353      1.0  0.01260  0.75075  0.78549  1.0000
  C   C305      1.0  0.11297  0.73507  0.97180  1.0000
  H   H354      1.0  0.00086  0.58942  0.59237  1.0000
  H   H355      1.0  0.07977  0.53593  0.55103  1.0000
  H   H356      1.0  0.13174  0.71005  0.95331  1.0000
  H   H357      1.0  0.10317  0.54106  0.51087  1.0000
  C   C306      1.0  0.12109  0.66760  0.77202  1.0000
  C   C307      1.0  0.10502  0.67576  0.75387  1.0000
  C   C308      1.0  0.09894  0.66546  0.72729  1.0000
  C   C309      1.0  0.10876  0.64686  0.71838  1.0000
  C   C310      1.0  0.12500  0.63879  0.73630  1.0000
  C   C311      1.0  0.13108  0.64910  0.76292  1.0000
  H   H358      1.0  0.09713  0.68994  0.76044  1.0000
  H   H359      1.0  0.08641  0.67194  0.71362  1.0000
  H   H360      1.0  0.13283  0.62460  0.72979  1.0000
  H   H361      1.0  0.14355  0.64263  0.77671  1.0000
  C   C312      1.0  0.19810  0.82098  0.80612  1.0000
  C   C313      1.0  0.19249  0.81200  0.77831  1.0000
  C   C314      1.0  0.17848  0.79786  0.77836  1.0000
  C   C315      1.0  0.16951  0.79218  0.80621  1.0000
  C   C316      1.0  0.17505  0.80101  0.83442  1.0000
  C   C317      1.0  0.18931  0.81534  0.83439  1.0000
  H   H362      1.0  0.19889  0.81617  0.75630  1.0000
  H   H363      1.0  0.17439  0.79144  0.75639  1.0000
  H   H364      1.0  0.16833  0.79687  0.85620  1.0000
  H   H365      1.0  0.19337  0.82206  0.85614  1.0000
  H   H366      1.0  0.30111  0.84951  0.88470  1.0000
  C   C318      1.0  0.01519  0.62527  0.73469  1.0000
  H   H367      1.0  0.32009  0.87099  0.70893  1.0000
  N   N18       1.0  0.32109  0.84684  0.92430  1.0000
  H   H368      1.0  0.27560  0.88361  0.95983  1.0000
  H   H369      1.0  0.11847  0.60811  0.84850  1.0000
  C   C319      1.0  0.01288  0.60908  0.68436  1.0000
  H   H370      1.0  0.29123  0.86086  0.92028  1.0000
  C   C320      1.0  0.07244  0.56945  0.51789  1.0000
  C   C321      1.0  0.23298  0.97440  0.86518  1.0000
  C   C322      1.0  0.24048  0.95556  0.85353  1.0000
  C   C323      1.0  0.25639  0.95439  0.83232  1.0000
  C   C324      1.0  0.26424  0.97191  0.82211  1.0000
  C   C325      1.0  0.14477  0.78540  0.97494  1.0000
  H   H371      1.0  0.22059  0.97546  0.88143  1.0000
  H   H372      1.0  0.26226  0.94003  0.82307  1.0000
  H   H373      1.0  0.27621  0.97085  0.80508  1.0000
  C   C326      1.0  0.11430  0.58152  0.72706  1.0000
  H   H374      1.0  0.22738  0.96099  0.77671  1.0000
  C   C327      1.0  0.03187  0.61417  0.67653  1.0000
  C   C328      1.0  0.22434  0.93433  0.95640  1.0000
  H   H375      1.0  0.10010  0.64004  0.83203  1.0000
  H   H376      1.0  0.01576  0.73172  0.89749  1.0000
  C   C329      1.0  0.31524  0.87132  0.75909  1.0000
  H   H377      1.0  0.27820  0.84943  0.78409  1.0000
  H   H378      1.0  0.08519  0.71049  0.94426  1.0000
  C   C330      1.0  0.22359  0.91483  0.94606  1.0000
  H   H379      1.0  0.06682  0.52032  0.52633  1.0000
  H   H380      1.0  0.01851  0.78090  0.87480  1.0000
  N   N19       1.0  0.10288  0.57619  0.75501  1.0000
  C   C331      1.0  0.12609  0.71767  0.97429  1.0000
  H   H381      1.0  0.12953  0.58508  0.73356  1.0000
  C   C332      1.0  0.32716  0.86995  0.73169  1.0000
  H   H382      1.0  0.04250  0.63873  0.74269  1.0000
  C   C333      1.0  0.10838  0.60377  0.51301  1.0000
  H   H383      1.0  0.07338  0.56849  0.76566  1.0000
  H   H384      1.0  0.10701  0.59484  0.71472  1.0000
  C   C334      1.0  0.31421  0.81642  0.69664  1.0000
  C   C335      1.0  0.22302  0.89942  0.96767  1.0000
  H   H385      1.0  0.05715  0.62887  0.69118  1.0000
  H   H386      1.0  0.22351  0.91167  0.92118  1.0000
  N   N20       1.0  0.16417  0.72540  0.74253  1.0000
  C   C336      1.0  0.18159  0.73727  0.74325  1.0000
  C   C337      1.0  0.14661  0.73900  0.73255  1.0000
  C   C338      1.0  0.16089  0.71850  0.77498  1.0000
  C   C339      1.0  0.16668  0.70798  0.72125  1.0000
  C   C340      1.0  0.15122  0.69526  0.71826  1.0000
  C   C341      1.0  0.18417  0.70312  0.70297  1.0000
  C   C342      1.0  0.15306  0.67883  0.69816  1.0000
  C   C343      1.0  0.18588  0.68656  0.68298  1.0000
  C   C344      1.0  0.17035  0.67446  0.68057  1.0000
  H   H387      1.0  0.18454  0.74363  0.71983  1.0000
  H   H388      1.0  0.17902  0.75021  0.75960  1.0000
  H   H389      1.0  0.19523  0.72818  0.75175  1.0000
  H   H390      1.0  0.14431  0.75247  0.74777  1.0000
  H   H391      1.0  0.13252  0.73178  0.73372  1.0000
  H   H392      1.0  0.14835  0.74419  0.70803  1.0000
  H   H393      1.0  0.17328  0.70746  0.78284  1.0000
  H   H394      1.0  0.15963  0.73110  0.79198  1.0000
  H   H395      1.0  0.14695  0.71119  0.77730  1.0000
  H   H396      1.0  0.13755  0.69789  0.73160  1.0000
  H   H397      1.0  0.19674  0.71183  0.70372  1.0000
  H   H398      1.0  0.14098  0.66939  0.69629  1.0000
  H   H399      1.0  0.19933  0.68304  0.66926  1.0000
  H   H400      1.0  0.17169  0.66164  0.66509  1.0000
  H   H401      1.0  0.22488  0.94615  0.93916  1.0000
  C   C345      1.0  0.00393  0.61443  0.71372  1.0000
  C   C346      1.0  0.99671  0.73646  0.85728  1.0000
  H   H402      1.0  0.06755  0.70539  0.91525  1.0000
  N   N21       1.0  0.07141  0.54891  0.50604  1.0000
  C   C347      1.0  0.15171  0.76624  0.96518  1.0000
  H   H403      1.0  0.13953  0.79651  0.95763  1.0000
  H   H404      1.0  0.08452  0.57011  0.53548  1.0000
  H   H405      1.0  0.07556  0.58001  0.49900  1.0000
  H   H406      1.0  0.03325  0.70553  0.92668  1.0000
  C   C348      1.0  0.04253  0.62473  0.69758  1.0000
  C   C349      1.0  0.99591  0.74172  0.82553  1.0000
  C   C350      1.0  0.09007  0.62821  0.78879  1.0000
  C   C351      1.0  0.00299  0.80562  0.80870  1.0000
  H   H407      1.0  0.07271  0.68798  0.94664  1.0000
  H   H408      1.0  0.00021  0.57319  0.54317  1.0000
  H   H409      1.0  0.01550  0.60291  0.54291  1.0000
  C   C352      1.0  0.26009  0.86027  0.98018  1.0000
  H   H410      1.0  0.16366  0.73692  0.97953  1.0000
  C   C353      1.0  0.30081  0.84791  0.91065  1.0000
  C   C354      1.0  0.11054  0.60894  0.82638  1.0000
  H   H411      1.0  0.20031  0.95213  0.81134  1.0000
  H   H412      1.0  0.11986  0.57888  0.81511  1.0000
  C   C355      1.0  0.25656  0.99078  0.83334  1.0000
  N   N22       1.0  0.27150  0.82429  0.75606  1.0000
  C   C356      1.0  0.25529  0.81995  0.73431  1.0000
  C   C357      1.0  0.27006  0.81142  0.78412  1.0000
  C   C358      1.0  0.26765  0.84542  0.76568  1.0000
  C   C359      1.0  0.29170  0.82110  0.74206  1.0000
  C   C360      1.0  0.30882  0.82283  0.76081  1.0000
  C   C361      1.0  0.29498  0.81773  0.70945  1.0000
  C   C362      1.0  0.30911  0.83294  0.97496  1.0000
  H   H413      1.0  0.06574  0.74374  0.95785  1.0000
  C   C363      1.0  0.21657  0.97266  0.78554  1.0000
  H   H414      1.0  0.25756  0.80434  0.72554  1.0000
  H   H415      1.0  0.24040  0.82181  0.74610  1.0000
  H   H416      1.0  0.25406  0.83044  0.71408  1.0000
  H   H417      1.0  0.27411  0.79544  0.77828  1.0000
  H   H418      1.0  0.25465  0.81290  0.79413  1.0000
  H   H419      1.0  0.27982  0.81544  0.80354  1.0000
  H   H420      1.0  0.26917  0.85567  0.74550  1.0000
  H   H421      1.0  0.25233  0.84873  0.77529  1.0000
  C   C364      1.0  0.32409  0.86855  0.78864  1.0000
  H   H422      1.0  0.04652  0.61591  0.52795  1.0000
  H   H423      1.0  0.28294  0.81656  0.69318  1.0000
  C   C365      1.0  0.03582  0.70620  0.95242  1.0000
  C   C366      1.0  0.27165  0.87639  0.98127  1.0000
  C   C367      1.0  0.06760  0.53612  0.53339  1.0000
  C   C368      1.0  0.18796  0.98259  0.81791  1.0000
  H   H424      1.0  0.30150  0.82208  0.96232  1.0000
  H   H425      1.0  0.11598  0.56908  0.70977  1.0000
  H   H426      1.0  0.10535  0.55252  0.78936  1.0000
  H   H427      1.0  0.03912  0.74480  0.95957  1.0000
  H   H428      1.0  0.29922  0.87381  0.75719  1.0000
  C   C369      1.0  0.01513  0.73540  0.87287  1.0000
  H   H429      1.0  0.12199  0.51634  0.62272  1.0000
  H   H430      1.0  0.15157  0.76241  0.94050  1.0000
  H   H431      1.0  0.08327  0.55884  0.72889  1.0000
  C   C370      1.0  0.03423  0.63024  0.72660  1.0000
  C   C371      1.0  0.01594  0.79669  0.83114  1.0000
  H   H432      1.0  0.07451  0.58448  0.73216  1.0000
  H   H433      1.0  0.03041  0.53837  0.66712  1.0000
  C   C372      1.0  0.10145  0.59314  0.77727  1.0000
  C   C373      1.0  0.07073  0.70416  0.94083  1.0000
  C   C374      1.0  0.00330  0.55221  0.64652  1.0000
  H   H434      1.0  0.11329  0.54487  0.75076  1.0000
  H   H435      1.0  0.08377  0.61386  0.74625  1.0000
  C   C375      1.0  0.08265  0.57189  0.74510  1.0000
  S   S96       1.0  0.10396  0.53214  0.68118  1.0000
  H   H436      1.0  0.31642  0.81448  0.67161  1.0000
  C   C376      1.0  0.09085  0.61168  0.76889  1.0000
  H   H437      1.0  0.12896  0.55885  0.77362  1.0000
  H   H438      1.0  0.17643  0.97857  0.83377  1.0000
  H   H439      1.0  0.03589  0.52995  0.50448  1.0000
  H   H440      1.0  0.08243  0.64239  0.78143  1.0000
  H   H441      1.0  0.05189  0.73781  0.92400  1.0000
  C   C377      1.0  0.00832  0.78818  0.85775  1.0000
  C   C378      1.0  0.11709  0.50403  0.63600  1.0000
  C   C379      1.0  0.03656  0.61152  0.50983  1.0000
  C   C380      1.0  0.20131  0.96764  0.80515  1.0000
  H   H442      1.0  0.03827  0.61007  0.65379  1.0000
  H   H443      1.0  0.02245  0.71497  0.96246  1.0000
  N   N23       1.0  0.05460  0.71496  0.95984  1.0000
  H   H444      1.0  0.05820  0.57533  0.52931  1.0000
  H   H445      1.0  0.05363  0.54172  0.54596  1.0000
  C   C381      1.0  0.05829  0.71380  0.99403  1.0000
  C   C382      1.0  0.15847  0.75188  0.98723  1.0000
  H   H446      1.0  0.03616  0.69071  0.96172  1.0000
  H   H447      1.0  0.08783  0.69653  0.99312  1.0000
  C   C383      1.0  0.22445  0.93855  0.98852  1.0000
  H   H448      1.0  0.99903  0.55990  0.50715  1.0000
  H   H449      1.0  0.30753  0.82644  0.78545  1.0000
  C   C384      1.0  0.21858  0.99266  0.77855  1.0000
  H   H450      1.0  0.29307  0.83443  0.91551  1.0000
  C   C385      1.0  0.01866  0.60407  0.51819  1.0000
  H   H451      1.0  0.32516  0.81469  0.92103  1.0000
  H   H452      1.0  0.31104  0.99062  0.76320  1.0000
  C   C386      1.0  0.99506  0.56625  0.62482  1.0000
  C   C387      1.0  0.32796  0.82127  0.74778  1.0000
  Fe  Fe49      1.0  0.61911  0.06789  0.37631  1.0000
  S   S97       1.0  0.60462  0.08495  0.33522  1.0000
  S   S98       1.0  0.61716  0.08282  0.42414  1.0000
  Fe  Fe50      1.0  0.63015  0.03124  0.33748  1.0000
  S   S99       1.0  0.61595  0.04486  0.29437  1.0000
  C   C388      1.0  0.35378  0.01729  0.26661  1.0000
  Fe  Fe51      1.0  0.63128  0.07171  0.30705  1.0000
  C   C389      1.0  0.35385  0.08323  0.20611  1.0000
  Fe  Fe52      1.0  0.59049  0.05676  0.32544  1.0000
  S   S100      1.0  0.55962  0.05195  0.30642  1.0000
  S   S101      1.0  0.64699  0.05736  0.34903  1.0000
  S   S102      1.0  0.60350  0.04045  0.36774  1.0000
  Fe  Fe53      1.0  0.41480  0.06002  0.38361  1.0000
  S   S103      1.0  0.41496  0.08992  0.36018  1.0000
  S   S104      1.0  0.40944  0.05009  0.43375  1.0000
  Fe  Fe54      1.0  0.42518  0.03814  0.32193  1.0000
  S   S105      1.0  0.42701  0.06629  0.29421  1.0000
  S   S106      1.0  0.43125  0.00787  0.29940  1.0000
  Fe  Fe55      1.0  0.44337  0.07631  0.33665  1.0000
  S   S107      1.0  0.47208  0.09166  0.33994  1.0000
  Fe  Fe56      1.0  0.39849  0.07704  0.31956  1.0000
  S   S108      1.0  0.36829  0.08975  0.29859  1.0000
  S   S109      1.0  0.44365  0.04717  0.36197  1.0000
  S   S110      1.0  0.39630  0.04836  0.34548  1.0000
  C   C390      1.0  0.35559  0.08437  0.26324  1.0000
  H   H453      1.0  0.38989  0.03008  0.28269  1.0000
  C   C391      1.0  0.55193  0.12238  0.27887  1.0000
  C   C392      1.0  0.41182  0.08445  0.46938  1.0000
  C   C393      1.0  0.40986  0.06396  0.46899  1.0000
  C   C394      1.0  0.36492  0.08481  0.23391  1.0000
  C   C395      1.0  0.54298  0.09477  0.24737  1.0000
  H   H454      1.0  0.41204  0.09261  0.44757  1.0000
  C   C396      1.0  0.53552  0.06251  0.31813  1.0000
  C   C397      1.0  0.51873  0.05429  0.30615  1.0000
  C   C398      1.0  0.49924  0.06254  0.31367  1.0000
  C   C399      1.0  0.49632  0.07953  0.33255  1.0000
  C   C400      1.0  0.51312  0.08773  0.34466  1.0000
  C   C401      1.0  0.53262  0.07914  0.33781  1.0000
  H   H455      1.0  0.52080  0.04159  0.29057  1.0000
  H   H456      1.0  0.48650  0.05617  0.30395  1.0000
  H   H457      1.0  0.51110  0.10107  0.35884  1.0000
  H   H458      1.0  0.54538  0.08578  0.34690  1.0000
  H   H459      1.0  0.57219  0.12167  0.20451  1.0000
  C   C402      1.0  0.47540  0.07552  0.47125  1.0000
  H   H460      1.0  0.63069  0.00780  0.39379  1.0000
  H   H461      1.0  0.59388  0.10388  0.20066  1.0000
  H   H462      1.0  0.48299  0.06416  0.39404  1.0000
  N   N24       1.0  0.47540  0.07981  0.43718  1.0000
  H   H463      1.0  0.38053  0.08719  0.23261  1.0000
  C   C403      1.0  0.62090  0.06940  0.45976  1.0000
  H   H464      1.0  0.60260  0.07923  0.24548  1.0000
  H   H465      1.0  0.54642  0.08247  0.23140  1.0000
  H   H466      1.0  0.63613  0.04300  0.43906  1.0000
  N   N25       1.0  0.57853  0.10309  0.24497  1.0000
  H   H467      1.0  0.54143  0.01697  0.33349  1.0000
  H   H468      1.0  0.50434  0.09082  0.43333  1.0000
  H   H469      1.0  0.56560  0.01634  0.37145  1.0000
  C   C404      1.0  0.57850  0.10623  0.21057  1.0000
  H   H470      1.0  0.45299  0.05429  0.46878  1.0000
  H   H471      1.0  0.35231  0.03710  0.19250  1.0000
  H   H472      1.0  0.49805  0.09501  0.48574  1.0000
  H   H473      1.0  0.38449  0.02328  0.18358  1.0000
  H   H474      1.0  0.52805  0.13721  0.30661  1.0000
  H   H475      1.0  0.40822  0.03683  0.25600  1.0000
  H   H476      1.0  0.49773  0.05550  0.42737  1.0000
  C   C405      1.0  0.59259  0.11630  0.25881  1.0000
  C   C406      1.0  0.33502  0.08212  0.26415  1.0000
  H   H477      1.0  0.40604  0.03189  0.20131  1.0000
  C   C407      1.0  0.53226  0.12550  0.28975  1.0000
  C   C408      1.0  0.38954  0.03214  0.20350  1.0000
  H   H478      1.0  0.58786  0.00188  0.38372  1.0000
  C   C409      1.0  0.48780  0.08455  0.49289  1.0000
  C   C410      1.0  0.34786  0.03108  0.21461  1.0000
  C   C411      1.0  0.53668  0.00211  0.33379  1.0000
  C   C412      1.0  0.45487  0.08669  0.42671  1.0000
  N   N26       1.0  0.38364  0.02402  0.23416  1.0000
  C   C413      1.0  0.39188  0.03618  0.25895  1.0000
  H   H479      1.0  0.39210  0.01101  0.32760  1.0000
  H   H480      1.0  0.57860  0.07107  0.23870  1.0000
  H   H481      1.0  0.58492  0.07878  0.27696  1.0000
  H   H482      1.0  0.38460  0.05170  0.25903  1.0000
  H   H483      1.0  0.60805  0.11281  0.24961  1.0000
  C   C414      1.0  0.63105  0.05024  0.46066  1.0000
  H   H484      1.0  0.58820  0.13228  0.25333  1.0000
  H   H485      1.0  0.44828  0.09943  0.44121  1.0000
  C   C415      1.0  0.52339  0.09800  0.25847  1.0000
  H   H486      1.0  0.40545  0.99543  0.39985  1.0000
  H   H487      1.0  0.59367  0.11438  0.28468  1.0000
  S   S111      1.0  0.64452  0.08715  0.26511  1.0000
  C   C416      1.0  0.46277  0.06181  0.48374  1.0000
  H   H488      1.0  0.38335  0.04801  0.20059  1.0000
  H   H489      1.0  0.50289  0.11556  0.28854  1.0000
  C   C417      1.0  0.61456  0.07868  0.48807  1.0000
  H   H490      1.0  0.34938  0.12811  0.23764  1.0000
  H   H491      1.0  0.51238  0.08824  0.25133  1.0000
  C   C418      1.0  0.51802  0.11338  0.27952  1.0000
  H   H492      1.0  0.56951  0.09575  0.19815  1.0000
  C   C419      1.0  0.33329  0.08112  0.20699  1.0000
  C   C420      1.0  0.33478  0.13133  0.24828  1.0000
  C   C421      1.0  0.36177  0.02422  0.23824  1.0000
  H   H493      1.0  0.56220  0.13219  0.28808  1.0000
  C   C422      1.0  0.58649  0.08219  0.25167  1.0000
  C   C423      1.0  0.55789  0.10685  0.25722  1.0000
  H   H494      1.0  0.36121  0.08409  0.18366  1.0000
  H   H495      1.0  0.60670  0.09350  0.48757  1.0000
  H   H496      1.0  0.65461  0.09027  0.47815  1.0000
  H   H497      1.0  0.45449  0.09168  0.40180  1.0000
  H   H498      1.0  0.44472  0.07470  0.42801  1.0000
  H   H499      1.0  0.41924  0.00669  0.47919  1.0000
  H   H500      1.0  0.39930  0.00969  0.43434  1.0000
  C   C424      1.0  0.63529  0.04073  0.48967  1.0000
  H   H501      1.0  0.48371  0.10984  0.44036  1.0000
  H   H502      1.0  0.36340  0.01206  0.28577  1.0000
  H   H503      1.0  0.48752  0.09875  0.40262  1.0000
  H   H504      1.0  0.64361  0.02614  0.49013  1.0000
  H   H505      1.0  0.57372  0.01232  0.31602  1.0000
  C   C425      1.0  0.48248  0.06140  0.41979  1.0000
  C   C426      1.0  0.33320  0.01738  0.27110  1.0000
  C   C427      1.0  0.48836  0.09550  0.42822  1.0000
  H   H506      1.0  0.47254  0.04937  0.42331  1.0000
  S   S112      1.0  0.64507  0.00022  0.33064  1.0000
  H   H507      1.0  0.59694  0.99889  0.32588  1.0000
  C   C428      1.0  0.33333  0.13510  0.28030  1.0000
  C   C429      1.0  0.39322  0.00326  0.23673  1.0000
  C   C430      1.0  0.51666  0.00015  0.32713  1.0000
  C   C431      1.0  0.57222  0.00080  0.37606  1.0000
  H   H508      1.0  0.40972  0.00258  0.23367  1.0000
  H   H509      1.0  0.39094  0.99666  0.26018  1.0000
  H   H510      1.0  0.34676  0.13474  0.29435  1.0000
  C   C432      1.0  0.39839  0.99579  0.32880  1.0000
  C   C433      1.0  0.58091  0.99716  0.32129  1.0000
  H   H511      1.0  0.50650  0.01327  0.32196  1.0000
  C   C434      1.0  0.40826  0.99603  0.42552  1.0000
  H   H512      1.0  0.42437  0.99797  0.42814  1.0000
  H   H513      1.0  0.56410  0.99488  0.39622  1.0000
  Fe  Fe57      1.0  0.64358  0.06852  0.66252  1.0000
  H   H514      1.0  0.52064  0.03202  0.70631  1.0000
  H   H515      1.0  0.54912  0.03982  0.74145  1.0000
  Fe  Fe58      1.0  0.59812  0.07010  0.64992  1.0000
  S   S113      1.0  0.60070  0.03988  0.62774  1.0000
  S   S114      1.0  0.56744  0.08734  0.65612  1.0000
  Fe  Fe59      1.0  0.62175  0.03138  0.66736  1.0000
  H   H516      1.0  0.58359  0.02016  0.67924  1.0000
  Fe  Fe60      1.0  0.62745  0.04952  0.60274  1.0000
  S   S115      1.0  0.63605  0.03806  0.55384  1.0000
  S   S116      1.0  0.61753  0.06093  0.69168  1.0000
  S   S117      1.0  0.62388  0.08068  0.62232  1.0000
  Fe  Fe61      1.0  0.41068  0.07085  0.67471  1.0000
  S   S118      1.0  0.39572  0.06309  0.63012  1.0000
  S   S119      1.0  0.39344  0.08164  0.71898  1.0000
  Fe  Fe62      1.0  0.45322  0.05724  0.64859  1.0000
  S   S120      1.0  0.44063  0.04845  0.60250  1.0000
  S   S121      1.0  0.48631  0.04613  0.65337  1.0000
  Fe  Fe63      1.0  0.42052  0.07683  0.60555  1.0000
  S   S122      1.0  0.41546  0.09659  0.56268  1.0000
  Fe  Fe64      1.0  0.41730  0.03553  0.63101  1.0000
  C   C435      1.0  0.38980  0.11867  0.64920  1.0000
  S   S123      1.0  0.43445  0.08695  0.65015  1.0000
  S   S124      1.0  0.43079  0.04217  0.67716  1.0000
  C   C436      1.0  0.41293  0.08402  0.52673  1.0000
  C   C437      1.0  0.55717  0.03690  0.71888  1.0000
  H   H517      1.0  0.37479  0.03703  0.70513  1.0000
  H   H518      1.0  0.40955  0.05560  0.54808  1.0000
  H   H519      1.0  0.40340  0.00232  0.72427  1.0000
  H   H520      1.0  0.37267  0.08955  0.77731  1.0000
  C   C438      1.0  0.54453  0.07660  0.65186  1.0000
  C   C439      1.0  0.54390  0.05730  0.64014  1.0000
  C   C440      1.0  0.52581  0.04847  0.63985  1.0000
  C   C441      1.0  0.50795  0.05905  0.65021  1.0000
  C   C442      1.0  0.50835  0.07872  0.66051  1.0000
  C   C443      1.0  0.52658  0.08739  0.66150  1.0000
  H   H521      1.0  0.55743  0.04906  0.63181  1.0000
  H   H522      1.0  0.52566  0.03328  0.63176  1.0000
  H   H523      1.0  0.49479  0.08700  0.66884  1.0000
  H   H524      1.0  0.52684  0.10239  0.67041  1.0000
  H   H525      1.0  0.33551  0.10518  0.66234  1.0000
  C   C444      1.0  0.41033  0.06371  0.52628  1.0000
  H   H526      1.0  0.54865  0.04531  0.70006  1.0000
  C   C445      1.0  0.46222  0.05776  0.51587  1.0000
  H   H527      1.0  0.34395  0.13617  0.67569  1.0000
  C   C446      1.0  0.36175  0.08577  0.76037  1.0000
  H   H528      1.0  0.61358  0.07637  0.53864  1.0000
  H   H529      1.0  0.42378  0.00595  0.53570  1.0000
  H   H530      1.0  0.39144  0.10406  0.66157  1.0000
  H   H531      1.0  0.61236  0.00008  0.63136  1.0000
  C   C447      1.0  0.36791  0.08073  0.72959  1.0000
  C   C448      1.0  0.35989  0.13005  0.67682  1.0000
  C   C449      1.0  0.62920  0.05014  0.51798  1.0000
  C   C450      1.0  0.34193  0.10152  0.63961  1.0000
  C   C451      1.0  0.47431  0.06708  0.53646  1.0000
  H   H532      1.0  0.39797  0.11666  0.62654  1.0000
  C   C452      1.0  0.33885  0.99681  0.74171  1.0000
  C   C453      1.0  0.40873  0.05379  0.49759  1.0000
  C   C454      1.0  0.35355  0.07592  0.70801  1.0000
  H   H533      1.0  0.33442  0.06924  0.58045  1.0000
  H   H534      1.0  0.65806  0.07657  0.74131  1.0000
  C   C455      1.0  0.33326  0.07683  0.71687  1.0000
  H   H535      1.0  0.49653  0.08750  0.54121  1.0000
  C   C456      1.0  0.35341  0.01059  0.73810  1.0000
  H   H536      1.0  0.47368  0.06409  0.56143  1.0000
  H   H537      1.0  0.55945  0.01869  0.66213  1.0000
  H   H538      1.0  0.57394  0.99651  0.67524  1.0000
  H   H539      1.0  0.37484  0.14332  0.60440  1.0000
  C   C457      1.0  0.50546  0.00614  0.70733  1.0000
  H   H540      1.0  0.49107  0.01475  0.70420  1.0000
  H   H541      1.0  0.36267  0.08529  0.55766  1.0000
  H   H542      1.0  0.58803  0.01485  0.73828  1.0000
  H   H543      1.0  0.65192  0.08666  0.53485  1.0000
  H   H544      1.0  0.35832  0.02452  0.68065  1.0000
  H   H545      1.0  0.38490  0.01896  0.67765  1.0000
  H   H546      1.0  0.35106  0.15023  0.62247  1.0000
  H   H547      1.0  0.65959  0.06784  0.57781  1.0000
  C   C458      1.0  0.34152  0.08625  0.76943  1.0000
  C   C459      1.0  0.35841  0.11075  0.62745  1.0000
  N   N27       1.0  0.37147  0.00643  0.71834  1.0000
  C   C460      1.0  0.35008  0.02881  0.75489  1.0000
  H   H548      1.0  0.39782  0.12918  0.66338  1.0000
  S   S125      1.0  0.62301  0.00345  0.69633  1.0000
  H   H549      1.0  0.35802  0.07190  0.68432  1.0000
  H   H550      1.0  0.39095  0.02047  0.74984  1.0000
  H   H551      1.0  0.40664  0.03813  0.49768  1.0000
  H   H552      1.0  0.57146  0.04389  0.72023  1.0000
  H   H553      1.0  0.36048  0.04000  0.75349  1.0000
  C   C461      1.0  0.56976  0.01252  0.68081  1.0000
  H   H554      1.0  0.64998  0.10370  0.58161  1.0000
  C   C462      1.0  0.61849  0.06902  0.51705  1.0000
  N   N28       1.0  0.56049  0.01515  0.71214  1.0000
  C   C463      1.0  0.36523  0.10476  0.59709  1.0000
  C   C464      1.0  0.33342  0.08674  0.62271  1.0000
  H   H555      1.0  0.65083  0.99687  0.55487  1.0000
  S   S126      1.0  0.40678  0.00640  0.61675  1.0000
  C   C465      1.0  0.38952  0.00589  0.73825  1.0000
  H   H556      1.0  0.33705  0.09044  0.79307  1.0000
  C   C466      1.0  0.54187  0.00521  0.71223  1.0000
  S   S127      1.0  0.64871  0.03814  0.64074  1.0000
  C   C467      1.0  0.33321  0.03303  0.77382  1.0000
  C   C468      1.0  0.37235  0.02242  0.69450  1.0000
  H   H557      1.0  0.45212  0.04759  0.52498  1.0000
  C   C469      1.0  0.52274  0.01597  0.70870  1.0000
  H   H558      1.0  0.33086  0.04709  0.78631  1.0000
  H   H559      1.0  0.43215  0.00188  0.67201  1.0000
  H   H560      1.0  0.37369  0.15677  0.64040  1.0000
  C   C470      1.0  0.57484  0.00620  0.73592  1.0000
  H   H561      1.0  0.36793  0.14119  0.68963  1.0000
  H   H562      1.0  0.36118  0.11638  0.69173  1.0000
  N   N29       1.0  0.36843  0.12582  0.64508  1.0000
  C   C471      1.0  0.36692  0.14485  0.62732  1.0000
  C   C472      1.0  0.48714  0.08034  0.52499  1.0000
  H   H563      1.0  0.37752  0.11124  0.58612  1.0000
  C   C473      1.0  0.35670  0.08994  0.58045  1.0000
  H   H564      1.0  0.56768  0.00563  0.75938  1.0000
  H   H565      1.0  0.41512  0.11023  0.49838  1.0000
  C   C474      1.0  0.34087  0.08087  0.59330  1.0000
  C   C475      1.0  0.41341  0.09443  0.49819  1.0000
  H   H566      1.0  0.62285  0.99941  0.52720  1.0000
  H   H567      1.0  0.38926  0.99438  0.75697  1.0000
  Fe  Fe65      1.0  0.60491  0.87221  0.41003  1.0000
  S   S128      1.0  0.59156  0.87177  0.36160  1.0000
  S   S129      1.0  0.60897  0.84343  0.43728  1.0000
  Fe  Fe66      1.0  0.60965  0.91578  0.40720  1.0000
  S   S130      1.0  0.59698  0.91892  0.35877  1.0000
  S   S131      1.0  0.61770  0.94244  0.43402  1.0000
  Fe  Fe67      1.0  0.57347  0.90013  0.37634  1.0000
  S   S132      1.0  0.54086  0.91242  0.36961  1.0000
  Fe  Fe68      1.0  0.61637  0.89052  0.34804  1.0000
  S   S133      1.0  0.58513  0.89900  0.42562  1.0000
  S   S134      1.0  0.63075  0.88887  0.39567  1.0000
  Fe  Fe69      1.0  0.42888  0.88047  0.36066  1.0000
  S   S135      1.0  0.41426  0.89822  0.40045  1.0000
  S   S136      1.0  0.46161  0.86770  0.36482  1.0000
  Fe  Fe70      1.0  0.38773  0.87584  0.32849  1.0000
  S   S137      1.0  0.37077  0.89194  0.36763  1.0000
  S   S138      1.0  0.37339  0.86771  0.28207  1.0000
  Fe  Fe71      1.0  0.39418  0.91316  0.36383  1.0000
  S   S139      1.0  0.38142  0.94514  0.36451  1.0000
  Fe  Fe72      1.0  0.39237  0.87530  0.40067  1.0000
  S   S140      1.0  0.38452  0.86046  0.44607  1.0000
  S   S141      1.0  0.41067  0.89789  0.32346  1.0000
  S   S142      1.0  0.40746  0.85679  0.36199  1.0000
  C   C476      1.0  0.34780  0.86885  0.27086  1.0000
  C   C477      1.0  0.34303  0.86739  0.23886  1.0000
  H   H568      1.0  0.63143  0.81065  0.32399  1.0000
  H   H569      1.0  0.62918  0.84667  0.33010  1.0000
  C   C478      1.0  0.36619  0.95100  0.27857  1.0000
  H   H570      1.0  0.42783  0.87042  0.45693  1.0000
  H   H571      1.0  0.35494  0.86506  0.22181  1.0000
  C   C479      1.0  0.38141  0.97616  0.43550  1.0000
  H   H572      1.0  0.46678  0.81657  0.44777  1.0000
  C   C480      1.0  0.35430  0.92273  0.30378  1.0000
  H   H573      1.0  0.47573  0.84022  0.43664  1.0000
  H   H574      1.0  0.33556  0.87274  0.31731  1.0000
  H   H575      1.0  0.39338  0.90090  0.45886  1.0000
  H   H576      1.0  0.64795  0.95767  0.33408  1.0000
  C   C481      1.0  0.33369  0.93941  0.26347  1.0000
  H   H577      1.0  0.57801  0.96117  0.37608  1.0000
  C   C482      1.0  0.38733  0.98174  0.34275  1.0000
  C   C483      1.0  0.39518  0.96181  0.34467  1.0000
  C   C484      1.0  0.41385  0.95576  0.33160  1.0000
  C   C485      1.0  0.42482  0.96990  0.31711  1.0000
  H   H578      1.0  0.33424  0.87147  0.02455  1.0000
  H   H579      1.0  0.45626  0.83047  0.41522  1.0000
  H   H580      1.0  0.42001  0.94033  0.33312  1.0000
  S   S143      1.0  0.63223  0.88679  0.30023  1.0000
  C   C486      1.0  0.51904  0.89964  0.36851  1.0000
  C   C487      1.0  0.50023  0.91082  0.36825  1.0000
  C   C488      1.0  0.48251  0.90134  0.36706  1.0000
  C   C489      1.0  0.48341  0.88051  0.36616  1.0000
  C   C490      1.0  0.50221  0.86932  0.36682  1.0000
  C   C491      1.0  0.51994  0.87880  0.36791  1.0000
  H   H581      1.0  0.49933  0.92693  0.36885  1.0000
  H   H582      1.0  0.46818  0.91015  0.36662  1.0000
  H   H583      1.0  0.50307  0.85321  0.36585  1.0000
  H   H584      1.0  0.53428  0.87002  0.36769  1.0000
  H   H585      1.0  0.40998  0.94597  0.43628  1.0000
  C   C492      1.0  0.41726  0.99004  0.31632  1.0000
  H   H586      1.0  0.41777  0.83850  0.47718  1.0000
  H   H587      1.0  0.65001  0.82384  0.40141  1.0000
  C   C493      1.0  0.63974  0.98424  0.36112  1.0000
  C   C494      1.0  0.63598  0.95067  0.37914  1.0000
  C   C495      1.0  0.62775  0.95835  0.40726  1.0000
  C   C496      1.0  0.62620  0.97892  0.41282  1.0000
  C   C497      1.0  0.52268  0.96450  0.33376  1.0000
  H   H588      1.0  0.63729  0.93477  0.37485  1.0000
  N   N30       1.0  0.53821  0.86712  0.46532  1.0000
  C   C498      1.0  0.53580  0.88828  0.45501  1.0000
  C   C499      1.0  0.44083  0.86221  0.44509  1.0000
  H   H589      1.0  0.35866  0.90614  0.24722  1.0000
  H   H590      1.0  0.61977  0.98491  0.43449  1.0000
  C   C500      1.0  0.64012  0.80914  0.34614  1.0000
  H   H591      1.0  0.59933  0.97113  0.36008  1.0000
  C   C501      1.0  0.63213  0.99189  0.38965  1.0000
  H   H592      1.0  0.38180  0.94604  0.28578  1.0000
  H   H593      1.0  0.36967  0.91849  0.31248  1.0000
  C   C502      1.0  0.41492  0.96039  0.42816  1.0000
  H   H594      1.0  0.43419  0.81611  0.47322  1.0000
  C   C503      1.0  0.58360  0.96873  0.35506  1.0000
  H   H595      1.0  0.55179  0.95253  0.34577  1.0000
  H   H596      1.0  0.50737  0.86368  0.45445  1.0000
  H   H597      1.0  0.64757  0.85800  0.35196  1.0000
  H   H598      1.0  0.43095  0.96046  0.43426  1.0000
  C   C504      1.0  0.46231  0.83201  0.43936  1.0000
  H   H599      1.0  0.52455  0.85589  0.42418  1.0000
  H   H600      1.0  0.62908  0.80816  0.36546  1.0000
  N   N31       1.0  0.44732  0.84286  0.46040  1.0000
  H   H601      1.0  0.43591  0.86006  0.42054  1.0000
  H   H602      1.0  0.63781  0.96735  0.48061  1.0000
  C   C505      1.0  0.54270  0.96629  0.34060  1.0000
  H   H603      1.0  0.34614  0.93188  0.32233  1.0000
  C   C506      1.0  0.40616  0.97814  0.47619  1.0000
  H   H604      1.0  0.34725  0.90858  0.30171  1.0000
  H   H605      1.0  0.53836  0.88974  0.42933  1.0000
  C   C507      1.0  0.39262  0.89310  0.48085  1.0000
  H   H606      1.0  0.45310  0.87207  0.44421  1.0000
  H   H607      1.0  0.51729  0.94984  0.33374  1.0000
  C   C508      1.0  0.63886  0.84484  0.35118  1.0000
  H   H608      1.0  0.37278  0.98642  0.35254  1.0000
  N   N32       1.0  0.57139  0.98779  0.34818  1.0000
  H   H609      1.0  0.39435  0.94965  0.48506  1.0000
  H   H610      1.0  0.55918  0.85918  0.42769  1.0000
  H   H611      1.0  0.58407  0.95843  0.33465  1.0000
  H   H612      1.0  0.36709  0.95991  0.25677  1.0000
  H   H613      1.0  0.36503  0.92782  0.22658  1.0000
  H   H614      1.0  0.62864  0.84564  0.37179  1.0000
  H   H615      1.0  0.57027  0.86596  0.46339  1.0000
  C   C509      1.0  0.55789  0.85814  0.45367  1.0000
  C   C510      1.0  0.65761  0.88359  0.28724  1.0000
  C   C511      1.0  0.36521  0.92052  0.24999  1.0000
  H   H616      1.0  0.52332  0.84070  0.45866  1.0000
  C   C512      1.0  0.60775  0.84271  0.47876  1.0000
  H   H617      1.0  0.43938  0.96531  0.30728  1.0000
  H   H618      1.0  0.42328  0.82878  0.43909  1.0000
  C   C513      1.0  0.64209  0.96361  0.35614  1.0000
  C   C514      1.0  0.42998  0.83101  0.46254  1.0000
  H   H619      1.0  0.37803  0.97735  0.41003  1.0000
  C   C515      1.0  0.52265  0.85638  0.45011  1.0000
  C   C516      1.0  0.38766  0.87347  0.48136  1.0000
  H   H620      1.0  0.64934  0.88542  0.23846  1.0000
  C   C517      1.0  0.55034  0.98524  0.34075  1.0000
  C   C518      1.0  0.50968  0.98137  0.32706  1.0000
  H   H621      1.0  0.56067  0.84201  0.45975  1.0000
  H   H622      1.0  0.60765  0.81078  0.47863  1.0000
  H   H623      1.0  0.37661  0.96157  0.44298  1.0000
  N   N33       1.0  0.35448  0.93372  0.27369  1.0000
  N   N34       1.0  0.40281  0.97785  0.44192  1.0000
  H   H624      1.0  0.49416  0.97990  0.32181  1.0000
  H   H625      1.0  0.35977  0.96079  0.29785  1.0000
  H   H626      1.0  0.38103  0.91623  0.25680  1.0000
  H   H627      1.0  0.41384  0.96025  0.40217  1.0000
  C   C519      1.0  0.45481  0.84621  0.49240  1.0000
  C   C520      1.0  0.33221  0.87174  0.29261  1.0000
  H   H628      1.0  0.58011  0.98808  0.29965  1.0000
  N   N35       1.0  0.65229  0.82603  0.35091  1.0000
  H   H629      1.0  0.64971  0.79470  0.34511  1.0000
  C   C521      1.0  0.41474  0.99391  0.49163  1.0000
  H   H630      1.0  0.64463  0.83235  0.28817  1.0000
  C   C522      1.0  0.60712  0.82407  0.49294  1.0000
  H   H631      1.0  0.54663  0.89708  0.46712  1.0000
  H   H632      1.0  0.48370  0.82808  0.48870  1.0000
  H   H633      1.0  0.33381  0.97203  0.26503  1.0000
  H   H634      1.0  0.60753  0.87435  0.48705  1.0000
  H   H635      1.0  0.37175  0.98817  0.44766  1.0000
  H   H636      1.0  0.52060  0.89569  0.45960  1.0000
  C   C523      1.0  0.40096  0.96212  0.49518  1.0000
  C   C524      1.0  0.66033  0.82985  0.29372  1.0000
  H   H637      1.0  0.38729  0.99345  0.21881  1.0000
  Fe  Fe73      1.0  0.60078  0.90200  0.64096  1.0000
  S   S144      1.0  0.59700  0.89658  0.69252  1.0000
  S   S145      1.0  0.59871  0.93148  0.61610  1.0000
  Fe  Fe74      1.0  0.60220  0.85898  0.62352  1.0000
  S   S146      1.0  0.59850  0.84968  0.67376  1.0000
  S   S147      1.0  0.60312  0.83543  0.58566  1.0000
  Fe  Fe75      1.0  0.57495  0.87566  0.67686  1.0000
  S   S148      1.0  0.54550  0.87770  0.70346  1.0000
  Fe  Fe76      1.0  0.62113  0.87112  0.68597  1.0000
  S   S149      1.0  0.57696  0.88318  0.62601  1.0000
  S   S150      1.0  0.62651  0.87826  0.63500  1.0000
  Fe  Fe77      1.0  0.43509  0.86613  0.65939  1.0000
  S   S151      1.0  0.43389  0.89696  0.64033  1.0000
  S   S152      1.0  0.46525  0.84901  0.64861  1.0000
  Fe  Fe78      1.0  0.39098  0.87263  0.68103  1.0000
  S   S153      1.0  0.38750  0.90420  0.66299  1.0000
  S   S154      1.0  0.36220  0.86048  0.69862  1.0000
  Fe  Fe79      1.0  0.40421  0.89214  0.62028  1.0000
  S   S155      1.0  0.40033  0.90625  0.57212  1.0000
  Fe  Fe80      1.0  0.41766  0.90616  0.68420  1.0000
  S   S156      1.0  0.42862  0.93319  0.70655  1.0000
  S   S157      1.0  0.40607  0.86028  0.63629  1.0000
  S   S158      1.0  0.42044  0.87547  0.70544  1.0000
  C   C525      1.0  0.39524  0.89308  0.53785  1.0000
  H   H638      1.0  0.61108  0.95034  0.50246  1.0000
  C   C526      1.0  0.39010  0.87347  0.53855  1.0000
  C   C527      1.0  0.42646  0.98790  0.66703  1.0000
  H   H639      1.0  0.38901  0.86589  0.56077  1.0000
  C   C528      1.0  0.34811  0.86657  0.73341  1.0000
  C   C529      1.0  0.52547  0.96621  0.63188  1.0000
  C   C530      1.0  0.54380  0.93609  0.65114  1.0000
  C   C531      1.0  0.34504  0.86565  0.79038  1.0000
  C   C532      1.0  0.35697  0.86484  0.76306  1.0000
  H   H640      1.0  0.60523  0.87123  0.54543  1.0000
  H   H641      1.0  0.47117  0.94436  0.61725  1.0000
  H   H642      1.0  0.37300  0.86186  0.76486  1.0000
  C   C533      1.0  0.54917  0.85728  0.55234  1.0000
  C   C534      1.0  0.60701  0.85984  0.49774  1.0000
  C   C535      1.0  0.43076  0.97171  0.68747  1.0000
  C   C536      1.0  0.42359  0.95339  0.68098  1.0000
  C   C537      1.0  0.41255  0.95120  0.65377  1.0000
  C   C538      1.0  0.40781  0.96747  0.63386  1.0000
  H   H643      1.0  0.35214  0.86352  0.81300  1.0000
  H   H644      1.0  0.47156  0.85271  0.57960  1.0000
  H   H645      1.0  0.40733  0.93705  0.64811  1.0000
  H   H646      1.0  0.39854  0.96577  0.61356  1.0000
  C   C539      1.0  0.52346  0.86947  0.68771  1.0000
  C   C540      1.0  0.52360  0.85839  0.66000  1.0000
  C   C541      1.0  0.50569  0.85214  0.64830  1.0000
  C   C542      1.0  0.48744  0.85732  0.66375  1.0000
  C   C543      1.0  0.48731  0.86861  0.69124  1.0000
  C   C544      1.0  0.50528  0.87431  0.70344  1.0000
  H   H647      1.0  0.53755  0.85433  0.64794  1.0000
  H   H648      1.0  0.50595  0.84320  0.62724  1.0000
  H   H649      1.0  0.47340  0.87249  0.70356  1.0000
  H   H650      1.0  0.50506  0.88258  0.72518  1.0000
  C   C545      1.0  0.60515  0.83923  0.54474  1.0000
  C   C546      1.0  0.60574  0.85809  0.53079  1.0000
  C   C547      1.0  0.60577  0.82236  0.52555  1.0000
  H   H651      1.0  0.52970  0.86508  0.59128  1.0000
  C   C548      1.0  0.61654  0.96446  0.68797  1.0000
  C   C549      1.0  0.61102  0.94837  0.67032  1.0000
  C   C550      1.0  0.60528  0.95123  0.63904  1.0000
  C   C551      1.0  0.60526  0.97007  0.62536  1.0000
  H   H652      1.0  0.57763  0.86899  0.75307  1.0000
  H   H653      1.0  0.61140  0.93379  0.68087  1.0000
  H   H654      1.0  0.60104  0.97226  0.60109  1.0000
  H   H655      1.0  0.65272  0.98184  0.50440  1.0000
  H   H656      1.0  0.61840  0.84468  0.80163  1.0000
  C   C552      1.0  0.47030  0.94111  0.64276  1.0000
  C   C553      1.0  0.44881  0.86026  0.54518  1.0000
  H   H657      1.0  0.38577  0.98453  0.68652  1.0000
  C   C554      1.0  0.61574  0.98521  0.52765  1.0000
  C   C555      1.0  0.55156  0.85756  0.51978  1.0000
  N   N36       1.0  0.48846  0.92886  0.65408  1.0000
  N   N37       1.0  0.63047  0.96729  0.52985  1.0000
  H   H658      1.0  0.46756  0.95542  0.65581  1.0000
  H   H659      1.0  0.47577  0.90204  0.64001  1.0000
  C   C556      1.0  0.50715  0.93834  0.64921  1.0000
  C   C557      1.0  0.58513  0.82903  0.74771  1.0000
  C   C558      1.0  0.52590  0.92782  0.65670  1.0000
  H   H660      1.0  0.33397  0.82750  0.88781  1.0000
  H   H661      1.0  0.56429  0.84956  0.79570  1.0000
  C   C559      1.0  0.46715  0.85121  0.55533  1.0000
  H   H662      1.0  0.52537  0.98121  0.62251  1.0000
  H   H663      1.0  0.49374  0.83275  0.54266  1.0000
  H   H664      1.0  0.40051  0.91786  0.50834  1.0000
  H   H665      1.0  0.49400  0.96737  0.63123  1.0000
  C   C560      1.0  0.64108  0.96711  0.56025  1.0000
  C   C561      1.0  0.61680  0.98324  0.67404  1.0000
  C   C562      1.0  0.51580  0.87354  0.54719  1.0000
  H   H666      1.0  0.65205  0.93859  0.62598  1.0000
  C   C563      1.0  0.40411  0.96187  0.52756  1.0000
  H   H667      1.0  0.55758  0.96140  0.63407  1.0000
  H   H668      1.0  0.52693  0.91299  0.66674  1.0000
  C   C564      1.0  0.53608  0.86611  0.49985  1.0000
  C   C565      1.0  0.55795  0.82159  0.71264  1.0000
  C   C566      1.0  0.65067  0.98392  0.56977  1.0000
  H   H669      1.0  0.34007  0.98249  0.73018  1.0000
  C   C567      1.0  0.61944  0.94950  0.52501  1.0000
  H   H670      1.0  0.62083  0.96229  0.71225  1.0000
  C   C568      1.0  0.50745  0.95800  0.63704  1.0000
  C   C569      1.0  0.59271  0.86239  0.76043  1.0000
  C   C570      1.0  0.58987  0.80212  0.70870  1.0000
  H   H671      1.0  0.60675  0.98518  0.50578  1.0000
  H   H672      1.0  0.40000  0.94947  0.54171  1.0000
  H   H673      1.0  0.65676  0.95504  0.50527  1.0000
  H   H674      1.0  0.55517  0.84481  0.74633  1.0000
  H   H675      1.0  0.62418  0.83548  0.76353  1.0000
  C   C571      1.0  0.56520  0.83276  0.73687  1.0000
  H   H676      1.0  0.34074  0.82348  0.76231  1.0000
  C   C572      1.0  0.61147  0.98592  0.64261  1.0000
  H   H677      1.0  0.56470  0.79793  0.67937  1.0000
  H   H678      1.0  0.45664  0.93332  0.64634  1.0000
  H   H679      1.0  0.35928  0.98662  0.68538  1.0000
  C   C573      1.0  0.57944  0.84207  0.80043  1.0000
  C   C574      1.0  0.59731  0.81327  0.73286  1.0000
  H   H680      1.0  0.56132  0.85089  0.56708  1.0000
  C   C575      1.0  0.51807  0.87400  0.51459  1.0000
  C   C576      1.0  0.65195  0.95116  0.61003  1.0000
  H   H681      1.0  0.34543  0.81814  0.70555  1.0000
  H   H682      1.0  0.48395  0.93932  0.70145  1.0000
  H   H683      1.0  0.33751  0.87212  0.96792  1.0000
  H   H684      1.0  0.60263  0.86273  0.73963  1.0000
  H   H685      1.0  0.55660  0.97477  0.71390  1.0000
  C   C577      1.0  0.48566  0.92512  0.68797  1.0000
  H   H686      1.0  0.58543  0.85041  0.82022  1.0000
  H   H687      1.0  0.47199  0.91745  0.69245  1.0000
  H   H688      1.0  0.55796  0.92756  0.65633  1.0000
  H   H689      1.0  0.60530  0.80777  0.53603  1.0000
  H   H690      1.0  0.34682  0.86328  0.91838  1.0000
  H   H691      1.0  0.57774  0.82664  0.80869  1.0000
  H   H692      1.0  0.59953  0.79047  0.69721  1.0000
  C   C578      1.0  0.44272  0.85782  0.51427  1.0000
  C   C579      1.0  0.37223  0.98710  0.70140  1.0000
  H   H693      1.0  0.61422  0.81943  0.79240  1.0000
  N   N38       1.0  0.59262  0.84174  0.77247  1.0000
  H   H694      1.0  0.54281  0.82517  0.70429  1.0000
  C   C580      1.0  0.41762  0.99362  0.52410  1.0000
  H   H695      1.0  0.50179  0.89862  0.64603  1.0000
  H   H696      1.0  0.62972  0.93551  0.52373  1.0000
  H   H697      1.0  0.52611  0.95822  0.71292  1.0000
  C   C581      1.0  0.39647  0.90279  0.50894  1.0000
  H   H698      1.0  0.33114  0.86350  0.88485  1.0000
  S   S159      1.0  0.64456  0.85913  0.72280  1.0000
  H   H699      1.0  0.49220  0.91160  0.61167  1.0000
  H   H700      1.0  0.37289  0.97419  0.71784  1.0000
  H   H701      1.0  0.38230  0.84854  0.51093  1.0000
  C   C582      1.0  0.53136  0.86527  0.56602  1.0000
  H   H702      1.0  0.43958  0.97338  0.70827  1.0000
  C   C583      1.0  0.41457  0.98592  0.64060  1.0000
  C   C584      1.0  0.61320  0.83491  0.78296  1.0000
  H   H703      1.0  0.61279  0.80957  0.73885  1.0000
  H   H704      1.0  0.59828  0.87255  0.77819  1.0000
  C   C585      1.0  0.47957  0.83991  0.53444  1.0000
  H   H705      1.0  0.49315  0.97795  0.70813  1.0000
  C   C586      1.0  0.54360  0.95519  0.63859  1.0000
  C   C587      1.0  0.64243  0.95047  0.58100  1.0000
  C   C588      1.0  0.38623  0.86372  0.51031  1.0000
  C   C589      1.0  0.57027  0.80631  0.69856  1.0000
  H   H706      1.0  0.49838  0.91554  0.69820  1.0000
  H   H707      1.0  0.50193  0.87967  0.55796  1.0000
  H   H708      1.0  0.43900  0.86888  0.56156  1.0000
  C   C590      1.0  0.48966  0.90952  0.63717  1.0000
  H   H709      1.0  0.34779  0.82650  0.92399  1.0000
  H   H710      1.0  0.60838  0.94797  0.54413  1.0000
  C   C591      1.0  0.64509  0.96795  0.50396  1.0000
  H   H711      1.0  0.63568  0.93695  0.57598  1.0000
  C   C592      1.0  0.66044  0.96824  0.61918  1.0000
  C   C593      1.0  0.33063  0.81831  0.71573  1.0000
  H   H712      1.0  0.50564  0.88071  0.50099  1.0000
  C   C594      1.0  0.41242  0.97761  0.54194  1.0000
  H   H713      1.0  0.60528  0.98602  0.54793  1.0000
  H   H714      1.0  0.41475  0.97746  0.56704  1.0000
  H   H715      1.0  0.42815  0.86474  0.50789  1.0000
  C   C595      1.0  0.52516  0.97438  0.71211  1.0000
  C   C596      1.0  0.33096  0.86376  0.91101  1.0000
  C   C597      1.0  0.33250  0.82805  0.91385  1.0000
  C   C598      1.0  0.50663  0.98542  0.70930  1.0000
  C   C599      1.0  0.32911  0.86082  0.97782  1.0000
  C   C600      1.0  0.54257  0.98405  0.71309  1.0000
  C   C601      1.0  0.47358  0.83736  0.50339  1.0000
  H   H716      1.0  0.56577  0.85106  0.51096  1.0000
  H   H717      1.0  0.58141  0.99094  0.72953  1.0000
  C   C602      1.0  0.65995  0.98453  0.59896  1.0000
  H   H718      1.0  0.66041  0.89846  0.72701  1.0000
  Fe  Fe81      1.0  0.79633  0.09121  0.15437  1.0000
  S   S160      1.0  0.76544  0.10749  0.15282  1.0000
  S   S161      1.0  0.82612  0.10466  0.16330  1.0000
  Fe  Fe82      1.0  0.78000  0.05052  0.13835  1.0000
  S   S162      1.0  0.74855  0.06463  0.13443  1.0000
  S   S163      1.0  0.78555  0.01775  0.12422  1.0000
  Fe  Fe83      1.0  0.76181  0.08932  0.10896  1.0000
  S   S164      1.0  0.74920  0.10311  0.06369  1.0000
  Fe  Fe84      1.0  0.75485  0.08100  0.17866  1.0000
  S   S165      1.0  0.73654  0.07809  0.22375  1.0000
  S   S166      1.0  0.79293  0.07422  0.10955  1.0000
  S   S167      1.0  0.78622  0.06580  0.18343  1.0000
  Fe  Fe85      1.0  0.91752  0.39405  0.35571  1.0000
  S   S168      1.0  0.93030  0.38726  0.40346  1.0000
  S   S169      1.0  0.90302  0.42515  0.34323  1.0000
  Fe  Fe86      1.0  0.93036  0.35150  0.32993  1.0000
  S   S170      1.0  0.94443  0.34193  0.37606  1.0000
  S   S171      1.0  0.93731  0.33202  0.28596  1.0000
  Fe  Fe87      1.0  0.91742  0.35804  0.39919  1.0000
  S   S172      1.0  0.90787  0.34203  0.44261  1.0000
  Fe  Fe88      1.0  0.95609  0.37168  0.37740  1.0000
  C   C603      1.0  0.95603  0.23753  0.21749  1.0000
  S   S173      1.0  0.90206  0.36564  0.35288  1.0000
  S   S174      1.0  0.94451  0.38060  0.32972  1.0000
  Fe  Fe89      1.0  0.91581  0.23179  0.10198  1.0000
  S   S175      1.0  0.92177  0.19880  0.10957  1.0000
  S   S176      1.0  0.92243  0.24403  0.05381  1.0000
  Fe  Fe90      1.0  0.90913  0.24041  0.17290  1.0000
  S   S177      1.0  0.91456  0.20761  0.18443  1.0000
  S   S178      1.0  0.89940  0.26070  0.21466  1.0000
  Fe  Fe91      1.0  0.94027  0.20758  0.15032  1.0000
  S   S179      1.0  0.97152  0.19252  0.15972  1.0000
  Fe  Fe92      1.0  0.89537  0.20198  0.14256  1.0000
  S   S180      1.0  0.86663  0.18600  0.13903  1.0000
  S   S181      1.0  0.93576  0.24041  0.14107  1.0000
  S   S182      1.0  0.88852  0.23500  0.13277  1.0000
  C   C604      1.0  0.92604  0.31267  0.26600  1.0000
  C   C605      1.0  0.93567  0.30371  0.23943  1.0000
  C   C606      1.0  0.92771  0.28800  0.22325  1.0000
  C   C607      1.0  0.90997  0.28092  0.23350  1.0000
  C   C608      1.0  0.90031  0.28991  0.25998  1.0000
  C   C609      1.0  0.90822  0.30569  0.27607  1.0000
  H   H719      1.0  0.94943  0.30896  0.23133  1.0000
  H   H720      1.0  0.93525  0.28150  0.20279  1.0000
  H   H721      1.0  0.88657  0.28466  0.26818  1.0000
  H   H722      1.0  0.90058  0.31237  0.29637  1.0000
  H   H723      1.0  0.78448  0.11768  0.08413  1.0000
  C   C610      1.0  0.91012  0.23844  0.01871  1.0000
  H   H724      1.0  0.98634  0.36584  0.33052  1.0000
  H   H725      1.0  0.80811  0.11757  0.10269  1.0000
  H   H726      1.0  0.88550  0.22596  0.04090  1.0000
  H   H727      1.0  0.90251  0.43487  0.41284  1.0000
  H   H728      1.0  0.87113  0.13328  0.09291  1.0000
  N   N39       1.0  0.97295  0.43197  0.28583  1.0000
  H   H729      1.0  0.89265  0.38283  0.45907  1.0000
  C   C611      1.0  0.90330  0.35436  0.47888  1.0000
  H   H730      1.0  0.89803  0.42151  0.46605  1.0000
  H   H731      1.0  0.70942  0.04682  0.13506  1.0000
  H   H732      1.0  0.97830  0.23446  0.15130  1.0000
  H   H733      1.0  0.95678  0.46597  0.37322  1.0000
  C   C612      1.0  0.95966  0.36293  0.47605  1.0000
  H   H734      1.0  0.72816  0.02693  0.21291  1.0000
  H   H735      1.0  0.97216  0.41166  0.32480  1.0000
  C   C613      1.0  0.86012  0.15655  0.06113  1.0000
  C   C614      1.0  0.99256  0.22566  0.15266  1.0000
  H   H736      1.0  0.97985  0.42070  0.23942  1.0000
  C   C615      1.0  0.90421  0.46569  0.33724  1.0000
  C   C616      1.0  0.91423  0.44767  0.34811  1.0000
  C   C617      1.0  0.93302  0.44799  0.36185  1.0000
  H   H737      1.0  0.88963  0.46562  0.32668  1.0000
  H   H738      1.0  0.94077  0.43427  0.37070  1.0000
  C   C618      1.0  0.83689  0.12765  0.15703  1.0000
  C   C619      1.0  0.85742  0.12832  0.16271  1.0000
  C   C620      1.0  0.86677  0.14597  0.15766  1.0000
  C   C621      1.0  0.85573  0.16328  0.14662  1.0000
  C   C622      1.0  0.83516  0.16268  0.14122  1.0000
  C   C623      1.0  0.82579  0.14510  0.14659  1.0000
  H   H739      1.0  0.86620  0.11502  0.17099  1.0000
  H   H740      1.0  0.88255  0.14608  0.16208  1.0000
  H   H741      1.0  0.82636  0.17597  0.13302  1.0000
  H   H742      1.0  0.80993  0.14514  0.14302  1.0000
  H   H743      1.0  0.72282  0.02323  0.12729  1.0000
  H   H744      1.0  0.99217  0.37753  0.46430  1.0000
  C   C624      1.0  0.98089  0.45134  0.27967  1.0000
  C   C625      1.0  0.69027  0.99674  0.19241  1.0000
  C   C626      1.0  0.89700  0.47934  0.45304  1.0000
  C   C627      1.0  0.71067  0.07998  0.23357  1.0000
  C   C628      1.0  0.70480  0.07099  0.26146  1.0000
  H   H745      1.0  0.93407  0.24802  0.27711  1.0000
  C   C629      1.0  0.69601  0.09050  0.21511  1.0000
  H   H746      1.0  0.71599  0.06298  0.27610  1.0000
  C   C630      1.0  0.94742  0.25498  0.28252  1.0000
  H   H747      1.0  0.70026  0.09767  0.19377  1.0000
  C   C631      1.0  0.76921  0.07346  0.02768  1.0000
  C   C632      1.0  0.75692  0.09144  0.02792  1.0000
  N   N40       1.0  0.98671  0.21694  0.05241  1.0000
  H   H748      1.0  0.77320  0.06589  0.04945  1.0000
  H   H749      1.0  0.98926  0.21163  0.22084  1.0000
  H   H750      1.0  0.72910  0.04689  0.18572  1.0000
  H   H751      1.0  0.95468  0.47055  0.29614  1.0000
  C   C633      1.0  0.96959  0.46979  0.28664  1.0000
  C   C634      1.0  0.68509  0.09691  0.47917  1.0000
  H   H752      1.0  0.74102  0.02309  0.17603  1.0000
  C   C635      1.0  0.94540  0.27121  0.30303  1.0000
  C   C636      1.0  0.98068  0.23797  0.06122  1.0000
  H   H753      1.0  0.94304  0.21653  0.26426  1.0000
  H   H754      1.0  0.77755  0.01198  0.19092  1.0000
  H   H755      1.0  0.98064  0.24003  0.08711  1.0000
  C   C637      1.0  0.97998  0.27612  0.29537  1.0000
  C   C638      1.0  0.94202  0.46598  0.36332  1.0000
  C   C639      1.0  0.98846  0.22507  0.23618  1.0000
  C   C640      1.0  0.97801  0.42600  0.31844  1.0000
  H   H756      1.0  0.81629  0.15964  0.02255  1.0000
  H   H757      1.0  0.94278  0.44218  0.30052  1.0000
  H   H758      1.0  0.93995  0.24152  0.22273  1.0000
  H   H759      1.0  0.80050  0.09447  0.04256  1.0000
  C   C641      1.0  0.95938  0.21397  0.26013  1.0000
  H   H760      1.0  0.97173  0.43743  0.33545  1.0000
  S   S183      1.0  0.98641  0.37561  0.39621  1.0000
  H   H761      1.0  0.99442  0.42408  0.32208  1.0000
  C   C642      1.0  0.77949  0.99695  0.14641  1.0000
  N   N41       1.0  0.96763  0.23157  0.24599  1.0000
  C   C643      1.0  0.77641  0.99804  0.17881  1.0000
  C   C644      1.0  0.72757  0.03068  0.18755  1.0000
  H   H762      1.0  0.96161  0.25079  0.20613  1.0000
  H   H763      1.0  0.71527  0.10310  0.48712  1.0000
  C   C645      1.0  0.99345  0.20494  0.15625  1.0000
  C   C646      1.0  0.96601  0.24851  0.26826  1.0000
  C   C647      1.0  0.69218  0.03881  0.18746  1.0000
  N   N42       1.0  0.70876  0.02564  0.17307  1.0000
  H   H764      1.0  0.66473  0.10092  0.21079  1.0000
  H   H765      1.0  0.79457  0.14083  0.09154  1.0000
  C   C648      1.0  0.82792  0.15307  0.03777  1.0000
  C   C649      1.0  0.97746  0.48801  0.28216  1.0000
  C   C650      1.0  0.89216  0.22966  0.01883  1.0000
  H   H766      1.0  0.67847  0.00649  0.20310  1.0000
  H   H767      1.0  0.82232  0.10120  0.02267  1.0000
  H   H768      1.0  0.97100  0.35188  0.46518  1.0000
  C   C651      1.0  0.95092  0.43315  0.28203  1.0000
  C   C652      1.0  0.98163  0.41600  0.26435  1.0000
  C   C653      1.0  0.67584  0.09234  0.22488  1.0000
  C   C654      1.0  0.71006  0.00396  0.27040  1.0000
  C   C655      1.0  0.68463  0.07264  0.27103  1.0000
  H   H769      1.0  0.95856  0.37687  0.46183  1.0000
  H   H770      1.0  0.90197  0.47040  0.40393  1.0000
  C   C656      1.0  0.84253  0.12802  0.07400  1.0000
  C   C657      1.0  0.98658  0.21513  0.01779  1.0000
  H   H771      1.0  0.68047  0.06590  0.29280  1.0000
  C   C658      1.0  0.85921  0.13860  0.07701  1.0000
  H   H772      1.0  0.69600  0.02568  0.12685  1.0000
  H   H773      1.0  0.68268  0.00601  0.29674  1.0000
  C   C659      1.0  0.96157  0.28188  0.30921  1.0000
  H   H774      1.0  0.82304  0.09461  0.06360  1.0000
  C   C660      1.0  0.77657  0.06525  0.99918  1.0000
  H   H775      1.0  0.87268  0.16516  0.06485  1.0000
  H   H776      1.0  0.96536  0.24315  0.05300  1.0000
  H   H777      1.0  0.84209  0.11478  0.08830  1.0000
  C   C661      1.0  0.89567  0.37444  0.48047  1.0000
  C   C662      1.0  0.84458  0.16371  0.04141  1.0000
  N   N43       1.0  0.84049  0.22131  0.20808  1.0000
  C   C663      1.0  0.83370  0.22889  0.17681  1.0000
  C   C664      1.0  0.83158  0.23514  0.23249  1.0000
  C   C665      1.0  0.86244  0.22187  0.20931  1.0000
  C   C666      1.0  0.83411  0.20111  0.21317  1.0000
  C   C667      1.0  0.81356  0.19810  0.21228  1.0000
  C   C668      1.0  0.84778  0.18400  0.21895  1.0000
  C   C669      1.0  0.80714  0.17915  0.21647  1.0000
  C   C670      1.0  0.84118  0.16515  0.22330  1.0000
  C   C671      1.0  0.82094  0.16270  0.22188  1.0000
  H   H778      1.0  0.81721  0.23108  0.17487  1.0000
  H   H779      1.0  0.83927  0.24354  0.17132  1.0000
  H   H780      1.0  0.83926  0.21830  0.15799  1.0000
  H   H781      1.0  0.81504  0.23715  0.23132  1.0000
  H   H782      1.0  0.83675  0.25029  0.23011  1.0000
  H   H783      1.0  0.83579  0.22951  0.25638  1.0000
  H   H784      1.0  0.87006  0.21225  0.19088  1.0000
  H   H785      1.0  0.86677  0.23719  0.20509  1.0000
  H   H786      1.0  0.86864  0.21712  0.23259  1.0000
  H   H787      1.0  0.80229  0.21036  0.20795  1.0000
  H   H788      1.0  0.86372  0.18460  0.21927  1.0000
  H   H789      1.0  0.79142  0.17712  0.21515  1.0000
  H   H790      1.0  0.85187  0.15218  0.22672  1.0000
  H   H791      1.0  0.81601  0.14792  0.22434  1.0000
  H   H792      1.0  0.94516  0.41825  0.28409  1.0000
  H   H793      1.0  0.84521  0.17791  0.02963  1.0000
  H   H794      1.0  0.69414  0.05487  0.18380  1.0000
  H   H795      1.0  0.97446  0.40191  0.26740  1.0000
  H   H796      1.0  0.94621  0.43957  0.25886  1.0000
  H   H797      1.0  0.97532  0.18842  0.05857  1.0000
  C   C672      1.0  0.89444  0.47110  0.48329  1.0000
  C   C673      1.0  0.89490  0.45047  0.48788  1.0000
  C   C674      1.0  0.70682  0.00408  0.17706  1.0000
  C   C675      1.0  0.90003  0.46563  0.42776  1.0000
  H   H798      1.0  0.95691  0.22526  0.20000  1.0000
  C   C676      1.0  0.70925  0.03049  0.13914  1.0000
  N   N44       1.0  0.80832  0.12403  0.05303  1.0000
  C   C677      1.0  0.79849  0.12509  0.08416  1.0000
  C   C678      1.0  0.79340  0.13220  0.02957  1.0000
  C   C679      1.0  0.81390  0.10273  0.04509  1.0000
  C   C680      1.0  0.82632  0.13492  0.05431  1.0000
  H   H799      1.0  0.67753  0.03642  0.17694  1.0000
  C   C681      1.0  0.90043  0.44504  0.43259  1.0000
  H   H800      1.0  0.93098  0.27609  0.31324  1.0000
  H   H801      1.0  0.96671  0.20987  0.28290  1.0000
  C   C682      1.0  0.93217  0.48392  0.35183  1.0000
  C   C683      1.0  0.91305  0.48376  0.33927  1.0000
  H   H802      1.0  0.96151  0.20068  0.24444  1.0000
  C   C684      1.0  0.89788  0.43748  0.46255  1.0000
  H   H803      1.0  0.78626  0.05142  0.99932  1.0000
  H   H804      1.0  0.95658  0.20939  0.06096  1.0000
  H   H805      1.0  0.97314  0.20409  0.09268  1.0000
  C   C685      1.0  0.67002  0.08360  0.25304  1.0000
  H   H806      1.0  0.95962  0.29499  0.32410  1.0000
  H   H807      1.0  0.78717  0.14768  0.03548  1.0000
  H   H808      1.0  0.78029  0.12339  0.02885  1.0000
  H   H809      1.0  0.71089  0.01997  0.27024  1.0000
  H   H810      1.0  0.69148  0.03666  0.21332  1.0000
  H   H811      1.0  0.68604  0.09844  0.45392  1.0000
  H   H812      1.0  0.94502  0.35675  0.47348  1.0000
  C   C686      1.0  0.97235  0.20415  0.06661  1.0000
  C   C687      1.0  0.98229  0.25967  0.27520  1.0000
  C   C688      1.0  0.66737  0.09231  0.49287  1.0000
  H   H813      1.0  0.73746  0.99727  0.24488  1.0000
  H   H814      1.0  0.99241  0.28470  0.29996  1.0000
  H   H815      1.0  0.99092  0.24815  0.05080  1.0000
  H   H816      1.0  0.74199  0.11473  0.99924  1.0000
  C   C689      1.0  0.75160  0.10085  0.99927  1.0000
  C   C690      1.0  0.69421  0.99609  0.28532  1.0000
  H   H817      1.0  0.79978  0.13183  0.00548  1.0000
  H   H818      1.0  0.95441  0.22215  0.01306  1.0000
  H   H819      1.0  0.99437  0.47546  0.35995  1.0000
  C   C691      1.0  0.96838  0.21837  0.00100  1.0000
  Fe  Fe93      1.0  0.74801  0.07999  0.82699  1.0000
  S   S184      1.0  0.77406  0.07671  0.79410  1.0000
  S   S185      1.0  0.71524  0.08231  0.81141  1.0000
  Fe  Fe94      1.0  0.77533  0.07180  0.88488  1.0000
  S   S186      1.0  0.80301  0.06733  0.85497  1.0000
  S   S187      1.0  0.78206  0.06393  0.93581  1.0000
  Fe  Fe95      1.0  0.79013  0.09471  0.82917  1.0000
  S   S188      1.0  0.80712  0.12136  0.81442  1.0000
  Fe  Fe96      1.0  0.78463  0.04979  0.82332  1.0000
  S   S189      1.0  0.79367  0.02027  0.79883  1.0000
  S   S190      1.0  0.76298  0.10005  0.86049  1.0000
  S   S191      1.0  0.75806  0.05230  0.85476  1.0000
  Fe  Fe97      1.0  0.91178  0.35561  0.68284  1.0000
  S   S192      1.0  0.91755  0.34363  0.63382  1.0000
  S   S193      1.0  0.90238  0.33990  0.72772  1.0000
  Fe  Fe98      1.0  0.92781  0.39631  0.66654  1.0000
  S   S194      1.0  0.93499  0.38694  0.61724  1.0000
  S   S195      1.0  0.93820  0.42538  0.68480  1.0000
  Fe  Fe99      1.0  0.90554  0.37438  0.61732  1.0000
  S   S196      1.0  0.88758  0.38378  0.57401  1.0000
  Fe  Fe100     1.0  0.94641  0.35741  0.63752  1.0000
  S   S197      1.0  0.97597  0.34341  0.62011  1.0000
  S   S198      1.0  0.89722  0.38568  0.66604  1.0000
  S   S199      1.0  0.94166  0.36738  0.68721  1.0000
  Fe  Fe101     1.0  0.90170  0.18758  0.83584  1.0000
  S   S200      1.0  0.87958  0.21475  0.83719  1.0000
  S   S201      1.0  0.89201  0.15564  0.83340  1.0000
  Fe  Fe102     1.0  0.93697  0.21291  0.85120  1.0000
  S   S202      1.0  0.91617  0.24125  0.85480  1.0000
  S   S203      1.0  0.96836  0.22010  0.86385  1.0000
  Fe  Fe103     1.0  0.89575  0.22259  0.88101  1.0000
  S   S204      1.0  0.87802  0.22766  0.92617  1.0000
  Fe  Fe104     1.0  0.90257  0.23067  0.81076  1.0000
  S   S205      1.0  0.89724  0.24857  0.76522  1.0000
  S   S206      1.0  0.91724  0.19511  0.88052  1.0000
  S   S207      1.0  0.92390  0.20275  0.80617  1.0000
  C   C692      1.0  0.89096  0.23116  0.96151  1.0000
  C   C693      1.0  0.90915  0.23944  0.96139  1.0000
  H   H820      1.0  0.82168  0.07373  0.74859  1.0000
  H   H821      1.0  0.91574  0.24340  0.93939  1.0000
  C   C694      1.0  0.90273  0.47220  0.64770  1.0000
  C   C695      1.0  0.89438  0.37243  0.53769  1.0000
  C   C696      1.0  0.86311  0.11427  0.76221  1.0000
  C   C697      1.0  0.90276  0.35260  0.53610  1.0000
  C   C698      1.0  0.97184  0.27125  0.74503  1.0000
  H   H822      1.0  0.90536  0.34403  0.55743  1.0000
  C   C699      1.0  0.90315  0.31405  0.73720  1.0000
  C   C700      1.0  0.90483  0.30810  0.76884  1.0000
  C   C701      1.0  0.90399  0.28798  0.77772  1.0000
  C   C702      1.0  0.90078  0.27364  0.75513  1.0000
  C   C703      1.0  0.89933  0.27952  0.72348  1.0000
  C   C704      1.0  0.90074  0.29952  0.71450  1.0000
  H   H823      1.0  0.90671  0.31919  0.78662  1.0000
  H   H824      1.0  0.90534  0.28366  0.80209  1.0000
  H   H825      1.0  0.89686  0.26858  0.70573  1.0000
  H   H826      1.0  0.89929  0.30383  0.69010  1.0000
  H   H827      1.0  0.88011  0.37807  0.75057  1.0000
  C   C705      1.0  0.68369  0.02150  0.72727  1.0000
  H   H828      1.0  0.83514  0.10281  0.76028  1.0000
  H   H829      1.0  0.89262  0.12317  0.76811  1.0000
  C   C706      1.0  0.92696  0.48572  0.68108  1.0000
  H   H830      1.0  0.94572  0.31163  0.70934  1.0000
  H   H831      1.0  0.96443  0.34957  0.55263  1.0000
  C   C707      1.0  0.89086  0.38332  0.50977  1.0000
  C   C708      1.0  0.91845  0.24342  0.98987  1.0000
  H   H832      1.0  0.97200  0.38110  0.65191  1.0000
  C   C709      1.0  0.92790  0.44959  0.67382  1.0000
  C   C710      1.0  0.93559  0.46620  0.68737  1.0000
  C   C711      1.0  0.91166  0.45268  0.65340  1.0000
  H   H833      1.0  0.94806  0.46394  0.70330  1.0000
  H   H834      1.0  0.90564  0.44000  0.64278  1.0000
  C   C712      1.0  0.83048  0.13091  0.82223  1.0000
  C   C713      1.0  0.83336  0.15029  0.81182  1.0000
  C   C714      1.0  0.85182  0.15825  0.81577  1.0000
  C   C715      1.0  0.86792  0.14678  0.82967  1.0000
  C   C716      1.0  0.86499  0.12748  0.84046  1.0000
  C   C717      1.0  0.84637  0.11967  0.83712  1.0000
  H   H835      1.0  0.82124  0.15915  0.80022  1.0000
  H   H836      1.0  0.85374  0.17305  0.80720  1.0000
  H   H837      1.0  0.87728  0.11837  0.85116  1.0000
  H   H838      1.0  0.84450  0.10479  0.84532  1.0000
  N   N45       1.0  0.72363  0.01689  0.79057  1.0000
  C   C718      1.0  0.98260  0.45646  0.63058  1.0000
  H   H839      1.0  0.81521  0.05600  0.77702  1.0000
  H   H840      1.0  0.78855  0.01004  0.86460  1.0000
  H   H841      1.0  0.71359  0.09964  0.54364  1.0000
  C   C719      1.0  0.77147  0.07471  0.97055  1.0000
  H   H842      1.0  0.68527  0.05817  0.57581  1.0000
  C   C720      1.0  0.85078  0.09885  0.76504  1.0000
  C   C721      1.0  0.88332  0.11093  0.76925  1.0000
  H   H843      1.0  0.75475  0.09990  0.94870  1.0000
  C   C722      1.0  0.70392  0.08164  0.77362  1.0000
  C   C723      1.0  0.68345  0.07917  0.77161  1.0000
  H   H844      1.0  0.90716  0.08954  0.78414  1.0000
  C   C724      1.0  0.71466  0.08328  0.74576  1.0000
  H   H845      1.0  0.67493  0.07794  0.79292  1.0000
  H   H846      1.0  0.95184  0.22831  0.76447  1.0000
  H   H847      1.0  0.73036  0.08529  0.74680  1.0000
  H   H848      1.0  0.93376  0.40698  0.75108  1.0000
  H   H849      1.0  0.97529  0.48657  0.67534  1.0000
  H   H850      1.0  0.95720  0.24918  0.81225  1.0000
  C   C725      1.0  0.85246  0.04629  0.75756  1.0000
  C   C726      1.0  0.99116  0.37764  0.54460  1.0000
  H   H851      1.0  0.69711  0.09043  0.62287  1.0000
  H   H852      1.0  0.84287  0.03377  0.75969  1.0000
  H   H853      1.0  0.86800  0.03985  0.76224  1.0000
  C   C727      1.0  0.95911  0.26162  0.79557  1.0000
  C   C728      1.0  0.87806  0.46091  0.77004  1.0000
  H   H854      1.0  0.88333  0.14456  0.89707  1.0000
  N   N46       1.0  0.84076  0.27383  0.80155  1.0000
  C   C729      1.0  0.84404  0.25197  0.79598  1.0000
  C   C730      1.0  0.81966  0.27908  0.81063  1.0000
  C   C731      1.0  0.84426  0.28387  0.77125  1.0000
  C   C732      1.0  0.85377  0.27969  0.82720  1.0000
  C   C733      1.0  0.86527  0.29623  0.82478  1.0000
  C   C734      1.0  0.85447  0.26939  0.85632  1.0000
  C   C735      1.0  0.87730  0.30145  0.84952  1.0000
  C   C736      1.0  0.86649  0.27480  0.88090  1.0000
  C   C737      1.0  0.87801  0.29067  0.87743  1.0000
  H   H855      1.0  0.83885  0.24303  0.81568  1.0000
  H   H856      1.0  0.83601  0.24737  0.77484  1.0000
  H   H857      1.0  0.86013  0.24716  0.79224  1.0000
  H   H858      1.0  0.81663  0.29538  0.81525  1.0000
  H   H859      1.0  0.81571  0.27116  0.83233  1.0000
  H   H860      1.0  0.80927  0.27512  0.79190  1.0000
  H   H861      1.0  0.86013  0.28095  0.76379  1.0000
  H   H862      1.0  0.83515  0.27843  0.75194  1.0000
  H   H863      1.0  0.84025  0.30029  0.77244  1.0000
  H   H864      1.0  0.86557  0.30520  0.80382  1.0000
  H   H865      1.0  0.84573  0.25705  0.86049  1.0000
  H   H866      1.0  0.88629  0.31383  0.84687  1.0000
  H   H867      1.0  0.86693  0.26660  0.90284  1.0000
  H   H868      1.0  0.84807  0.43882  0.72002  1.0000
  N   N47       1.0  0.86368  0.16454  0.92497  1.0000
  C   C738      1.0  0.88342  0.15329  0.91920  1.0000
  H   H869      1.0  0.89184  0.48059  0.50359  1.0000
  C   C739      1.0  0.84816  0.15043  0.92557  1.0000
  C   C740      1.0  0.83285  0.15058  0.90262  1.0000
  H   H870      1.0  0.91256  0.32794  0.50573  1.0000
  C   C741      1.0  0.81897  0.13646  0.90316  1.0000
  H   H871      1.0  0.80771  0.13657  0.88495  1.0000
  H   H872      1.0  0.89543  0.16342  0.91684  1.0000
  C   C742      1.0  0.90804  0.39061  0.75211  1.0000
  C   C743      1.0  0.69833  0.02616  0.74842  1.0000
  H   H873      1.0  0.84612  0.44092  0.76235  1.0000
  H   H874      1.0  0.97931  0.31630  0.68896  1.0000
  H   H875      1.0  0.83550  0.10957  0.96675  1.0000
  C   C744      1.0  0.81986  0.12182  0.92633  1.0000
  C   C745      1.0  0.98723  0.43687  0.61869  1.0000
  H   H876      1.0  0.84403  0.06765  0.82900  1.0000
  H   H877      1.0  0.94401  0.26956  0.79219  1.0000
  H   H878      1.0  0.67435  0.06709  0.61230  1.0000
  H   H879      1.0  0.83148  0.16114  0.88349  1.0000
  C   C746      1.0  0.99360  0.35980  0.62992  1.0000
  C   C747      1.0  0.96356  0.34769  0.52678  1.0000
  C   C748      1.0  0.91759  0.40797  0.75098  1.0000
  C   C749      1.0  0.85211  0.44755  0.74083  1.0000
  C   C750      1.0  0.83463  0.12126  0.94918  1.0000
  C   C751      1.0  0.89142  0.09201  0.77855  1.0000
  H   H880      1.0  0.87418  0.45375  0.79247  1.0000
  H   H881      1.0  0.74553  0.02190  0.75532  1.0000
  C   C752      1.0  0.94858  0.38159  0.52176  1.0000
  H   H882      1.0  0.88748  0.29462  0.89647  1.0000
  N   N48       1.0  0.96438  0.36673  0.50942  1.0000
  H   H883      1.0  0.94930  0.34109  0.52254  1.0000
  H   H884      1.0  0.71335  0.08457  0.69519  1.0000
  N   N49       1.0  0.68051  0.09020  0.57960  1.0000
  H   H885      1.0  0.97602  0.33648  0.51973  1.0000
  H   H886      1.0  0.87527  0.18644  0.95497  1.0000
  H   H887      1.0  0.84949  0.18311  0.96118  1.0000
  H   H888      1.0  0.95896  0.48152  0.62956  1.0000
  H   H889      1.0  0.86013  0.40995  0.74583  1.0000
  C   C753      1.0  0.84860  0.13530  0.94890  1.0000
  H   H890      1.0  0.93607  0.46505  0.59763  1.0000
  C   C754      1.0  0.78816  0.99661  0.85080  1.0000
  C   C755      1.0  0.82438  0.06870  0.77320  1.0000
  H   H891      1.0  0.98394  0.45045  0.69153  1.0000
  N   N50       1.0  0.84585  0.06284  0.77926  1.0000
  H   H892      1.0  0.85178  0.05150  0.73277  1.0000
  H   H893      1.0  0.70158  0.01967  0.82730  1.0000
  C   C756      1.0  0.70494  0.08285  0.71646  1.0000
  C   C757      1.0  0.87928  0.07642  0.78122  1.0000
  H   H894      1.0  0.70397  0.10773  0.59418  1.0000
  C   C758      1.0  0.95459  0.24152  0.74992  1.0000
  S   S208      1.0  0.67281  0.08083  0.67681  1.0000
  C   C759      1.0  0.70151  0.09951  0.49795  1.0000
  H   H895      1.0  0.88794  0.14262  0.93835  1.0000
  C   C760      1.0  0.68243  0.09268  0.54526  1.0000
  C   C761      1.0  0.91023  0.48880  0.66169  1.0000
  H   H896      1.0  0.88625  0.06205  0.78866  1.0000
  C   C762      1.0  0.67383  0.07832  0.74229  1.0000
  C   C763      1.0  0.96392  0.46660  0.62170  1.0000
  H   H897      1.0  0.88978  0.47445  0.63269  1.0000
  H   H898      1.0  0.81836  0.08090  0.78922  1.0000
  C   C764      1.0  0.68447  0.08037  0.71446  1.0000
  C   C765      1.0  0.75883  0.09251  0.97063  1.0000
  C   C766      1.0  0.88536  0.42833  0.74626  1.0000
  C   C767      1.0  0.71255  0.02853  0.81563  1.0000
  H   H899      1.0  0.86884  0.16486  0.97515  1.0000
  C   C768      1.0  0.85850  0.07942  0.77499  1.0000
  C   C769      1.0  0.90649  0.42656  0.74813  1.0000
  H   H900      1.0  0.83724  0.04370  0.81662  1.0000
  H   H901      1.0  0.94443  0.43028  0.57977  1.0000
  C   C770      1.0  0.95522  0.43771  0.59301  1.0000
  H   H902      1.0  0.94911  0.39636  0.51025  1.0000
  C   C771      1.0  0.84761  0.05529  0.81194  1.0000
  H   H903      1.0  0.95377  0.21959  0.95595  1.0000
  H   H904      1.0  0.67542  0.03329  0.71385  1.0000
  C   C772      1.0  0.95052  0.45728  0.60313  1.0000
  C   C773      1.0  0.86429  0.17508  0.95544  1.0000
  H   H905      1.0  0.86940  0.47588  0.76867  1.0000
  H   H906      1.0  0.80925  0.11069  0.92621  1.0000
  N   N51       1.0  0.87403  0.44824  0.74284  1.0000
  H   H907      1.0  0.86280  0.04824  0.81747  1.0000
  C   C774      1.0  0.86045  0.18009  0.90028  1.0000
  C   C775      1.0  0.98966  0.48582  0.66227  1.0000
  H   H908      1.0  0.70077  0.04167  0.75070  1.0000
  H   H909      1.0  0.85677  0.12914  0.75566  1.0000
  C   C776      1.0  0.95838  0.30123  0.71602  1.0000
  C   C777      1.0  0.96785  0.21704  0.96830  1.0000
  C   C778      1.0  0.95566  0.28516  0.73585  1.0000
  H   H910      1.0  0.98257  0.37444  0.56514  1.0000
  H   H911      1.0  0.87910  0.44822  0.69307  1.0000
  H   H912      1.0  0.84408  0.46274  0.73818  1.0000
  H   H913      1.0  0.86094  0.17351  0.87646  1.0000
  C   C779      1.0  0.73534  0.99953  0.80554  1.0000
  H   H914      1.0  0.84604  0.18947  0.90352  1.0000
  H   H915      1.0  0.86005  0.13395  0.96667  1.0000
  H   H916      1.0  0.70408  0.04233  0.80642  1.0000
  H   H917      1.0  0.94071  0.28364  0.74378  1.0000
  H   H918      1.0  0.89619  0.46141  0.71508  1.0000
  H   H919      1.0  0.87239  0.19034  0.90038  1.0000
  H   H920      1.0  0.88421  0.39860  0.51084  1.0000
  C   C780      1.0  0.70920  0.01124  0.76684  1.0000
  C   C781      1.0  0.88044  0.45798  0.71386  1.0000
  C   C782      1.0  0.69916  0.09251  0.59714  1.0000
  H   H921      1.0  0.96070  0.23601  0.72693  1.0000
  H   H922      1.0  0.98358  0.22860  0.78906  1.0000
  H   H923      1.0  0.91473  0.43948  0.74633  1.0000
  C   C783      1.0  0.87605  0.41028  0.74755  1.0000
  C   C784      1.0  0.88734  0.39176  0.75043  1.0000
  C   C785      1.0  0.66599  0.09026  0.52537  1.0000
  H   H924      1.0  0.89402  0.46371  0.77142  1.0000
  H   H925      1.0  0.87152  0.47252  0.70914  1.0000
  C   C786      1.0  0.97729  0.30390  0.70461  1.0000
  H   H926      1.0  0.98442  0.18840  0.82048  1.0000
  H   H927      1.0  0.75010  0.03252  0.79277  1.0000
  H   H928      1.0  0.66313  0.10399  0.61780  1.0000
  H   H929      1.0  0.73114  0.04431  0.76874  1.0000
  C   C787      1.0  0.98540  0.21262  0.95135  1.0000
  H   H930      1.0  0.86827  0.22017  0.99068  1.0000
  N   N52       1.0  0.96834  0.25419  0.76564  1.0000
  H   H931      1.0  0.97719  0.41224  0.59315  1.0000
  H   H932      1.0  0.91674  0.37619  0.75356  1.0000
  H   H933      1.0  0.72271  0.03347  0.83392  1.0000
  C   C788      1.0  0.73813  0.02940  0.77609  1.0000
  H   H934      1.0  0.93968  0.24966  0.74543  1.0000
  H   H935      1.0  0.94981  0.38372  0.54750  1.0000
  C   C789      1.0  0.98739  0.37752  0.64561  1.0000
  C   C790      1.0  0.67471  0.06999  0.58662  1.0000
  H   H936      1.0  0.66851  0.12071  0.58666  1.0000
  C   C791      1.0  0.97362  0.42758  0.60055  1.0000
  C   C792      1.0  0.88246  0.22635  0.99033  1.0000
  H   H937      1.0  0.71145  0.08118  0.58982  1.0000
  H   H938      1.0  0.74642  0.00437  0.82256  1.0000
  H   H939      1.0  0.93349  0.37684  0.51764  1.0000
  C   C793      1.0  0.98406  0.37432  0.51392  1.0000
  C   C794      1.0  0.70031  0.09745  0.53055  1.0000
  C   C795      1.0  0.67940  0.00183  0.72382  1.0000
  C   C796      1.0  0.79003  0.99750  0.81820  1.0000
  H   H940      1.0  0.98495  0.21166  0.92598  1.0000
  H   H941      1.0  0.96849  0.27203  0.80741  1.0000
  H   H942      1.0  0.89272  0.44450  0.51114  1.0000
  H   H943      1.0  0.93213  0.25054  0.98952  1.0000
  C   C797      1.0  0.99270  0.21219  0.84977  1.0000
  C   C798      1.0  0.98681  0.24121  0.77359  1.0000
  C   C799      1.0  0.99101  0.27450  0.73316  1.0000
  C   C800      1.0  0.66488  0.10529  0.59187  1.0000
  H   H944      1.0  0.66652  0.99786  0.60608  1.0000
  C   C801      1.0  0.90683  0.34351  0.50679  1.0000
  H   H945      1.0  0.66776  0.99834  0.70782  1.0000
  C   C802      1.0  0.99356  0.29060  0.71322  1.0000
  H   H946      1.0  0.99422  0.23433  0.75234  1.0000
  Fe  Fe105     1.0  0.76305  0.91044  0.18346  1.0000
  S   S209      1.0  0.73211  0.90263  0.17432  1.0000
  S   S210      1.0  0.76715  0.94124  0.20289  1.0000
  Fe  Fe106     1.0  0.78175  0.86646  0.17492  1.0000
  S   S211      1.0  0.75150  0.85577  0.16566  1.0000
  S   S212      1.0  0.81376  0.85035  0.17882  1.0000
  Fe  Fe107     1.0  0.74638  0.88349  0.13519  1.0000
  S   S213      1.0  0.73044  0.88794  0.08822  1.0000
  Fe  Fe108     1.0  0.73944  0.87605  0.20543  1.0000
  S   S214      1.0  0.72236  0.86987  0.25077  1.0000
  S   S215      1.0  0.77696  0.89326  0.14252  1.0000
  S   S216      1.0  0.77004  0.88477  0.21647  1.0000
  H   H947      1.0  0.82008  0.91103  0.22616  1.0000
  Fe  Fe109     1.0  0.93613  0.74098  0.17357  1.0000
  S   S217      1.0  0.93964  0.70846  0.16200  1.0000
  S   S218      1.0  0.96263  0.75576  0.19224  1.0000
  Fe  Fe110     1.0  0.89041  0.74504  0.16217  1.0000
  S   S219      1.0  0.89141  0.71219  0.14961  1.0000
  S   S220      1.0  0.85880  0.76200  0.16006  1.0000
  Fe  Fe111     1.0  0.91207  0.70591  0.19116  1.0000
  S   S221      1.0  0.91130  0.68648  0.23597  1.0000
  Fe  Fe112     1.0  0.91887  0.71749  0.12167  1.0000
  S   S222      1.0  0.92974  0.70861  0.07254  1.0000
  S   S223      1.0  0.90951  0.73846  0.20476  1.0000
  S   S224      1.0  0.91688  0.75038  0.13199  1.0000
  Fe  Fe113     1.0  0.93186  0.53809  0.35582  1.0000
  S   S225      1.0  0.93829  0.55001  0.40332  1.0000
  S   S226      1.0  0.94512  0.50559  0.35087  1.0000
  Fe  Fe114     1.0  0.91457  0.58043  0.33243  1.0000
  S   S227      1.0  0.91921  0.59465  0.37929  1.0000
  S   S228      1.0  0.90581  0.59699  0.28635  1.0000
  Fe  Fe115     1.0  0.94871  0.57612  0.37853  1.0000
  S   S229      1.0  0.97623  0.58918  0.39446  1.0000
  Fe  Fe116     1.0  0.90822  0.56705  0.40041  1.0000
  S   S230      1.0  0.89042  0.56340  0.44474  1.0000
  S   S231      1.0  0.94495  0.56326  0.33082  1.0000
  S   S232      1.0  0.90079  0.55384  0.35368  1.0000
  C   C803      1.0  0.70815  0.96199  0.27192  1.0000
  C   C804      1.0  0.82986  0.96375  0.17274  1.0000
  H   H948      1.0  0.89097  0.74021  0.07200  1.0000
  C   C805      1.0  0.76459  0.92616  0.01923  1.0000
  H   H949      1.0  0.71723  0.82309  0.30901  1.0000
  C   C806      1.0  0.90969  0.66142  0.24919  1.0000
  C   C807      1.0  0.90579  0.64592  0.22901  1.0000
  C   C808      1.0  0.90431  0.62649  0.24091  1.0000
  C   C809      1.0  0.90697  0.62210  0.27305  1.0000
  C   C810      1.0  0.91098  0.63760  0.29320  1.0000
  C   C811      1.0  0.91225  0.65707  0.28136  1.0000
  H   H950      1.0  0.90372  0.64892  0.20425  1.0000
  H   H951      1.0  0.90117  0.61471  0.22501  1.0000
  H   H952      1.0  0.91284  0.63465  0.31800  1.0000
  H   H953      1.0  0.91514  0.66889  0.29732  1.0000
  H   H954      1.0  0.78119  0.97758  0.10618  1.0000
  H   H955      1.0  0.89876  0.52400  0.41353  1.0000
  C   C812      1.0  0.70303  0.96254  0.18129  1.0000
  C   C813      1.0  0.66695  0.82653  0.32505  1.0000
  H   H956      1.0  0.66842  0.83380  0.24534  1.0000
  C   C814      1.0  0.87589  0.51044  0.45802  1.0000
  C   C815      1.0  0.91781  0.70887  0.03547  1.0000
  C   C816      1.0  0.98905  0.74304  0.14472  1.0000
  H   H957      1.0  0.73620  0.96163  0.24519  1.0000
  H   H958      1.0  0.88890  0.70320  0.05266  1.0000
  C   C817      1.0  0.82590  0.82559  0.17343  1.0000
  C   C818      1.0  0.81567  0.80945  0.16436  1.0000
  C   C819      1.0  0.82600  0.79024  0.16045  1.0000
  C   C820      1.0  0.84674  0.78675  0.16544  1.0000
  C   C821      1.0  0.85700  0.80286  0.17451  1.0000
  C   C822      1.0  0.84666  0.82208  0.17847  1.0000
  H   H959      1.0  0.79976  0.81177  0.16033  1.0000
  H   H960      1.0  0.81780  0.77798  0.15342  1.0000
  H   H961      1.0  0.87291  0.80055  0.17852  1.0000
  H   H962      1.0  0.85483  0.83433  0.18551  1.0000
  C   C823      1.0  0.69736  0.87636  0.26390  1.0000
  C   C824      1.0  0.68133  0.87982  0.24317  1.0000
  H   H963      1.0  0.75434  0.95350  0.08531  1.0000
  H   H964      1.0  0.95587  0.58730  0.27052  1.0000
  C   C825      1.0  0.76264  0.96543  0.04090  1.0000
  C   C826      1.0  0.69339  0.87698  0.29636  1.0000
  H   H965      1.0  0.68403  0.87923  0.21817  1.0000
  H   H966      1.0  0.95499  0.63005  0.32213  1.0000
  C   C827      1.0  0.91115  0.50957  0.46863  1.0000
  H   H967      1.0  0.70562  0.87417  0.31266  1.0000
  H   H968      1.0  0.84119  0.90305  0.13203  1.0000
  C   C828      1.0  0.72497  0.99120  0.25617  1.0000
  C   C829      1.0  0.74056  0.88153  0.05066  1.0000
  C   C830      1.0  0.75906  0.87036  0.04710  1.0000
  H   H969      1.0  0.73827  0.93030  0.26589  1.0000
  H   H970      1.0  0.76753  0.86531  0.06761  1.0000
  C   C831      1.0  0.77433  0.96149  0.14800  1.0000
  C   C832      1.0  0.77149  0.96253  0.18044  1.0000
  C   C833      1.0  0.77250  0.98087  0.19573  1.0000
  H   H971      1.0  0.77375  0.94742  0.13602  1.0000
  H   H972      1.0  0.77059  0.98173  0.22088  1.0000
  C   C834      1.0  0.68793  0.82384  0.32992  1.0000
  C   C835      1.0  0.76759  0.96118  0.00960  1.0000
  C   C836      1.0  0.96028  0.62582  0.26065  1.0000
  H   H973      1.0  0.85242  0.98359  0.18022  1.0000
  H   H974      1.0  0.73460  0.99409  0.15272  1.0000
  C   C837      1.0  0.75847  0.95017  0.06120  1.0000
  H   H975      1.0  0.76194  0.98067  0.04941  1.0000
  C   C838      1.0  0.70128  0.82463  0.30488  1.0000
  H   H976      1.0  0.87421  0.52687  0.45402  1.0000
  H   H977      1.0  0.98034  0.57475  0.46217  1.0000
  C   C839      1.0  0.77850  0.97859  0.13115  1.0000
  H   H978      1.0  0.71541  0.89655  0.02617  1.0000
  H   H979      1.0  0.96849  0.50183  0.28797  1.0000
  C   C840      1.0  0.69424  0.82798  0.27448  1.0000
  H   H980      1.0  0.72177  0.91196  0.25780  1.0000
  C   C841      1.0  0.69326  0.97545  0.28627  1.0000
  C   C842      1.0  0.89772  0.70572  0.03212  1.0000
  C   C843      1.0  0.97120  0.59187  0.27392  1.0000
  H   H981      1.0  0.96943  0.62615  0.23896  1.0000
  H   H982      1.0  0.83914  0.76472  0.06012  1.0000
  H   H983      1.0  0.69601  0.94081  0.32173  1.0000
  C   C844      1.0  0.72323  0.92826  0.25643  1.0000
  C   C845      1.0  0.88447  0.77946  0.07725  1.0000
  H   H984      1.0  0.87383  0.70215  0.99954  1.0000
  N   N53       1.0  0.84982  0.72904  0.24326  1.0000
  C   C846      1.0  0.84467  0.71584  0.26937  1.0000
  C   C847      1.0  0.83084  0.73924  0.23089  1.0000
  C   C848      1.0  0.85935  0.71650  0.21786  1.0000
  C   C849      1.0  0.86396  0.74306  0.25403  1.0000
  C   C850      1.0  0.88137  0.73593  0.27095  1.0000
  C   C851      1.0  0.86159  0.76377  0.24661  1.0000
  C   C852      1.0  0.89514  0.74882  0.28075  1.0000
  C   C853      1.0  0.87555  0.77650  0.25630  1.0000
  C   C854      1.0  0.89223  0.76906  0.27344  1.0000
  H   H985      1.0  0.83940  0.72475  0.29027  1.0000
  H   H986      1.0  0.83277  0.70635  0.26264  1.0000
  H   H987      1.0  0.85751  0.70515  0.27664  1.0000
  H   H988      1.0  0.82006  0.72844  0.22453  1.0000
  H   H989      1.0  0.83327  0.74764  0.20892  1.0000
  H   H990      1.0  0.82347  0.74977  0.24844  1.0000
  H   H991      1.0  0.87335  0.70780  0.22574  1.0000
  H   H992      1.0  0.84940  0.70561  0.20883  1.0000
  H   H993      1.0  0.86331  0.72593  0.19784  1.0000
  H   H994      1.0  0.88498  0.72019  0.27561  1.0000
  H   H995      1.0  0.84937  0.77048  0.23262  1.0000
  H   H996      1.0  0.90853  0.74292  0.29302  1.0000
  H   H997      1.0  0.87360  0.79215  0.24984  1.0000
  H   H998      1.0  0.90322  0.77890  0.28033  1.0000
  C   C855      1.0  0.76861  0.94140  0.99772  1.0000
  H   H999      1.0  0.70467  0.82918  0.25530  1.0000
  H   H1000     1.0  0.95671  0.64146  0.26879  1.0000
  C   C856      1.0  0.88927  0.70491  0.00196  1.0000
  H   H1001     1.0  0.87840  0.95647  0.19439  1.0000
  C   C857      1.0  0.68844  0.97626  0.19423  1.0000
  H   H1002     1.0  0.82464  0.88613  0.14763  1.0000
  C   C858      1.0  0.95863  0.61441  0.31422  1.0000
  H   H1003     1.0  0.84637  0.78986  0.06389  1.0000
  H   H1004     1.0  0.94583  0.62043  0.25383  1.0000
  H   H1005     1.0  0.70152  0.94668  0.18236  1.0000
  H   H1006     1.0  0.68677  0.91854  0.26239  1.0000
  H   H1007     1.0  0.81026  0.94127  0.16683  1.0000
  H   H1008     1.0  0.91579  0.59433  0.45962  1.0000
  H   H1009     1.0  0.73103  0.95847  0.15694  1.0000
  H   H1010     1.0  0.87109  0.92193  0.19515  1.0000
  H   H1011     1.0  0.80323  0.91418  0.19374  1.0000
  H   H1012     1.0  0.97870  0.58131  0.29132  1.0000
  C   C859      1.0  0.70864  0.93385  0.30735  1.0000
  C   C860      1.0  0.99060  0.61942  0.29072  1.0000
  C   C861      1.0  0.98639  0.75244  0.17384  1.0000
  H   H1013     1.0  0.72302  0.93220  0.23109  1.0000
  H   H1014     1.0  0.81346  0.88983  0.20449  1.0000
  H   H1015     1.0  0.85534  0.89516  0.21585  1.0000
  C   C862      1.0  0.99086  0.69955  0.21177  1.0000
  H   H1016     1.0  0.84589  0.87681  0.19134  1.0000
  H   H1017     1.0  0.96895  0.60015  0.46414  1.0000
  H   H1018     1.0  0.95900  0.58084  0.48619  1.0000
  C   C863      1.0  0.90115  0.57057  0.48028  1.0000
  H   H1019     1.0  0.81560  0.91146  0.13989  1.0000
  H   H1020     1.0  0.97880  0.71138  0.20862  1.0000
  H   H1021     1.0  0.86381  0.89180  0.17557  1.0000
  C   C864      1.0  0.85962  0.77439  0.00543  1.0000
  H   H1022     1.0  0.97890  0.58974  0.25091  1.0000
  H   H1023     1.0  0.72269  0.93803  0.31801  1.0000
  H   H1024     1.0  0.68084  0.97019  0.29887  1.0000
  C   C865      1.0  0.84896  0.96821  0.18046  1.0000
  N   N54       1.0  0.83431  0.90720  0.18100  1.0000
  C   C866      1.0  0.82870  0.90176  0.14878  1.0000
  C   C867      1.0  0.85066  0.89222  0.19145  1.0000
  C   C868      1.0  0.81707  0.90554  0.20223  1.0000
  C   C869      1.0  0.83969  0.92799  0.18111  1.0000
  C   C870      1.0  0.85909  0.93302  0.18879  1.0000
  C   C871      1.0  0.82527  0.94398  0.17300  1.0000
  C   C872      1.0  0.86354  0.95289  0.18844  1.0000
  H   H1025     1.0  0.94404  0.60823  0.31131  1.0000
  C   C873      1.0  0.76641  0.86526  0.01691  1.0000
  C   C874      1.0  0.72975  0.88791  0.02365  1.0000
  H   H1026     1.0  0.98254  0.55540  0.35315  1.0000
  H   H1027     1.0  0.88223  0.79502  0.06818  1.0000
  N   N55       1.0  0.70710  0.94015  0.27406  1.0000
  C   C875      1.0  0.89958  0.50745  0.41589  1.0000
  C   C876      1.0  0.72409  0.97054  0.25671  1.0000
  C   C877      1.0  0.87496  0.74596  0.07385  1.0000
  H   H1028     1.0  0.78056  0.85628  0.01445  1.0000
  H   H1029     1.0  0.88195  0.78001  0.10311  1.0000
  C   C878      1.0  0.68777  0.93492  0.26153  1.0000
  C   C879      1.0  0.85015  0.77397  0.07070  1.0000
  H   H1030     1.0  0.87111  0.74500  0.09916  1.0000
  C   C880      1.0  0.91302  0.58642  0.48102  1.0000
  C   C881      1.0  0.67382  0.83059  0.26892  1.0000
  H   H1031     1.0  0.67102  0.88107  0.33296  1.0000
  H   H1032     1.0  0.97220  0.67966  0.23399  1.0000
  H   H1033     1.0  0.88822  0.50252  0.39951  1.0000
  H   H1034     1.0  0.67476  0.94171  0.27516  1.0000
  H   H1035     1.0  0.87272  0.50824  0.48328  1.0000
  H   H1036     1.0  0.76508  0.91068  0.01253  1.0000
  H   H1037     1.0  0.84793  0.77337  0.09656  1.0000
  N   N56       1.0  0.97062  0.61285  0.28493  1.0000
  H   H1038     1.0  0.75622  0.91874  0.06630  1.0000
  C   C882      1.0  0.97317  0.58640  0.47816  1.0000
  C   C883      1.0  0.71962  0.96922  0.16675  1.0000
  H   H1039     1.0  0.69444  0.82140  0.35283  1.0000
  H   H1040     1.0  0.90817  0.50793  0.49407  1.0000
  H   H1041     1.0  0.86620  0.73548  0.06090  1.0000
  N   N57       1.0  0.87089  0.76660  0.06158  1.0000
  H   H1042     1.0  0.97640  0.73776  0.13290  1.0000
  H   H1043     1.0  0.90522  0.75312  0.02985  1.0000
  H   H1044     1.0  0.96665  0.60603  0.33366  1.0000
  C   C884      1.0  0.67371  0.88076  0.30798  1.0000
  C   C885      1.0  0.89321  0.75919  0.01478  1.0000
  C   C886      1.0  0.75953  0.93060  0.05043  1.0000
  H   H1045     1.0  0.67553  0.97105  0.20561  1.0000
  H   H1046     1.0  0.97940  0.64884  0.30843  1.0000
  H   H1047     1.0  0.90043  0.77397  0.07361  1.0000
  C   C887      1.0  0.98717  0.68171  0.22608  1.0000
  H   H1048     1.0  0.68576  0.93966  0.23672  1.0000
  H   H1049     1.0  0.94489  0.71344  0.01073  1.0000
  C   C888      1.0  0.87441  0.76675  0.02728  1.0000
  H   H1050     1.0  0.91156  0.52588  0.46455  1.0000
  H   H1051     1.0  0.90536  0.49740  0.33006  1.0000
  H   H1052     1.0  0.70852  0.91737  0.30984  1.0000
  H   H1053     1.0  0.91470  0.50153  0.40760  1.0000
  C   C889      1.0  0.99244  0.63875  0.30295  1.0000
  H   H1054     1.0  0.92633  0.50218  0.46355  1.0000
  C   C890      1.0  0.72154  0.98966  0.16456  1.0000
  H   H1055     1.0  0.86404  0.50405  0.44428  1.0000
  H   H1056     1.0  0.67105  0.80932  0.38479  1.0000
  H   H1057     1.0  0.81851  0.97571  0.16650  1.0000
  C   C891      1.0  0.92928  0.71126  0.00842  1.0000
  N   N58       1.0  0.89597  0.50126  0.44871  1.0000
  H   H1058     1.0  0.84493  0.78062  0.01254  1.0000
  H   H1059     1.0  0.67055  0.83627  0.38780  1.0000
  C   C892      1.0  0.66162  0.88328  0.25480  1.0000
  C   C893      1.0  0.66151  0.82372  0.38249  1.0000
  Fe  Fe117     1.0  0.76213  0.87473  0.90174  1.0000
  S   S233      1.0  0.79248  0.88006  0.88355  1.0000
  S   S234      1.0  0.76565  0.86422  0.95265  1.0000
  Fe  Fe118     1.0  0.74278  0.88322  0.83611  1.0000
  S   S235      1.0  0.77250  0.88889  0.81506  1.0000
  S   S236      1.0  0.71623  0.89088  0.80225  1.0000
  Fe  Fe119     1.0  0.78549  0.86159  0.84209  1.0000
  S   S237      1.0  0.80389  0.83459  0.81935  1.0000
  Fe  Fe120     1.0  0.77684  0.90676  0.85865  1.0000
  S   S238      1.0  0.78700  0.93747  0.86929  1.0000
  S   S239      1.0  0.75551  0.85504  0.86094  1.0000
  S   S240      1.0  0.74680  0.90232  0.87896  1.0000
  S   S241      1.0  0.98773  0.53904  0.66976  1.0000
  Fe  Fe121     1.0  0.90211  0.75284  0.85014  1.0000
  S   S242      1.0  0.88670  0.72482  0.85142  1.0000
  S   S243      1.0  0.88885  0.78581  0.84965  1.0000
  Fe  Fe122     1.0  0.94321  0.72920  0.86369  1.0000
  S   S244      1.0  0.93032  0.69958  0.86669  1.0000
  S   S245      1.0  0.97519  0.73210  0.87929  1.0000
  Fe  Fe123     1.0  0.91281  0.70994  0.82374  1.0000
  S   S246      1.0  0.90775  0.69126  0.77968  1.0000
  Fe  Fe124     1.0  0.90540  0.71636  0.89406  1.0000
  S   S247      1.0  0.88993  0.70547  0.93733  1.0000
  S   S248      1.0  0.92714  0.73890  0.81922  1.0000
  S   S249      1.0  0.91939  0.74497  0.89433  1.0000
  Fe  Fe125     1.0  0.95608  0.55192  0.66283  1.0000
  S   S250      1.0  0.93354  0.54788  0.70005  1.0000
  H   H1060     1.0  0.75930  0.91024  0.95880  1.0000
  Fe  Fe126     1.0  0.92608  0.57463  0.61962  1.0000
  S   S251      1.0  0.90091  0.57268  0.65430  1.0000
  S   S252      1.0  0.92714  0.59106  0.57304  1.0000
  Fe  Fe127     1.0  0.92280  0.58044  0.69178  1.0000
  S   S253      1.0  0.92160  0.59923  0.73727  1.0000
  Fe  Fe128     1.0  0.91418  0.54049  0.65991  1.0000
  S   S254      1.0  0.89733  0.51287  0.65689  1.0000
  S   S255      1.0  0.94677  0.58451  0.65656  1.0000
  S   S256      1.0  0.93776  0.54237  0.62318  1.0000
  H   H1061     1.0  0.72866  0.88785  0.97288  1.0000
  H   H1062     1.0  0.88477  0.76580  0.93667  1.0000
  C   C894      1.0  0.66902  0.88816  0.74242  1.0000
  H   H1063     1.0  0.98300  0.78036  0.88224  1.0000
  H   H1064     1.0  0.77803  0.91356  0.93036  1.0000
  C   C895      1.0  0.91693  0.58270  0.53776  1.0000
  C   C896      1.0  0.92045  0.59273  0.50970  1.0000
  H   H1065     1.0  0.97125  0.61960  0.51383  1.0000
  C   C897      1.0  0.97407  0.79682  0.83904  1.0000
  H   H1066     1.0  0.74396  0.99004  0.78785  1.0000
  C   C898      1.0  0.90079  0.70732  0.97493  1.0000
  H   H1067     1.0  0.73760  0.85552  0.70815  1.0000
  H   H1068     1.0  0.92953  0.78567  0.87150  1.0000
  H   H1069     1.0  0.92991  0.71234  0.95776  1.0000
  H   H1070     1.0  0.96718  0.58341  0.72331  1.0000
  C   C899      1.0  0.91300  0.66572  0.76799  1.0000
  C   C900      1.0  0.90898  0.66033  0.73691  1.0000
  C   C901      1.0  0.91186  0.64022  0.72686  1.0000
  C   C902      1.0  0.91845  0.62507  0.74797  1.0000
  C   C903      1.0  0.92257  0.63047  0.77904  1.0000
  C   C904      1.0  0.92010  0.65062  0.78891  1.0000
  H   H1071     1.0  0.90345  0.67180  0.72045  1.0000
  H   H1072     1.0  0.90855  0.63644  0.70293  1.0000
  H   H1073     1.0  0.92773  0.61894  0.79564  1.0000
  H   H1074     1.0  0.92349  0.65442  0.81276  1.0000
  H   H1075     1.0  0.98185  0.74264  0.81324  1.0000
  C   C905      1.0  0.82681  0.82054  0.83073  1.0000
  C   C906      1.0  0.84101  0.82861  0.84946  1.0000
  C   C907      1.0  0.85966  0.81762  0.85542  1.0000
  C   C908      1.0  0.86430  0.79819  0.84350  1.0000
  C   C909      1.0  0.84986  0.78986  0.82555  1.0000
  C   C910      1.0  0.83140  0.80105  0.81891  1.0000
  H   H1076     1.0  0.83788  0.84357  0.85859  1.0000
  H   H1077     1.0  0.87064  0.82435  0.86919  1.0000
  H   H1078     1.0  0.85317  0.77506  0.81588  1.0000
  H   H1079     1.0  0.82067  0.79462  0.80425  1.0000
  C   C911      1.0  0.96928  0.62052  0.69899  1.0000
  H   H1080     1.0  0.96037  0.59955  0.53317  1.0000
  H   H1081     1.0  0.94469  0.82561  0.82137  1.0000
  C   C912      1.0  0.98236  0.80586  0.81261  1.0000
  H   H1082     1.0  0.78661  0.81871  0.76523  1.0000
  C   C913      1.0  0.69622  0.88167  0.78078  1.0000
  C   C914      1.0  0.68476  0.89470  0.76037  1.0000
  C   C915      1.0  0.75814  0.94864  0.94438  1.0000
  C   C916      1.0  0.77406  0.91602  0.95552  1.0000
  H   H1083     1.0  0.72191  0.84433  0.73649  1.0000
  C   C917      1.0  0.69168  0.86186  0.78285  1.0000
  H   H1084     1.0  0.68807  0.91004  0.75844  1.0000
  H   H1085     1.0  0.90242  0.55884  0.55848  1.0000
  H   H1086     1.0  0.99338  0.57883  0.73189  1.0000
  H   H1087     1.0  0.70019  0.85161  0.79844  1.0000
  C   C918      1.0  0.78673  0.97816  0.86583  1.0000
  C   C919      1.0  0.78656  0.96043  0.84850  1.0000
  C   C920      1.0  0.78757  0.96141  0.81576  1.0000
  H   H1088     1.0  0.78610  0.97761  0.89114  1.0000
  H   H1089     1.0  0.78769  0.94787  0.80214  1.0000
  N   N59       1.0  0.86820  0.66618  0.84931  1.0000
  C   C921      1.0  0.86895  0.65807  0.81688  1.0000
  C   C922      1.0  0.88888  0.66904  0.85867  1.0000
  C   C923      1.0  0.86066  0.65089  0.87007  1.0000
  C   C924      1.0  0.85553  0.68538  0.85244  1.0000
  C   C925      1.0  0.85207  0.69423  0.88240  1.0000
  C   C926      1.0  0.84703  0.69622  0.82625  1.0000
  C   C927      1.0  0.84091  0.71273  0.88595  1.0000
  C   C928      1.0  0.83580  0.71470  0.83011  1.0000
  C   C929      1.0  0.83278  0.72296  0.85986  1.0000
  H   H1090     1.0  0.87568  0.66824  0.80023  1.0000
  H   H1091     1.0  0.87848  0.64359  0.81524  1.0000
  H   H1092     1.0  0.85385  0.65552  0.80831  1.0000
  H   H1093     1.0  0.89523  0.67997  0.84293  1.0000
  H   H1094     1.0  0.89890  0.65489  0.85739  1.0000
  H   H1095     1.0  0.88976  0.67479  0.88303  1.0000
  H   H1096     1.0  0.86228  0.65442  0.89532  1.0000
  H   H1097     1.0  0.84460  0.64950  0.86551  1.0000
  H   H1098     1.0  0.86901  0.63593  0.86657  1.0000
  H   H1099     1.0  0.85863  0.68730  0.90331  1.0000
  H   H1100     1.0  0.84925  0.69104  0.80246  1.0000
  H   H1101     1.0  0.83912  0.71942  0.90904  1.0000
  H   H1102     1.0  0.82981  0.72292  0.80980  1.0000
  H   H1103     1.0  0.82452  0.73752  0.86265  1.0000
  H   H1104     1.0  0.79879  0.78642  0.74343  1.0000
  C   C930      1.0  0.74972  0.81422  0.71160  1.0000
  H   H1105     1.0  0.73669  0.83001  0.78573  1.0000
  C   C931      1.0  0.78954  0.97984  0.80074  1.0000
  H   H1106     1.0  0.68642  0.97146  0.73861  1.0000
  H   H1107     1.0  0.92871  0.60566  0.51011  1.0000
  H   H1108     1.0  0.79792  0.94026  0.93237  1.0000
  H   H1109     1.0  0.79350  0.96044  0.95903  1.0000
  H   H1110     1.0  0.97246  0.61641  0.67413  1.0000
  H   H1111     1.0  0.97553  0.63118  0.75726  1.0000
  H   H1112     1.0  0.96982  0.63693  0.70106  1.0000
  H   H1113     1.0  0.95290  0.77104  0.81116  1.0000
  C   C932      1.0  0.98224  0.58772  0.71698  1.0000
  C   C933      1.0  0.92082  0.71063  0.97833  1.0000
  H   H1114     1.0  0.97294  0.81280  0.79441  1.0000
  H   H1115     1.0  0.98260  0.60761  0.54792  1.0000
  C   C934      1.0  0.94471  0.78613  0.81407  1.0000
  H   H1116     1.0  0.94642  0.79446  0.79192  1.0000
  H   H1117     1.0  0.74236  0.85498  0.79354  1.0000
  C   C935      1.0  0.73499  0.85304  0.73354  1.0000
  H   H1118     1.0  0.91120  0.75277  0.97348  1.0000
  C   C936      1.0  0.74822  0.84057  0.78264  1.0000
  H   H1119     1.0  0.85197  0.77982  0.95681  1.0000
  H   H1120     1.0  0.80495  0.93669  0.97265  1.0000
  C   C937      1.0  0.94604  0.78573  0.87012  1.0000
  H   H1121     1.0  0.97917  0.56815  0.62100  1.0000
  H   H1122     1.0  0.75824  0.96506  0.94659  1.0000
  H   H1123     1.0  0.95237  0.76982  0.87004  1.0000
  H   H1124     1.0  0.95065  0.79289  0.89203  1.0000
  C   C938      1.0  0.76019  0.82347  0.73554  1.0000
  C   C939      1.0  0.66444  0.86838  0.74455  1.0000
  H   H1125     1.0  0.98783  0.49617  0.64187  1.0000
  C   C940      1.0  0.94221  0.81701  0.84301  1.0000
  N   N60       1.0  0.77344  0.93742  0.96430  1.0000
  H   H1126     1.0  0.78012  0.77116  0.70136  1.0000
  C   C941      1.0  0.70461  0.99126  0.76252  1.0000
  C   C942      1.0  0.75559  0.87156  0.98989  1.0000
  H   H1127     1.0  0.72570  0.99019  0.81921  1.0000
  H   H1128     1.0  0.76053  0.94516  0.91908  1.0000
  C   C943      1.0  0.73725  0.88306  0.99340  1.0000
  C   C944      1.0  0.97675  0.61477  0.75327  1.0000
  C   C945      1.0  0.89684  0.75896  0.98250  1.0000
  C   C946      1.0  0.90542  0.56653  0.53697  1.0000
  H   H1129     1.0  0.66718  0.96894  0.64213  1.0000
  C   C947      1.0  0.97474  0.60495  0.52575  1.0000
  C   C948      1.0  0.75693  0.79557  0.69948  1.0000
  H   H1130     1.0  0.74292  0.94479  0.95053  1.0000
  H   H1131     1.0  0.76149  0.83474  0.79660  1.0000
  C   C949      1.0  0.98773  0.78805  0.86172  1.0000
  C   C950      1.0  0.77459  0.78560  0.71081  1.0000
  N   N61       1.0  0.98347  0.60948  0.72088  1.0000
  H   H1132     1.0  0.96159  0.61016  0.75803  1.0000
  H   H1133     1.0  0.74874  0.78878  0.68120  1.0000
  C   C951      1.0  0.88197  0.76626  0.96172  1.0000
  H   H1134     1.0  0.73590  0.82105  0.70188  1.0000
  H   H1135     1.0  0.78198  0.85224  0.76186  1.0000
  H   H1136     1.0  0.76349  0.87229  0.75397  1.0000
  N   N62       1.0  0.95220  0.79637  0.84175  1.0000
  N   N63       1.0  0.75308  0.84314  0.74909  1.0000
  H   H1137     1.0  0.67260  0.83999  0.76687  1.0000
  H   H1138     1.0  0.92571  0.81706  0.84566  1.0000
  C   C952      1.0  0.76895  0.85684  0.74657  1.0000
  H   H1139     1.0  0.98688  0.60713  0.77105  1.0000
  H   H1140     1.0  0.77449  0.85763  0.72207  1.0000
  H   H1141     1.0  0.73038  0.86800  0.74390  1.0000
  H   H1142     1.0  0.95361  0.61744  0.70375  1.0000
  H   H1143     1.0  0.92850  0.78430  0.81624  1.0000
  H   H1144     1.0  0.94774  0.82534  0.86317  1.0000
  C   C953      1.0  0.78509  0.79418  0.73444  1.0000
  H   H1145     1.0  0.71199  0.97888  0.77549  1.0000
  C   C954      1.0  0.77801  0.81278  0.74671  1.0000
  C   C955      1.0  0.86345  0.77407  0.97316  1.0000
  H   H1146     1.0  0.79101  0.98033  0.77551  1.0000
  C   C956      1.0  0.79327  0.94403  0.95689  1.0000
  H   H1147     1.0  0.98492  0.58263  0.69247  1.0000
  C   C957      1.0  0.68990  0.98674  0.74128  1.0000
  H   H1148     1.0  0.78541  0.90648  0.96918  1.0000
  N   N64       1.0  0.98630  0.59040  0.50488  1.0000
  C   C958      1.0  0.67594  0.85532  0.76490  1.0000
  H   H1149     1.0  0.88789  0.54862  0.50812  1.0000
  H   H1150     1.0  0.97695  0.56539  0.53075  1.0000
  C   C959      1.0  0.99083  0.57141  0.52223  1.0000
  H   H1151     1.0  0.93279  0.49834  0.69216  1.0000
  C   C960      1.0  0.89728  0.56072  0.50839  1.0000
  H   H1152     1.0  0.77050  0.97354  0.99466  1.0000
