data_image0
_chemical_formula_structural       HCHCNCFeSHSCFeCSCH3SH2CSC3HFeCH3CH2CH2C2HC6H4C6H2CH2CH2CHCHCH3CH3FeSH3SC3H2S2H2C5H2CSCHC2NH2NC3HCHNC2H4C2H2FeHC4HCH2FeHCFeCHS3HCSHCS2H5CSHFeHFeS2HCH2NHSCFeS2FeH4CH3CFeC6H4CH6C6H3CHCHC3HSH6NHNCSHCH3CH3C4HC3H2CHC2HCH4CHCHCSC2H6SH2CHC2HC5H2C2HCHCHC3H2SCHC3HCHC3HFeSCSHFeHSH2CHS2H2SH5C2FeHC3HSHFeHC6H5C6H4NSHCFeCHCHSHCH4C3H4CH2CNHNH4C2H2C2FeCH2SC5HSC3H4FeCSC3FeS2CHCFeC4FeS2H2C2HCS2H2C7H2C2HCSCFeCHC6H7CHC3HCH2SC4HCHCH2FeSH5CH2C2HSNCHCFeC2H5SHNH4C2HC2NCSH4CH4CH4CHFeH2CHCH2SFeH2CNHSH4C2SC2H3C2HFeHSHCHCHNHCHSHSCFeS2HS2H2SCHSC6H4C6H4FeHSH2SFeS2FeS3HSC7H2C7H4NC10H2C2H7FeCHCH3CSH5NH4CH6SH2SH6FeCFeHC3NC4FeH10CH5CHSHS2FeSHCHSHFeSHCSC6HCH2C6H5C3SC2HFeSCFeHS2HSFeSC6NH3FeH2C6H4NC9H14NC8FeH6FeCH8CNC2HC2HFeHSC2SHSH2FeC4HCSHCSHC2H2FeH2C3H4CH2CH5CSHFeSHFeS2H2SH3C6H3SC6H4FeHSHCSFeS2FeS2NC8H4C6H7SH3SHFeH3SCH2NHCHC2H2CH3NCFeC2FeHCHSC3HCH3CNC9H8CSFeHCHCHC3H2CH4CSH2C2HNH3CH2FeHCSCHSCHCH2C3FeHCHCSHCSCFeSNCHSCFeSHS2C6SH3C6H4CFeC2SHCHFeSHFeHSHCSFeSC6H4FeCSC6H5SH2NC2H10CH2C4HSCHCHCHSHCHNCH4CH2CH4FeH3CFeHCHSH3SC3HSFeCSHSH2FeSHSHFeCHFeHSHFeCNSHCH3CFeCSFeCHNHCHCSC6H4C6H4CHC3HC2HC3H2C3HCSH2NHCNH4SHSFeC2H2C4HCS2H5CHC2H2CH2CH2CSH3CH3C2H4SC2H3SH2CHSCFeSHCHCHNH2SHSHFeSH3SC2H2CHC6H4C6H4NSHCHCH2CH4CHSHCSFeNH2CHCH2CS2CH2SH3SHC5HFeSH3C2H3C2HCFeCH2CHCHC4HCH6CHC3FeH2C3H2NHCH2NSC2H2C2H2C3HFeCH2C2HFeHC2HFeSCSCFeSCFeCSC3S2H2CH3CHCH2C2HCH3C6H3C7H5CH3FeSC2H4C2HCHC3H2C2H2NHNHCHCHCHCH2CNCSC2H3CH2CH3CSH3SCHCFeSCSH2CHCHFeH4CH11CS2H2SHSHFeSCH6NC2S2FeSC2HFeC2HC9H4C6H2CH5CNC2HCH3CHC3NH6C2HCFeCHFeHCH3CSHCHC3NHFeH3CSHS2HCHC3H2CSCSHCH2CHCH2SHSC3FeH4N2H2CHCHSH4CHCHC2H
_chemical_formula_sum              "H864 C720 N48 Fe96 S192"
_cell_length_a       44.422
_cell_length_b       44.5537
_cell_length_c       38.6342
_cell_angle_alpha    89.8892
_cell_angle_beta     90.126
_cell_angle_gamma    90.2331

_space_group_name_H-M_alt    "P 1"
_space_group_IT_number       1

loop_
  _space_group_symop_operation_xyz
  'x, y, z'

loop_
  _atom_site_type_symbol
  _atom_site_label
  _atom_site_symmetry_multiplicity
  _atom_site_fract_x
  _atom_site_fract_y
  _atom_site_fract_z
  _atom_site_occupancy
  H   H1        1.0  0.20525  0.23654  0.45212  1.0000
  C   C1        1.0  0.10756  0.36635  0.34398  1.0000
  H   H2        1.0  0.24924  0.25519  0.06320  1.0000
  C   C2        1.0  0.28721  0.47657  0.40810  1.0000
  N   N1        1.0  0.04378  0.22163  0.10815  1.0000
  C   C3        1.0  0.22552  0.24663  0.46248  1.0000
  Fe  Fe1       1.0  0.10878  0.15650  0.04129  1.0000
  S   S1        1.0  0.10624  0.13319  0.09368  1.0000
  H   H3        1.0  0.03731  0.26473  0.08325  1.0000
  S   S2        1.0  0.12825  0.20276  0.03270  1.0000
  C   C4        1.0  0.06257  0.35790  0.30986  1.0000
  Fe  Fe2       1.0  0.13533  0.39783  0.45833  1.0000
  C   C5        1.0  0.20606  0.15636  0.48283  1.0000
  S   S3        1.0  0.09301  0.40672  0.42630  1.0000
  C   C6        1.0  0.27096  0.99897  0.44711  1.0000
  H   H4        1.0  0.19264  0.48376  0.49039  1.0000
  H   H5        1.0  0.05458  0.44130  0.26584  1.0000
  H   H6        1.0  0.02326  0.00152  0.38821  1.0000
  S   S4        1.0  0.18182  0.38365  0.44162  1.0000
  H   H7        1.0  0.29684  0.03971  0.45460  1.0000
  H   H8        1.0  0.03112  0.44680  0.47798  1.0000
  C   C7        1.0  0.21406  0.49493  0.49409  1.0000
  S   S5        1.0  0.31513  0.13652  0.44125  1.0000
  C   C8        1.0  0.11398  0.39180  0.32435  1.0000
  C   C9        1.0  0.06786  0.38434  0.29012  1.0000
  C   C10       1.0  0.31136  0.47070  0.38625  1.0000
  H   H9        1.0  0.06229  0.08778  0.04273  1.0000
  Fe  Fe3       1.0  0.17858  0.34660  0.48148  1.0000
  C   C11       1.0  0.29504  0.35783  0.06795  1.0000
  H   H10       1.0  0.04302  0.34400  0.30522  1.0000
  H   H11       1.0  0.02813  0.25356  0.14551  1.0000
  H   H12       1.0  0.09041  0.04303  0.03260  1.0000
  C   C12       1.0  0.09446  0.40092  0.29794  1.0000
  H   H13       1.0  0.07659  0.01447  0.00391  1.0000
  H   H14       1.0  0.21570  0.13726  0.46947  1.0000
  C   C13       1.0  0.06667  0.19753  0.10616  1.0000
  H   H15       1.0  0.00683  0.00411  0.43001  1.0000
  H   H16       1.0  0.22043  0.29982  0.00106  1.0000
  C   C14       1.0  0.27488  0.02925  0.45650  1.0000
  C   C15       1.0  0.32164  0.28952  0.10338  1.0000
  H   H17       1.0  0.27480  0.33848  0.14972  1.0000
  C   C16       1.0  0.07977  0.47146  0.33437  1.0000
  C   C17       1.0  0.05585  0.45417  0.34699  1.0000
  C   C18       1.0  0.06027  0.43470  0.37533  1.0000
  C   C19       1.0  0.08853  0.43253  0.39164  1.0000
  C   C20       1.0  0.11232  0.45031  0.37951  1.0000
  C   C21       1.0  0.10797  0.46955  0.35089  1.0000
  H   H18       1.0  0.03398  0.45573  0.33488  1.0000
  H   H19       1.0  0.04174  0.42108  0.38456  1.0000
  H   H20       1.0  0.13417  0.44886  0.39182  1.0000
  H   H21       1.0  0.09787  0.00876  0.36448  1.0000
  C   C22       1.0  0.07374  0.11677  0.11258  1.0000
  C   C23       1.0  0.07693  0.09937  0.14274  1.0000
  C   C24       1.0  0.05162  0.08656  0.15911  1.0000
  C   C25       1.0  0.02281  0.09124  0.14554  1.0000
  C   C26       1.0  0.01965  0.10841  0.11519  1.0000
  C   C27       1.0  0.04494  0.12120  0.09882  1.0000
  H   H22       1.0  0.09910  0.09591  0.15368  1.0000
  H   H23       1.0  0.05434  0.07346  0.18252  1.0000
  C   C28       1.0  0.16690  0.19333  0.48819  1.0000
  H   H24       1.0  0.04203  0.13460  0.07572  1.0000
  H   H25       1.0  0.25146  0.20564  0.45853  1.0000
  C   C29       1.0  0.27818  0.24157  0.47965  1.0000
  H   H26       1.0  0.12211  0.36021  0.36544  1.0000
  H   H27       1.0  0.29753  0.38258  0.07072  1.0000
  C   C30       1.0  0.01567  0.39682  0.27842  1.0000
  H   H28       1.0  0.04162  0.21911  0.16391  1.0000
  C   C31       1.0  0.05214  0.24468  0.08203  1.0000
  H   H29       1.0  0.06478  0.18512  0.08129  1.0000
  C   C32       1.0  0.25040  0.04572  0.46878  1.0000
  H   H30       1.0  0.03707  0.42942  0.22658  1.0000
  H   H31       1.0  0.13364  0.40526  0.33062  1.0000
  H   H32       1.0  0.06729  0.36745  0.22348  1.0000
  C   C33       1.0  0.00668  0.00098  0.10185  1.0000
  H   H33       1.0  0.00628  0.37517  0.28772  1.0000
  H   H34       1.0  0.03677  0.34867  0.24514  1.0000
  H   H35       1.0  0.06795  0.24608  0.14756  1.0000
  Fe  Fe4       1.0  0.01927  0.00546  0.26702  1.0000
  S   S6        1.0  0.06984  0.16278  0.00512  1.0000
  H   H36       1.0  0.12660  0.48287  0.34134  1.0000
  H   H37       1.0  0.32783  0.37706  0.12097  1.0000
  H   H38       1.0  0.06471  0.18084  0.12745  1.0000
  S   S7        1.0  0.31152  0.22003  0.48692  1.0000
  C   C34       1.0  0.00944  0.01628  0.40511  1.0000
  C   C35       1.0  0.07597  0.03896  0.00948  1.0000
  C   C36       1.0  0.22202  0.03206  0.47096  1.0000
  H   H39       1.0  0.07707  0.32963  0.35217  1.0000
  H   H40       1.0  0.27284  0.35351  0.05554  1.0000
  S   S8        1.0  0.05791  0.00729  0.30613  1.0000
  S   S9        1.0  0.03220  0.49608  0.20843  1.0000
  H   H41       1.0  0.07598  0.42197  0.23300  1.0000
  H   H42       1.0  0.27491  0.37550  0.13084  1.0000
  C   C37       1.0  0.25174  0.22898  0.46613  1.0000
  C   C38       1.0  0.27807  0.27224  0.48865  1.0000
  C   C39       1.0  0.03127  0.03255  0.04438  1.0000
  C   C40       1.0  0.22510  0.27703  0.47253  1.0000
  C   C41       1.0  0.00287  0.18476  0.12380  1.0000
  H   H43       1.0  0.02287  0.03699  0.41010  1.0000
  H   H44       1.0  0.02886  0.37754  0.21431  1.0000
  C   C42       1.0  0.17936  0.16898  0.47088  1.0000
  S   S10       1.0  0.19029  0.29705  0.47085  1.0000
  C   C43       1.0  0.08202  0.34930  0.33660  1.0000
  H   H45       1.0  0.29259  0.22266  0.07634  1.0000
  C   C44       1.0  0.32166  0.49288  0.36370  1.0000
  C   C45       1.0  0.26925  0.26476  0.07507  1.0000
  N   N2        1.0  0.29856  0.34190  0.10147  1.0000
  H   H46       1.0  0.16836  0.15988  0.44813  1.0000
  H   H47       1.0  0.09010  0.20643  0.10778  1.0000
  N   N3        1.0  0.04467  0.04929  0.01494  1.0000
  C   C46       1.0  0.04546  0.23571  0.14281  1.0000
  C   C47       1.0  0.01324  0.20891  0.10285  1.0000
  C   C48       1.0  0.29721  0.30902  0.09568  1.0000
  H   H48       1.0  0.14619  0.20326  0.47874  1.0000
  C   C49       1.0  0.27379  0.35108  0.12482  1.0000
  H   H49       1.0  0.25183  0.30903  0.07371  1.0000
  N   N4        1.0  0.04612  0.39370  0.26307  1.0000
  C   C50       1.0  0.25176  0.28984  0.48524  1.0000
  C   C51       1.0  0.04249  0.03675  0.07849  1.0000
  H   H50       1.0  0.25124  0.34700  0.11320  1.0000
  H   H51       1.0  0.27906  0.45915  0.42550  1.0000
  H   H52       1.0  0.32205  0.44887  0.38675  1.0000
  H   H53       1.0  0.06074  0.05222  0.08376  1.0000
  C   C52       1.0  0.27093  0.29561  0.08141  1.0000
  C   C53       1.0  0.04474  0.37076  0.23537  1.0000
  H   H54       1.0  0.10030  0.42160  0.28488  1.0000
  H   H55       1.0  0.05102  0.23518  0.05548  1.0000
  Fe  Fe5       1.0  0.19746  0.41243  0.48628  1.0000
  H   H56       1.0  0.31233  0.35039  0.04914  1.0000
  C   C54       1.0  0.03019  0.02129  0.10670  1.0000
  C   C55       1.0  0.24074  0.47844  0.49291  1.0000
  C   C56       1.0  0.04537  0.08195  0.02259  1.0000
  C   C57       1.0  0.21826  0.00175  0.46230  1.0000
  H   H57       1.0  0.02298  0.08996  0.03152  1.0000
  C   C58       1.0  0.05393  0.42283  0.24653  1.0000
  H   H58       1.0  0.20298  0.04482  0.48020  1.0000
  H   H59       1.0  0.07562  0.25302  0.08557  1.0000
  Fe  Fe6       1.0  0.32193  0.16946  0.48486  1.0000
  H   H60       1.0  0.01700  0.17494  0.14361  1.0000
  C   C59       1.0  0.29372  0.24640  0.08234  1.0000
  Fe  Fe7       1.0  0.30010  0.10500  0.48370  1.0000
  C   C60       1.0  0.31983  0.25872  0.09654  1.0000
  H   H61       1.0  0.33111  0.34186  0.14314  1.0000
  S   S11       1.0  0.13063  0.35869  0.49502  1.0000
  S   S12       1.0  0.25444  0.08278  0.48358  1.0000
  S   S13       1.0  0.13877  0.13620  0.00115  1.0000
  H   H62       1.0  0.03867  0.02537  0.13263  1.0000
  C   C61       1.0  0.00746  0.01132  0.04023  1.0000
  S   S14       1.0  0.07576  0.49489  0.29740  1.0000
  H   H63       1.0  0.01613  0.41256  0.30076  1.0000
  C   C62       1.0  0.32730  0.35224  0.11731  1.0000
  S   S15       1.0  0.24064  0.43953  0.48539  1.0000
  S   S16       1.0  0.02259  0.00195  0.20873  1.0000
  H   H64       1.0  0.00053  0.05713  0.35549  1.0000
  H   H65       1.0  0.05186  0.09551  0.99952  1.0000
  H   H66       1.0  0.02946  0.30189  0.99843  1.0000
  H   H67       1.0  0.25200  0.31317  0.49294  1.0000
  H   H68       1.0  0.28912  0.48053  0.49643  1.0000
  C   C63       1.0  0.03022  0.25405  0.99031  1.0000
  S   S17       1.0  0.11912  0.18973  0.94840  1.0000
  H   H69       1.0  0.21187  0.45401  0.55450  1.0000
  Fe  Fe8       1.0  0.02547  0.04061  0.75761  1.0000
  H   H70       1.0  0.26886  0.20339  0.97172  1.0000
  Fe  Fe9       1.0  0.10065  0.14451  0.96402  1.0000
  S   S18       1.0  0.08532  0.10282  0.93455  1.0000
  S   S19       1.0  0.28375  0.31211  0.99500  1.0000
  H   H71       1.0  0.21908  0.01532  0.53941  1.0000
  C   C64       1.0  0.24113  0.45793  0.61568  1.0000
  H   H72       1.0  0.17815  0.18153  0.90527  1.0000
  H   H73       1.0  0.02958  0.48949  0.90503  1.0000
  N   N5        1.0  0.20813  0.45482  0.61036  1.0000
  H   H74       1.0  0.22251  0.11247  0.88357  1.0000
  S   S20       1.0  0.19687  0.37458  0.52493  1.0000
  C   C65       1.0  0.16704  0.11843  0.85675  1.0000
  Fe  Fe10      1.0  0.14946  0.38985  0.53528  1.0000
  S   S21       1.0  0.13105  0.39070  0.59033  1.0000
  S   S22       1.0  0.30507  0.13868  0.52663  1.0000
  Fe  Fe11      1.0  0.15504  0.18318  0.98905  1.0000
  H   H75       1.0  0.20804  0.41187  0.63662  1.0000
  H   H76       1.0  0.01914  0.32947  0.89692  1.0000
  H   H77       1.0  0.00410  0.05243  0.98440  1.0000
  H   H78       1.0  0.23578  0.24756  0.53535  1.0000
  C   C66       1.0  0.22458  0.23977  0.55935  1.0000
  H   H79       1.0  0.22199  0.14614  0.85795  1.0000
  H   H80       1.0  0.14416  0.08399  0.88831  1.0000
  H   H81       1.0  0.05234  0.23308  0.91571  1.0000
  C   C67       1.0  0.13585  0.07671  0.83522  1.0000
  Fe  Fe12      1.0  0.09160  0.20722  0.99277  1.0000
  C   C68       1.0  0.08428  0.46987  0.64416  1.0000
  C   C69       1.0  0.09741  0.47384  0.61137  1.0000
  C   C70       1.0  0.11115  0.44969  0.59410  1.0000
  C   C71       1.0  0.11206  0.42132  0.60964  1.0000
  C   C72       1.0  0.09837  0.41723  0.64209  1.0000
  C   C73       1.0  0.08429  0.44131  0.65916  1.0000
  H   H82       1.0  0.02870  0.02164  0.97268  1.0000
  H   H83       1.0  0.12139  0.45316  0.56904  1.0000
  H   H84       1.0  0.09893  0.39535  0.65430  1.0000
  H   H85       1.0  0.07431  0.43794  0.68441  1.0000
  C   C74       1.0  0.00910  0.48071  0.61543  1.0000
  H   H86       1.0  0.03442  0.42221  0.60313  1.0000
  H   H87       1.0  0.08680  0.05099  0.98738  1.0000
  H   H88       1.0  0.32058  0.06226  0.62589  1.0000
  H   H89       1.0  0.25232  0.43566  0.61785  1.0000
  H   H90       1.0  0.12806  0.07506  0.78035  1.0000
  H   H91       1.0  0.14519  0.16898  0.88204  1.0000
  C   C75       1.0  0.05953  0.08792  0.82022  1.0000
  C   C76       1.0  0.05476  0.06556  0.84507  1.0000
  C   C77       1.0  0.06233  0.07079  0.87997  1.0000
  C   C78       1.0  0.07423  0.09859  0.89062  1.0000
  C   C79       1.0  0.07821  0.12134  0.86600  1.0000
  C   C80       1.0  0.07110  0.11590  0.83090  1.0000
  H   H92       1.0  0.04599  0.04391  0.83722  1.0000
  H   H93       1.0  0.05930  0.05296  0.89868  1.0000
  H   H94       1.0  0.08747  0.14277  0.87376  1.0000
  C   C81       1.0  0.17123  0.12726  0.82173  1.0000
  H   H95       1.0  0.02362  0.20667  0.98231  1.0000
  C   C82       1.0  0.21385  0.13587  0.88245  1.0000
  H   H96       1.0  0.03568  0.99856  0.62272  1.0000
  C   C83       1.0  0.29323  0.05113  0.58169  1.0000
  C   C84       1.0  0.16887  0.49169  0.63251  1.0000
  C   C85       1.0  0.25538  0.19620  0.56530  1.0000
  H   H97       1.0  0.15886  0.47547  0.64989  1.0000
  S   S23       1.0  0.05326  0.08095  0.77552  1.0000
  H   H98       1.0  0.17879  0.17957  0.85934  1.0000
  H   H99       1.0  0.01169  0.46865  0.87097  1.0000
  H   H100      1.0  0.24620  0.47080  0.63968  1.0000
  H   H101      1.0  0.21357  0.41816  0.57481  1.0000
  H   H102      1.0  0.18475  0.14666  0.81519  1.0000
  H   H103      1.0  0.26527  0.03513  0.54109  1.0000
  N   N6        1.0  0.18056  0.13631  0.88516  1.0000
  H   H104      1.0  0.16019  0.11928  0.76805  1.0000
  N   N7        1.0  0.22378  0.20643  0.56080  1.0000
  C   C86       1.0  0.03122  0.23791  0.90267  1.0000
  S   S24       1.0  0.01263  0.03308  0.70136  1.0000
  H   H105      1.0  0.18285  0.20565  0.59059  1.0000
  C   C87       1.0  0.15747  0.11166  0.79452  1.0000
  H   H106      1.0  0.20507  0.17222  0.59363  1.0000
  H   H107      1.0  0.21676  0.20578  0.61596  1.0000
  H   H108      1.0  0.02601  0.49582  0.60319  1.0000
  C   C88       1.0  0.29700  0.02037  0.63289  1.0000
  H   H109      1.0  0.17818  0.43737  0.57152  1.0000
  H   H110      1.0  0.26894  0.20088  0.54160  1.0000
  H   H111      1.0  0.20363  0.00572  0.58085  1.0000
  C   C89       1.0  0.01962  0.01172  0.60668  1.0000
  C   C90       1.0  0.23115  0.27877  0.99479  1.0000
  C   C91       1.0  0.20271  0.44056  0.57633  1.0000
  C   C92       1.0  0.30499  0.04617  0.61462  1.0000
  H   H112      1.0  0.03241  0.28326  0.91809  1.0000
  C   C93       1.0  0.14915  0.09235  0.86268  1.0000
  C   C94       1.0  0.05156  0.42045  0.51796  1.0000
  C   C95       1.0  0.20637  0.19714  0.59166  1.0000
  H   H113      1.0  0.07499  0.13328  0.81182  1.0000
  H   H114      1.0  0.18271  0.13912  0.94097  1.0000
  C   C96       1.0  0.13960  0.08658  0.80130  1.0000
  H   H115      1.0  0.12143  0.05750  0.84035  1.0000
  C   C97       1.0  0.19652  0.43403  0.63741  1.0000
  C   C98       1.0  0.01576  0.21502  0.88568  1.0000
  H   H116      1.0  0.29972  0.07110  0.56733  1.0000
  C   C99       1.0  0.01513  0.49164  0.88166  1.0000
  H   H117      1.0  0.25243  0.46948  0.59367  1.0000
  H   H118      1.0  0.03163  0.03146  0.59559  1.0000
  H   H119      1.0  0.22463  0.14874  0.90399  1.0000
  H   H120      1.0  0.19977  0.44339  0.66384  1.0000
  C   C100      1.0  0.27338  0.03034  0.56693  1.0000
  H   H121      1.0  0.09735  0.49582  0.59943  1.0000
  C   C101      1.0  0.21336  0.25251  0.99156  1.0000
  H   H122      1.0  0.03799  0.05904  0.96056  1.0000
  C   C102      1.0  0.17249  0.12507  0.92016  1.0000
  S   S25       1.0  0.20518  0.19135  0.97740  1.0000
  C   C103      1.0  0.01134  0.45598  0.52806  1.0000
  C   C104      1.0  0.17022  0.16789  0.88277  1.0000
  H   H123      1.0  0.26699  0.20784  0.58707  1.0000
  H   H124      1.0  0.29840  0.28238  0.49884  1.0000
  H   H125      1.0  0.02494  0.19250  0.88524  1.0000
  H   H126      1.0  0.23733  0.24967  0.58140  1.0000
  H   H127      1.0  0.30011  0.24958  0.97811  1.0000
  H   H128      1.0  0.18075  0.10184  0.92462  1.0000
  S   S26       1.0  0.15142  0.42967  0.49977  1.0000
  H   H129      1.0  0.14768  0.12546  0.92419  1.0000
  H   H130      1.0  0.25673  0.17182  0.57130  1.0000
  C   C105      1.0  0.26259  0.27810  0.98991  1.0000
  H   H131      1.0  0.17044  0.22412  0.52972  1.0000
  C   C106      1.0  0.03126  0.44161  0.50547  1.0000
  C   C107      1.0  0.27601  0.25061  0.98180  1.0000
  H   H132      1.0  0.17220  0.42887  0.63350  1.0000
  C   C108      1.0  0.25817  0.22439  0.97825  1.0000
  C   C109      1.0  0.19370  0.48473  0.61079  1.0000
  C   C110      1.0  0.01144  0.44954  0.56420  1.0000
  C   C111      1.0  0.03257  0.42795  0.57600  1.0000
  C   C112      1.0  0.20907  0.19371  0.52956  1.0000
  H   H133      1.0  0.20196  0.25021  0.56012  1.0000
  H   H134      1.0  0.06804  0.39705  0.56266  1.0000
  C   C113      1.0  0.05208  0.41351  0.55309  1.0000
  C   C114      1.0  0.18127  0.20537  0.51730  1.0000
  H   H135      1.0  0.30661  0.01648  0.65835  1.0000
  C   C115      1.0  0.22671  0.22509  0.98306  1.0000
  H   H136      1.0  0.06700  0.40944  0.50033  1.0000
  C   C116      1.0  0.01286  0.22808  0.98628  1.0000
  H   H137      1.0  0.24122  0.15731  0.51944  1.0000
  C   C117      1.0  0.02799  0.04530  0.98184  1.0000
  C   C118      1.0  0.01934  0.26692  0.90384  1.0000
  C   C119      1.0  0.22068  0.16830  0.51181  1.0000
  H   H138      1.0  0.02169  0.46514  0.63262  1.0000
  H   H139      1.0  0.18926  0.25360  0.99525  1.0000
  S   S27       1.0  0.06966  0.25263  0.98914  1.0000
  C   C120      1.0  0.26454  0.00383  0.58486  1.0000
  H   H140      1.0  0.00260  0.02054  0.62515  1.0000
  C   C121      1.0  0.26841  0.49321  0.49738  1.0000
  C   C122      1.0  0.01603  0.28178  0.99504  1.0000
  C   C123      1.0  0.27701  0.99944  0.61844  1.0000
  H   H141      1.0  0.00078  0.49228  0.95674  1.0000
  C   C124      1.0  0.13793  0.93140  0.32477  1.0000
  H   H142      1.0  0.23742  0.54408  0.34533  1.0000
  C   C125      1.0  0.29242  0.58188  0.38851  1.0000
  C   C126      1.0  0.21896  0.75717  0.47437  1.0000
  C   C127      1.0  0.16140  0.95314  0.32610  1.0000
  H   H143      1.0  0.15810  0.97925  0.38776  1.0000
  Fe  Fe13      1.0  0.10843  0.65898  0.03311  1.0000
  S   S28       1.0  0.10730  0.64190  0.08880  1.0000
  C   C128      1.0  0.19891  0.92184  0.35454  1.0000
  S   S29       1.0  0.12477  0.70624  0.02317  1.0000
  H   H144      1.0  0.31934  0.76314  0.02968  1.0000
  Fe  Fe14      1.0  0.13196  0.90649  0.45560  1.0000
  H   H145      1.0  0.30882  0.58280  0.36686  1.0000
  S   S30       1.0  0.08960  0.90989  0.42198  1.0000
  H   H146      1.0  0.27956  0.73056  0.03345  1.0000
  H   H147      1.0  0.09612  0.95825  0.25777  1.0000
  C   C129      1.0  0.11459  0.95641  0.27606  1.0000
  H   H148      1.0  0.06261  0.68561  0.06810  1.0000
  S   S31       1.0  0.17494  0.88576  0.43655  1.0000
  S   S32       1.0  0.00041  0.57390  0.16686  1.0000
  H   H149      1.0  0.05804  0.76075  0.11566  1.0000
  H   H150      1.0  0.04360  0.67663  0.12850  1.0000
  S   S33       1.0  0.28863  0.64010  0.46192  1.0000
  H   H151      1.0  0.25471  0.50750  0.42529  1.0000
  H   H152      1.0  0.22067  0.97222  0.32502  1.0000
  H   H153      1.0  0.18289  0.90350  0.36109  1.0000
  H   H154      1.0  0.20075  0.75068  0.45730  1.0000
  H   H155      1.0  0.22288  0.79629  0.02522  1.0000
  C   C130      1.0  0.28359  0.71578  0.05500  1.0000
  C   C131      1.0  0.31483  0.69138  0.09797  1.0000
  Fe  Fe15      1.0  0.03218  0.50069  0.26672  1.0000
  H   H156      1.0  0.04945  0.71779  0.04427  1.0000
  C   C132      1.0  0.23159  0.77934  0.00793  1.0000
  C   C133      1.0  0.21339  0.75432  0.99940  1.0000
  C   C134      1.0  0.11511  0.93294  0.29988  1.0000
  H   H157      1.0  0.02912  0.93927  0.47888  1.0000
  S   S34       1.0  0.23904  0.94630  0.44270  1.0000
  H   H158      1.0  0.13632  0.91361  0.34378  1.0000
  Fe  Fe16      1.0  0.19817  0.92298  0.46535  1.0000
  H   H159      1.0  0.24246  0.71502  0.46857  1.0000
  C   C135      1.0  0.30798  0.52110  0.36312  1.0000
  C   C136      1.0  0.06511  0.98048  0.33917  1.0000
  C   C137      1.0  0.05020  0.95278  0.34039  1.0000
  C   C138      1.0  0.05772  0.93157  0.36614  1.0000
  C   C139      1.0  0.07997  0.93789  0.39109  1.0000
  C   C140      1.0  0.09361  0.96621  0.39100  1.0000
  H   H160      1.0  0.18581  0.95693  0.40923  1.0000
  H   H161      1.0  0.03352  0.94733  0.32092  1.0000
  H   H162      1.0  0.04666  0.90988  0.36627  1.0000
  H   H163      1.0  0.10947  0.97196  0.41118  1.0000
  H   H164      1.0  0.19642  0.99143  0.46481  1.0000
  C   C141      1.0  0.07824  0.62040  0.10858  1.0000
  C   C142      1.0  0.08280  0.60889  0.14211  1.0000
  C   C143      1.0  0.05968  0.59330  0.15962  1.0000
  C   C144      1.0  0.03142  0.58972  0.14409  1.0000
  C   C145      1.0  0.02688  0.60116  0.11049  1.0000
  C   C146      1.0  0.05033  0.61589  0.09255  1.0000
  H   H165      1.0  0.10432  0.61220  0.15474  1.0000
  H   H166      1.0  0.06346  0.58484  0.18553  1.0000
  H   H167      1.0  0.25614  0.55972  0.43755  1.0000
  H   H168      1.0  0.04671  0.62408  0.06652  1.0000
  N   N8        1.0  0.18441  0.95182  0.35386  1.0000
  S   S35       1.0  0.00629  0.54426  0.26614  1.0000
  H   H169      1.0  0.32419  0.73056  0.00215  1.0000
  C   C147      1.0  0.24276  0.98500  0.45076  1.0000
  Fe  Fe17      1.0  0.17680  0.86030  0.48698  1.0000
  C   C148      1.0  0.24623  0.56262  0.41129  1.0000
  H   H170      1.0  0.09701  0.91653  0.29997  1.0000
  C   C149      1.0  0.26103  0.68224  0.09699  1.0000
  H   H171      1.0  0.29131  0.66241  0.13381  1.0000
  S   S36       1.0  0.28290  0.81441  0.00686  1.0000
  H   H172      1.0  0.22686  0.54688  0.40840  1.0000
  C   C150      1.0  0.25822  0.70147  0.06874  1.0000
  H   H173      1.0  0.04079  0.81275  0.11692  1.0000
  H   H174      1.0  0.23665  0.58567  0.41051  1.0000
  H   H175      1.0  0.08359  0.94745  0.48600  1.0000
  H   H176      1.0  0.07373  0.72225  0.08094  1.0000
  C   C151      1.0  0.27337  0.50471  0.40775  1.0000
  C   C152      1.0  0.02579  0.79524  0.10763  1.0000
  C   C153      1.0  0.31282  0.71093  0.06897  1.0000
  H   H177      1.0  0.01369  0.66574  0.07921  1.0000
  H   H178      1.0  0.15234  0.93953  0.39344  1.0000
  H   H179      1.0  0.29002  0.98612  0.43811  1.0000
  H   H180      1.0  0.00514  0.59841  0.09821  1.0000
  C   C154      1.0  0.08659  0.98719  0.36486  1.0000
  H   H181      1.0  0.28235  0.60470  0.38972  1.0000
  H   H182      1.0  0.20004  0.99784  0.35262  1.0000
  C   C155      1.0  0.03601  0.70050  0.12847  1.0000
  N   N9        1.0  0.26932  0.55803  0.38405  1.0000
  H   H183      1.0  0.19098  0.75223  0.01009  1.0000
  N   N10       1.0  0.02748  0.71070  0.09320  1.0000
  H   H184      1.0  0.01670  0.70230  0.14664  1.0000
  H   H185      1.0  0.27096  0.56103  0.32826  1.0000
  H   H186      1.0  0.24123  0.67123  0.10753  1.0000
  H   H187      1.0  0.23619  0.70537  0.05729  1.0000
  C   C156      1.0  0.25454  0.56200  0.34993  1.0000
  C   C157      1.0  0.03543  0.76539  0.10684  1.0000
  H   H188      1.0  0.20914  0.91646  0.32905  1.0000
  H   H189      1.0  0.24298  0.58409  0.34798  1.0000
  C   C158      1.0  0.01646  0.74204  0.09437  1.0000
  C   C159      1.0  0.05440  0.70907  0.07067  1.0000
  Fe  Fe18      1.0  0.00297  0.53722  0.20831  1.0000
  C   C160      1.0  0.20879  0.97457  0.35020  1.0000
  H   H190      1.0  0.31681  0.53744  0.34503  1.0000
  H   H191      1.0  0.21703  0.92061  0.37456  1.0000
  S   S37       1.0  0.18657  0.80958  0.48265  1.0000
  C   C161      1.0  0.24250  0.73666  0.48112  1.0000
  C   C162      1.0  0.28926  0.67728  0.11168  1.0000
  C   C163      1.0  0.28360  0.52804  0.38543  1.0000
  C   C164      1.0  0.16949  0.95705  0.38750  1.0000
  C   C165      1.0  0.16033  0.97670  0.30122  1.0000
  H   H192      1.0  0.30544  0.57846  0.41284  1.0000
  S   S38       1.0  0.15516  0.94567  0.48044  1.0000
  C   C166      1.0  0.13712  0.97821  0.27672  1.0000
  C   C167      1.0  0.21861  0.78593  0.48957  1.0000
  C   C168      1.0  0.00487  0.68906  0.07952  1.0000
  H   H193      1.0  0.17673  0.99461  0.30055  1.0000
  H   H194      1.0  0.05507  0.71366  0.13939  1.0000
  H   H195      1.0  0.13607  0.99682  0.25862  1.0000
  H   H196      1.0  0.22613  0.97220  0.37099  1.0000
  Fe  Fe19      1.0  0.33294  0.82660  0.00055  1.0000
  C   C169      1.0  0.32344  0.83369  0.87639  1.0000
  S   S39       1.0  0.11761  0.69114  0.93995  1.0000
  C   C170      1.0  0.19050  0.53609  0.58772  1.0000
  C   C171      1.0  0.26838  0.87216  0.87348  1.0000
  C   C172      1.0  0.00709  0.72680  0.98810  1.0000
  Fe  Fe20      1.0  0.10222  0.64492  0.95586  1.0000
  S   S40       1.0  0.09633  0.60481  0.91949  1.0000
  S   S41       1.0  0.00344  0.58179  0.79593  1.0000
  C   C173      1.0  0.09629  0.67740  0.82441  1.0000
  H   H197      1.0  0.24410  0.95342  0.52278  1.0000
  C   C174      1.0  0.20398  0.50780  0.58826  1.0000
  Fe  Fe21      1.0  0.28811  0.60413  0.50295  1.0000
  C   C175      1.0  0.07887  0.97351  0.53253  1.0000
  C   C176      1.0  0.14599  0.64653  0.85396  1.0000
  C   C177      1.0  0.26094  0.78245  0.99470  1.0000
  C   C178      1.0  0.01717  0.71254  0.88094  1.0000
  Fe  Fe22      1.0  0.15779  0.91682  0.52814  1.0000
  S   S42       1.0  0.15357  0.94321  0.57841  1.0000
  S   S43       1.0  0.30572  0.63420  0.54527  1.0000
  H   H198      1.0  0.13710  0.98244  0.63408  1.0000
  H   H199      1.0  0.05235  0.91161  0.61645  1.0000
  C   C179      1.0  0.19734  0.70021  0.55054  1.0000
  C   C180      1.0  0.00232  0.56771  0.52662  1.0000
  H   H200      1.0  0.12230  0.60689  0.83339  1.0000
  C   C181      1.0  0.06803  0.95716  0.50443  1.0000
  S   S44       1.0  0.03763  0.99229  0.76742  1.0000
  S   S45       1.0  0.29509  0.71849  0.51600  1.0000
  H   H201      1.0  0.11717  0.71753  0.84395  1.0000
  H   H202      1.0  0.33117  0.85654  0.87300  1.0000
  C   C182      1.0  0.27172  0.76038  0.97222  1.0000
  C   C183      1.0  0.06885  0.94895  0.64655  1.0000
  C   C184      1.0  0.07071  0.92730  0.62020  1.0000
  C   C185      1.0  0.09627  0.92555  0.59879  1.0000
  C   C186      1.0  0.12043  0.94527  0.60381  1.0000
  C   C187      1.0  0.11850  0.96709  0.62999  1.0000
  C   C188      1.0  0.09274  0.96910  0.65112  1.0000
  H   H203      1.0  0.26587  0.78925  0.90595  1.0000
  H   H204      1.0  0.09744  0.90866  0.57876  1.0000
  C   C189      1.0  0.24624  0.84160  0.91794  1.0000
  C   C190      1.0  0.05896  0.98546  0.55686  1.0000
  H   H205      1.0  0.10299  0.97619  0.53607  1.0000
  C   C191      1.0  0.17429  0.63881  0.90711  1.0000
  S   S46       1.0  0.00302  0.54071  0.70327  1.0000
  C   C192      1.0  0.01108  0.78096  0.98953  1.0000
  Fe  Fe23      1.0  0.15366  0.68759  0.98086  1.0000
  C   C193      1.0  0.24133  0.67876  0.58151  1.0000
  H   H206      1.0  0.19902  0.63647  0.82409  1.0000
  C   C194      1.0  0.02912  0.58766  0.83056  1.0000
  C   C195      1.0  0.05182  0.56705  0.83829  1.0000
  C   C196      1.0  0.07180  0.57248  0.86598  1.0000
  C   C197      1.0  0.06949  0.59864  0.88613  1.0000
  C   C198      1.0  0.04664  0.61916  0.87863  1.0000
  C   C199      1.0  0.02656  0.61367  0.85098  1.0000
  H   H207      1.0  0.05414  0.54702  0.82278  1.0000
  H   H208      1.0  0.08937  0.55644  0.87161  1.0000
  H   H209      1.0  0.04458  0.63927  0.89405  1.0000
  H   H210      1.0  0.19986  0.98059  0.54486  1.0000
  H   H211      1.0  0.24986  0.82736  0.94133  1.0000
  H   H212      1.0  0.26223  0.71826  0.94657  1.0000
  H   H213      1.0  0.25802  0.85938  0.85173  1.0000
  C   C200      1.0  0.26582  0.74423  0.50404  1.0000
  H   H214      1.0  0.22024  0.62915  0.86301  1.0000
  C   C201      1.0  0.24286  0.54085  0.50395  1.0000
  C   C202      1.0  0.22428  0.73201  0.97733  1.0000
  C   C203      1.0  0.20015  0.64095  0.85241  1.0000
  H   H215      1.0  0.03082  0.69246  0.87967  1.0000
  C   C204      1.0  0.29498  0.82726  0.89138  1.0000
  H   H216      1.0  0.07703  0.68905  0.81365  1.0000
  H   H217      1.0  0.28021  0.95801  0.54331  1.0000
  S   S47       1.0  0.03598  0.95000  0.67252  1.0000
  C   C205      1.0  0.16626  0.54219  0.60938  1.0000
  C   C206      1.0  0.02087  0.55879  0.55413  1.0000
  C   C207      1.0  0.26561  0.77309  0.51898  1.0000
  C   C208      1.0  0.26949  0.52434  0.50278  1.0000
  H   H218      1.0  0.25777  0.69510  0.57038  1.0000
  C   C209      1.0  0.01126  0.76447  0.89813  1.0000
  H   H219      1.0  0.16036  0.69165  0.86893  1.0000
  C   C210      1.0  0.28698  0.79645  0.89483  1.0000
  H   H220      1.0  0.25616  0.94242  0.59784  1.0000
  H   H221      1.0  0.28352  0.77943  0.53655  1.0000
  Fe  Fe24      1.0  0.30825  0.66959  0.50339  1.0000
  S   S48       1.0  0.03460  0.50226  0.76558  1.0000
  H   H222      1.0  0.19288  0.62669  0.92043  1.0000
  H   H223      1.0  0.20442  0.66538  0.85591  1.0000
  H   H224      1.0  0.19880  0.55319  0.57004  1.0000
  H   H225      1.0  0.09159  0.98586  0.67130  1.0000
  H   H226      1.0  0.01175  0.56581  0.50098  1.0000
  C   C211      1.0  0.29109  0.86961  0.93016  1.0000
  H   H227      1.0  0.17861  0.66305  0.91158  1.0000
  H   H228      1.0  0.13619  0.52459  0.64813  1.0000
  C   C212      1.0  0.11889  0.69336  0.84145  1.0000
  C   C213      1.0  0.09833  0.64634  0.82144  1.0000
  H   H229      1.0  0.21040  0.62903  0.57979  1.0000
  S   S49       1.0  0.14047  0.63992  0.99402  1.0000
  N   N11       1.0  0.24412  0.98178  0.56814  1.0000
  C   C214      1.0  0.14351  0.67827  0.85579  1.0000
  H   H230      1.0  0.15309  0.63292  0.92074  1.0000
  C   C215      1.0  0.20479  0.72907  0.56383  1.0000
  Fe  Fe25      1.0  0.03265  0.49996  0.70721  1.0000
  C   C216      1.0  0.15549  0.52005  0.63172  1.0000
  C   C217      1.0  0.25354  0.73531  0.96371  1.0000
  H   H231      1.0  0.25252  0.89030  0.88100  1.0000
  H   H232      1.0  0.24250  0.81572  0.52376  1.0000
  H   H233      1.0  0.13400  0.72156  0.50555  1.0000
  H   H234      1.0  0.30025  0.75037  0.88780  1.0000
  H   H235      1.0  0.02823  0.50467  0.86213  1.0000
  S   S50       1.0  0.20260  0.69952  0.96631  1.0000
  H   H236      1.0  0.15557  0.56399  0.60866  1.0000
  N   N12       1.0  0.27531  0.85202  0.90306  1.0000
  H   H237      1.0  0.29095  0.53545  0.50623  1.0000
  H   H238      1.0  0.27681  0.88791  0.94067  1.0000
  H   H239      1.0  0.02164  0.78353  0.91069  1.0000
  H   H240      1.0  0.18981  0.58681  0.88050  1.0000
  C   C218      1.0  0.12273  0.63100  0.83591  1.0000
  C   C219      1.0  0.17035  0.59781  0.86750  1.0000
  H   H241      1.0  0.26455  0.98762  0.51792  1.0000
  C   C220      1.0  0.02466  0.75281  0.98582  1.0000
  C   C221      1.0  0.19680  0.64918  0.57293  1.0000
  N   N13       1.0  0.17211  0.63107  0.86985  1.0000
  C   C222      1.0  0.25885  0.96969  0.53675  1.0000
  S   S51       1.0  0.06355  0.75110  0.97794  1.0000
  H   H242      1.0  0.28884  0.88361  0.86331  1.0000
  H   H243      1.0  0.14974  0.58904  0.88058  1.0000
  H   H244      1.0  0.17033  0.59003  0.84015  1.0000
  H   H245      1.0  0.23271  0.82870  0.89875  1.0000
  C   C223      1.0  0.30663  0.77371  0.88444  1.0000
  H   H246      1.0  0.29409  0.76256  0.96151  1.0000
  H   H247      1.0  0.01731  0.70504  0.98465  1.0000
  H   H248      1.0  0.02513  0.55390  0.60950  1.0000
  H   H249      1.0  0.00717  0.95141  0.60750  1.0000
  C   C224      1.0  0.24239  0.79386  0.51164  1.0000
  H   H250      1.0  0.27188  0.97994  0.63399  1.0000
  H   H251      1.0  0.08049  0.63388  0.80855  1.0000
  H   H252      1.0  0.23206  0.86070  0.92665  1.0000
  H   H253      1.0  0.29740  0.85489  0.95227  1.0000
  C   C225      1.0  0.23605  0.95585  0.59058  1.0000
  H   H254      1.0  0.25435  0.65795  0.58679  1.0000
  Fe  Fe26      1.0  0.02111  0.98422  0.71283  1.0000
  H   H255      1.0  0.19444  0.53880  0.50026  1.0000
  H   H256      1.0  0.23344  0.68740  0.60690  1.0000
  C   C226      1.0  0.02886  0.73857  0.89572  1.0000
  H   H257      1.0  0.19328  0.77605  0.56621  1.0000
  C   C227      1.0  0.01704  0.96447  0.52464  1.0000
  H   H258      1.0  0.05157  0.73856  0.90611  1.0000
  H   H259      1.0  0.22032  0.94009  0.57719  1.0000
  S   S52       1.0  0.24357  0.57998  0.51007  1.0000
  Fe  Fe27      1.0  0.08796  0.70705  0.98322  1.0000
  H   H260      1.0  0.22495  0.73330  0.57872  1.0000
  H   H261      1.0  0.17912  0.64104  0.55482  1.0000
  C   C228      1.0  0.18671  0.75400  0.55691  1.0000
  N   N14       1.0  0.21576  0.67319  0.55744  1.0000
  H   H262      1.0  0.22417  0.96323  0.61444  1.0000
  S   S53       1.0  0.20285  0.89660  0.51458  1.0000
  H   H263      1.0  0.02467  0.80113  0.98792  1.0000
  H   H264      1.0  0.00257  0.55166  0.88584  1.0000
  H   H265      1.0  0.04342  0.55059  0.54909  1.0000
  H   H266      1.0  0.24194  0.64133  0.52860  1.0000
  C   C229      1.0  0.01065  0.56055  0.58815  1.0000
  C   C230      1.0  0.21556  0.99658  0.55789  1.0000
  S   S54       1.0  0.13160  0.87853  0.50450  1.0000
  C   C231      1.0  0.03720  0.95264  0.50047  1.0000
  C   C232      1.0  0.22841  0.66193  0.52450  1.0000
  H   H267      1.0  0.06910  0.99699  0.57854  1.0000
  H   H268      1.0  0.18550  0.65728  0.59683  1.0000
  H   H269      1.0  0.31215  0.88034  0.92058  1.0000
  C   C233      1.0  0.21514  0.52610  0.49961  1.0000
  C   C234      1.0  0.02728  0.98146  0.55351  1.0000
  H   H270      1.0  0.00713  0.53525  0.92732  1.0000
  Fe  Fe28      1.0  0.00171  0.54005  0.76166  1.0000
  H   H271      1.0  0.00899  0.62970  0.84528  1.0000
  S   S55       1.0  0.06961  0.50150  0.66612  1.0000
  H   H272      1.0  0.24352  0.67891  0.51250  1.0000
  C   C235      1.0  0.16117  0.75118  0.53624  1.0000
  H   H273      1.0  0.16456  0.67724  0.51758  1.0000
  C   C236      1.0  0.17117  0.69819  0.52943  1.0000
  H   H274      1.0  0.14802  0.77091  0.52983  1.0000
  N   N15       1.0  0.00550  0.99297  0.57926  1.0000
  H   H275      1.0  0.22232  0.50399  0.57047  1.0000
  C   C237      1.0  0.15345  0.72336  0.52243  1.0000
  H   H276      1.0  0.21081  0.65612  0.50518  1.0000
  S   S56       1.0  0.06934  0.66121  0.99604  1.0000
  H   H277      1.0  0.52335  0.07603  0.00082  1.0000
  S   S57       1.0  0.48328  0.47209  0.27925  1.0000
  C   C238      1.0  0.52033  0.00162  0.09522  1.0000
  Fe  Fe29      1.0  0.47949  0.47402  0.22115  1.0000
  S   S58       1.0  0.47990  0.43239  0.18666  1.0000
  S   S59       1.0  0.62763  0.35775  0.49377  1.0000
  H   H278      1.0  0.60512  0.40351  0.26393  1.0000
  S   S60       1.0  0.38008  0.39839  0.07385  1.0000
  S   S61       1.0  0.36664  0.31596  0.03575  1.0000
  H   H279      1.0  0.33903  0.24441  0.10161  1.0000
  H   H280      1.0  0.49009  0.10766  0.48621  1.0000
  S   S62       1.0  0.40363  0.11139  0.42037  1.0000
  C   C239      1.0  0.54137  0.04888  0.07569  1.0000
  H   H281      1.0  0.52176  0.04159  0.12610  1.0000
  S   S63       1.0  0.43065  0.01779  0.29961  1.0000
  C   C240      1.0  0.42416  0.04310  0.33421  1.0000
  C   C241      1.0  0.44548  0.06467  0.34398  1.0000
  C   C242      1.0  0.43891  0.08512  0.37069  1.0000
  C   C243      1.0  0.41113  0.08410  0.38812  1.0000
  C   C244      1.0  0.39020  0.06192  0.37909  1.0000
  C   C245      1.0  0.39670  0.04159  0.35220  1.0000
  H   H282      1.0  0.46684  0.06582  0.33074  1.0000
  H   H283      1.0  0.45525  0.10219  0.37753  1.0000
  H   H284      1.0  0.64173  0.20460  0.46262  1.0000
  H   H285      1.0  0.52514  0.48147  0.13867  1.0000
  C   C246      1.0  0.45160  0.42276  0.15600  1.0000
  C   C247      1.0  0.45701  0.39940  0.13238  1.0000
  C   C248      1.0  0.43550  0.39169  0.10693  1.0000
  C   C249      1.0  0.40820  0.40715  0.10504  1.0000
  C   C250      1.0  0.40277  0.43043  0.12877  1.0000
  C   C251      1.0  0.42432  0.43823  0.15409  1.0000
  H   H286      1.0  0.47802  0.38724  0.13361  1.0000
  H   H287      1.0  0.43998  0.37369  0.08891  1.0000
  H   H288      1.0  0.38168  0.44246  0.12764  1.0000
  H   H289      1.0  0.41969  0.45604  0.17229  1.0000
  Fe  Fe30      1.0  0.51130  0.04768  0.21042  1.0000
  H   H290      1.0  0.48055  0.14285  0.27170  1.0000
  S   S64       1.0  0.50995  0.09012  0.17724  1.0000
  H   H291      1.0  0.45654  0.00088  0.40180  1.0000
  H   H292      1.0  0.36877  0.06079  0.39232  1.0000
  S   S65       1.0  0.51056  0.04832  0.26870  1.0000
  Fe  Fe31      1.0  0.61313  0.16135  0.03034  1.0000
  S   S66       1.0  0.61764  0.13680  0.08183  1.0000
  S   S67       1.0  0.62847  0.20880  0.01963  1.0000
  Fe  Fe32      1.0  0.63342  0.39904  0.46047  1.0000
  S   S68       1.0  0.47005  0.01820  0.20684  1.0000
  S   S69       1.0  0.59148  0.40936  0.42828  1.0000
  S   S70       1.0  0.36965  0.15398  0.49333  1.0000
  H   H293      1.0  0.54496  0.09781  0.03123  1.0000
  S   S71       1.0  0.57702  0.00791  0.30716  1.0000
  C   C252      1.0  0.57323  0.47447  0.33772  1.0000
  C   C253      1.0  0.54986  0.45798  0.35291  1.0000
  C   C254      1.0  0.55588  0.43858  0.38092  1.0000
  C   C255      1.0  0.58527  0.43535  0.39408  1.0000
  C   C256      1.0  0.60862  0.45198  0.37905  1.0000
  C   C257      1.0  0.60259  0.47143  0.35102  1.0000
  C   C258      1.0  0.38148  0.14041  0.33372  1.0000
  H   H294      1.0  0.53768  0.42576  0.39230  1.0000
  H   H295      1.0  0.63134  0.44967  0.38879  1.0000
  C   C259      1.0  0.54662  0.08225  0.00881  1.0000
  C   C260      1.0  0.58709  0.12345  0.10718  1.0000
  C   C261      1.0  0.59249  0.10140  0.13251  1.0000
  C   C262      1.0  0.56901  0.09054  0.15365  1.0000
  C   C263      1.0  0.53994  0.10212  0.15016  1.0000
  C   C264      1.0  0.53449  0.12409  0.12470  1.0000
  C   C265      1.0  0.55785  0.13447  0.10302  1.0000
  H   H296      1.0  0.61500  0.09268  0.13591  1.0000
  H   H297      1.0  0.57355  0.07364  0.17311  1.0000
  H   H298      1.0  0.51208  0.13318  0.12177  1.0000
  H   H299      1.0  0.55337  0.15153  0.08374  1.0000
  N   N16       1.0  0.54342  0.39829  0.26290  1.0000
  C   C266      1.0  0.54750  0.43051  0.25441  1.0000
  C   C267      1.0  0.54992  0.38033  0.23155  1.0000
  C   C268      1.0  0.51115  0.39371  0.27167  1.0000
  C   C269      1.0  0.56429  0.38973  0.29120  1.0000
  C   C270      1.0  0.55427  0.37729  0.32313  1.0000
  C   C271      1.0  0.59581  0.39410  0.28738  1.0000
  C   C272      1.0  0.57463  0.37023  0.34957  1.0000
  C   C273      1.0  0.61590  0.38720  0.31412  1.0000
  C   C274      1.0  0.60531  0.37538  0.34518  1.0000
  C   C275      1.0  0.59441  0.06506  0.03062  1.0000
  H   H300      1.0  0.44464  0.16336  0.23006  1.0000
  H   H301      1.0  0.54372  0.44458  0.27768  1.0000
  C   C276      1.0  0.47820  0.46836  0.08880  1.0000
  C   C277      1.0  0.52718  0.03167  0.10124  1.0000
  H   H302      1.0  0.54796  0.35587  0.23708  1.0000
  H   H303      1.0  0.50458  0.40724  0.29465  1.0000
  H   H304      1.0  0.49602  0.40091  0.25014  1.0000
  H   H305      1.0  0.50591  0.36966  0.27669  1.0000
  H   H306      1.0  0.53080  0.37345  0.32882  1.0000
  H   H307      1.0  0.62074  0.37095  0.36638  1.0000
  H   H308      1.0  0.48999  0.45456  0.10860  1.0000
  Fe  Fe33      1.0  0.36147  0.11810  0.45344  1.0000
  C   C278      1.0  0.65610  0.20809  0.48497  1.0000
  H   H309      1.0  0.45324  0.11887  0.47290  1.0000
  C   C279      1.0  0.54161  0.00574  0.03765  1.0000
  H   H310      1.0  0.45501  0.13469  0.20017  1.0000
  H   H311      1.0  0.52715  0.46018  0.34315  1.0000
  H   H312      1.0  0.49338  0.00549  0.33911  1.0000
  C   C280      1.0  0.40402  0.16044  0.32382  1.0000
  S   S72       1.0  0.54405  0.00953  0.20782  1.0000
  H   H313      1.0  0.52315  0.48508  0.47941  1.0000
  H   H314      1.0  0.40668  0.18139  0.33776  1.0000
  H   H315      1.0  0.62080  0.48411  0.33946  1.0000
  H   H316      1.0  0.56653  0.36191  0.37429  1.0000
  H   H317      1.0  0.41528  0.08511  0.22406  1.0000
  N   N17       1.0  0.56477  0.05519  0.01686  1.0000
  H   H318      1.0  0.41601  0.13987  0.21134  1.0000
  H   H319      1.0  0.45448  0.08283  0.21520  1.0000
  H   H320      1.0  0.53396  0.38575  0.21007  1.0000
  H   H321      1.0  0.48924  0.46404  0.06349  1.0000
  C   C281      1.0  0.46650  0.09961  0.48330  1.0000
  H   H322      1.0  0.38012  0.02485  0.34495  1.0000
  H   H323      1.0  0.44086  0.07003  0.25615  1.0000
  H   H324      1.0  0.59222  0.07919  0.05415  1.0000
  H   H325      1.0  0.50467  0.05762  0.49083  1.0000
  H   H326      1.0  0.57040  0.43599  0.24479  1.0000
  H   H327      1.0  0.54658  0.07195  0.08185  1.0000
  S   S73       1.0  0.42672  0.26329  0.99860  1.0000
  H   H328      1.0  0.39399  0.08398  0.27766  1.0000
  H   H329      1.0  0.44045  0.16963  0.28980  1.0000
  S   S74       1.0  0.34552  0.08394  0.49260  1.0000
  H   H330      1.0  0.66155  0.18267  0.10634  1.0000
  H   H331      1.0  0.53153  0.43802  0.23396  1.0000
  H   H332      1.0  0.36701  0.14560  0.35550  1.0000
  H   H333      1.0  0.60868  0.04552  0.03776  1.0000
  H   H334      1.0  0.57293  0.38463  0.22142  1.0000
  H   H335      1.0  0.49046  0.11242  0.24447  1.0000
  Fe  Fe34      1.0  0.38132  0.36412  0.02978  1.0000
  C   C282      1.0  0.39745  0.10581  0.28917  1.0000
  Fe  Fe35      1.0  0.47221  0.01589  0.26513  1.0000
  H   H336      1.0  0.47647  0.10512  0.28733  1.0000
  C   C283      1.0  0.37798  0.11338  0.31615  1.0000
  C   C284      1.0  0.42334  0.15335  0.29651  1.0000
  C   C285      1.0  0.54913  0.03650  0.04310  1.0000
  N   N18       1.0  0.44247  0.11820  0.25069  1.0000
  C   C286      1.0  0.43794  0.08771  0.23604  1.0000
  C   C287      1.0  0.43936  0.14003  0.22189  1.0000
  C   C288      1.0  0.47375  0.11977  0.26419  1.0000
  C   C289      1.0  0.42096  0.12560  0.27865  1.0000
  Fe  Fe36      1.0  0.54003  0.00730  0.26614  1.0000
  H   H337      1.0  0.50625  0.01830  0.38073  1.0000
  H   H338      1.0  0.47644  0.49144  0.15234  1.0000
  H   H339      1.0  0.46711  0.21387  0.00456  1.0000
  H   H340      1.0  0.36064  0.09770  0.32430  1.0000
  H   H341      1.0  0.34052  0.48829  0.34668  1.0000
  H   H342      1.0  0.45479  0.45932  0.08738  1.0000
  H   H343      1.0  0.60703  0.07895  0.01140  1.0000
  H   H344      1.0  0.63976  0.39166  0.31108  1.0000
  H   H345      1.0  0.64284  0.25422  0.49123  1.0000
  H   H346      1.0  0.34687  0.34719  0.10038  1.0000
  C   C290      1.0  0.48026  0.23340  0.99739  1.0000
  H   H347      1.0  0.46538  0.08200  0.46291  1.0000
  H   H348      1.0  0.61297  0.00366  0.36875  1.0000
  H   H349      1.0  0.34273  0.29754  0.11383  1.0000
  H   H350      1.0  0.55630  0.44130  0.48852  1.0000
  H   H351      1.0  0.42142  0.05935  0.49279  1.0000
  C   C291      1.0  0.50553  0.99859  0.36311  1.0000
  H   H352      1.0  0.44095  0.49821  0.13257  1.0000
  S   S75       1.0  0.64421  0.14246  0.99032  1.0000
  H   H353      1.0  0.47106  0.47160  0.64429  1.0000
  S   S76       1.0  0.36773  0.31129  0.95047  1.0000
  S   S77       1.0  0.56660  0.25221  0.97045  1.0000
  Fe  Fe37      1.0  0.38281  0.35976  0.95039  1.0000
  S   S78       1.0  0.38571  0.38623  0.89971  1.0000
  H   H354      1.0  0.40942  0.09749  0.49773  1.0000
  C   C292      1.0  0.63649  0.08417  0.80487  1.0000
  H   H355      1.0  0.52916  0.43512  0.59392  1.0000
  S   S79       1.0  0.49123  0.46971  0.71447  1.0000
  H   H356      1.0  0.38398  0.01133  0.61213  1.0000
  Fe  Fe38      1.0  0.49510  0.47679  0.77209  1.0000
  S   S80       1.0  0.49610  0.44048  0.81419  1.0000
  H   H357      1.0  0.44253  0.10892  0.56591  1.0000
  C   C293      1.0  0.45391  0.11435  0.54108  1.0000
  S   S81       1.0  0.37836  0.11905  0.58223  1.0000
  C   C294      1.0  0.41137  0.03838  0.64619  1.0000
  C   C295      1.0  0.39143  0.03385  0.61830  1.0000
  C   C296      1.0  0.38110  0.05825  0.59830  1.0000
  C   C297      1.0  0.39031  0.08746  0.60643  1.0000
  C   C298      1.0  0.41022  0.09195  0.63429  1.0000
  C   C299      1.0  0.42088  0.06754  0.65395  1.0000
  H   H358      1.0  0.64707  0.05830  0.74087  1.0000
  C   C300      1.0  0.50633  0.48524  0.53189  1.0000
  H   H359      1.0  0.41747  0.11447  0.64075  1.0000
  H   H360      1.0  0.43613  0.07133  0.67539  1.0000
  C   C301      1.0  0.41678  0.40285  0.87795  1.0000
  C   C302      1.0  0.41135  0.42004  0.84800  1.0000
  C   C303      1.0  0.43530  0.43229  0.82862  1.0000
  C   C304      1.0  0.46505  0.42688  0.83858  1.0000
  C   C305      1.0  0.47053  0.40989  0.86870  1.0000
  C   C306      1.0  0.44654  0.39836  0.88862  1.0000
  H   H361      1.0  0.38841  0.42366  0.83952  1.0000
  H   H362      1.0  0.43072  0.44525  0.80549  1.0000
  H   H363      1.0  0.49349  0.40562  0.87665  1.0000
  H   H364      1.0  0.45110  0.38558  0.91184  1.0000
  H   H365      1.0  0.36590  0.05445  0.57683  1.0000
  C   C307      1.0  0.46607  0.26131  0.99363  1.0000
  C   C308      1.0  0.52645  0.44657  0.56944  1.0000
  C   C309      1.0  0.46226  0.05087  0.56433  1.0000
  S   S82       1.0  0.62052  0.19223  0.93618  1.0000
  C   C310      1.0  0.50281  0.01482  0.56304  1.0000
  C   C311      1.0  0.50655  0.47126  0.56498  1.0000
  H   H366      1.0  0.56627  0.04926  0.72438  1.0000
  Fe  Fe39      1.0  0.60522  0.14635  0.95352  1.0000
  S   S83       1.0  0.59706  0.10338  0.92283  1.0000
  C   C312      1.0  0.66406  0.46279  0.64669  1.0000
  Fe  Fe40      1.0  0.49627  0.03760  0.77072  1.0000
  H   H367      1.0  0.49957  0.46498  0.88575  1.0000
  S   S84       1.0  0.50102  0.08026  0.80285  1.0000
  S   S85       1.0  0.57331  0.16287  0.99436  1.0000
  H   H368      1.0  0.66384  0.43870  0.64351  1.0000
  S   S86       1.0  0.50017  0.03936  0.71240  1.0000
  Fe  Fe41      1.0  0.64357  0.38734  0.53720  1.0000
  S   S87       1.0  0.62134  0.38587  0.59013  1.0000
  C   C313      1.0  0.57793  0.46685  0.64384  1.0000
  C   C314      1.0  0.59235  0.47045  0.61175  1.0000
  C   C315      1.0  0.60473  0.44565  0.59442  1.0000
  C   C316      1.0  0.60341  0.41710  0.60940  1.0000
  C   C317      1.0  0.58842  0.41339  0.64114  1.0000
  C   C318      1.0  0.57545  0.43811  0.65817  1.0000
  N   N19       1.0  0.45406  0.08860  0.51672  1.0000
  H   H369      1.0  0.61556  0.44866  0.56970  1.0000
  H   H370      1.0  0.58720  0.39134  0.65287  1.0000
  H   H371      1.0  0.56450  0.43506  0.68294  1.0000
  Fe  Fe42      1.0  0.35195  0.12061  0.53176  1.0000
  H   H372      1.0  0.49722  0.48023  0.92851  1.0000
  H   H373      1.0  0.56833  0.11369  0.78112  1.0000
  C   C319      1.0  0.52638  0.08559  0.83788  1.0000
  C   C320      1.0  0.54605  0.06299  0.84865  1.0000
  C   C321      1.0  0.56730  0.06873  0.87497  1.0000
  C   C322      1.0  0.56884  0.09697  0.89113  1.0000
  C   C323      1.0  0.54844  0.11925  0.88126  1.0000
  C   C324      1.0  0.52743  0.11359  0.85461  1.0000
  H   H374      1.0  0.54500  0.04119  0.83653  1.0000
  H   H375      1.0  0.58288  0.05132  0.88258  1.0000
  H   H376      1.0  0.54928  0.14102  0.89358  1.0000
  H   H377      1.0  0.51215  0.13115  0.84659  1.0000
  N   N20       1.0  0.44373  0.30284  0.87998  1.0000
  C   C325      1.0  0.41463  0.28778  0.87193  1.0000
  C   C326      1.0  0.44107  0.31796  0.91387  1.0000
  C   C327      1.0  0.44860  0.32634  0.85316  1.0000
  C   C328      1.0  0.46842  0.28067  0.88217  1.0000
  C   C329      1.0  0.46530  0.25463  0.90313  1.0000
  C   C330      1.0  0.49686  0.28529  0.86606  1.0000
  C   C331      1.0  0.48887  0.23423  0.90710  1.0000
  C   C332      1.0  0.52047  0.26497  0.87077  1.0000
  C   C333      1.0  0.51651  0.23955  0.89131  1.0000
  H   H378      1.0  0.40672  0.27297  0.89327  1.0000
  H   H379      1.0  0.39615  0.30435  0.86807  1.0000
  H   H380      1.0  0.41640  0.27399  0.84804  1.0000
  H   H381      1.0  0.42332  0.33548  0.91339  1.0000
  H   H382      1.0  0.46264  0.32897  0.92144  1.0000
  H   H383      1.0  0.43510  0.30189  0.93487  1.0000
  H   H384      1.0  0.46813  0.34108  0.85949  1.0000
  H   H385      1.0  0.45206  0.31625  0.82715  1.0000
  H   H386      1.0  0.42895  0.34177  0.85104  1.0000
  H   H387      1.0  0.44508  0.25038  0.91792  1.0000
  H   H388      1.0  0.50169  0.30476  0.85035  1.0000
  H   H389      1.0  0.48610  0.21483  0.92381  1.0000
  H   H390      1.0  0.54224  0.26926  0.85910  1.0000
  H   H391      1.0  0.53514  0.22438  0.89587  1.0000
  N   N21       1.0  0.60150  0.06284  0.75976  1.0000
  C   C334      1.0  0.60179  0.03263  0.77604  1.0000
  C   C335      1.0  0.57136  0.06702  0.74378  1.0000
  C   C336      1.0  0.62401  0.06349  0.73148  1.0000
  C   C337      1.0  0.60911  0.08597  0.78591  1.0000
  C   C338      1.0  0.42253  0.07918  0.51023  1.0000
  C   C339      1.0  0.58993  0.11059  0.79351  1.0000
  C   C340      1.0  0.48320  0.28650  0.98455  1.0000
  C   C341      1.0  0.48146  0.00292  0.91043  1.0000
  Fe  Fe43      1.0  0.33434  0.32348  0.99165  1.0000
  H   H392      1.0  0.58646  0.03181  0.79875  1.0000
  H   H393      1.0  0.59435  0.01487  0.75760  1.0000
  H   H394      1.0  0.62453  0.02595  0.78507  1.0000
  H   H395      1.0  0.55320  0.06591  0.76354  1.0000
  H   H396      1.0  0.63530  0.45858  0.69135  1.0000
  H   H397      1.0  0.56967  0.08878  0.72976  1.0000
  Fe  Fe44      1.0  0.40090  0.30672  0.99435  1.0000
  C   C342      1.0  0.47533  0.01704  0.94177  1.0000
  H   H398      1.0  0.61856  0.04659  0.71105  1.0000
  H   H399      1.0  0.48122  0.04052  0.94499  1.0000
  H   H400      1.0  0.44706  0.46400  0.57095  1.0000
  H   H401      1.0  0.47719  0.12185  0.54737  1.0000
  H   H402      1.0  0.52194  0.20883  0.99389  1.0000
  H   H403      1.0  0.49204  0.01534  0.88947  1.0000
  H   H404      1.0  0.62959  0.14451  0.85810  1.0000
  H   H405      1.0  0.58241  0.14986  0.82479  1.0000
  C   C343      1.0  0.45560  0.48567  0.58149  1.0000
  N   N22       1.0  0.48735  0.48286  0.59328  1.0000
  C   C344      1.0  0.47107  0.06324  0.53199  1.0000
  C   C345      1.0  0.51130  0.23048  0.99135  1.0000
  H   H406      1.0  0.44314  0.05954  0.57822  1.0000
  C   C346      1.0  0.47791  0.02708  0.57957  1.0000
  C   C347      1.0  0.64375  0.10513  0.83050  1.0000
  H   H407      1.0  0.44133  0.13388  0.53029  1.0000
  Fe  Fe45      1.0  0.65692  0.19004  0.97687  1.0000
  H   H408      1.0  0.48020  0.43997  0.61806  1.0000
  S   S88       1.0  0.45371  0.00963  0.77035  1.0000
  C   C348      1.0  0.48720  0.46331  0.62446  1.0000
  C   C349      1.0  0.49639  0.04998  0.51557  1.0000
  S   S89       1.0  0.34676  0.37257  0.98822  1.0000
  H   H409      1.0  0.41040  0.07341  0.53446  1.0000
  S   S90       1.0  0.41840  0.35434  0.99161  1.0000
  H   H410      1.0  0.50967  0.46283  0.63736  1.0000
  H   H411      1.0  0.58195  0.05392  0.96458  1.0000
  Fe  Fe46      1.0  0.46012  0.00840  0.71224  1.0000
  C   C350      1.0  0.54401  0.43598  0.54204  1.0000
  C   C351      1.0  0.59772  0.13171  0.81876  1.0000
  C   C352      1.0  0.54266  0.44973  0.50968  1.0000
  C   C353      1.0  0.62434  0.12878  0.83752  1.0000
  H   H412      1.0  0.53141  0.01651  0.51836  1.0000
  C   C354      1.0  0.65649  0.23598  0.50117  1.0000
  S   S91       1.0  0.42369  0.00703  0.67060  1.0000
  H   H413      1.0  0.62478  0.08598  0.71891  1.0000
  C   C355      1.0  0.51198  0.02618  0.53108  1.0000
  S   S92       1.0  0.64733  0.42894  0.50479  1.0000
  H   H414      1.0  0.66429  0.10285  0.84547  1.0000
  C   C356      1.0  0.46113  0.00126  0.96861  1.0000
  C   C357      1.0  0.50639  0.48438  0.90215  1.0000
  H   H415      1.0  0.65702  0.48120  0.56003  1.0000
  H   H416      1.0  0.54884  0.03195  0.97133  1.0000
  Fe  Fe47      1.0  0.59130  0.20871  0.97983  1.0000
  H   H417      1.0  0.52721  0.30288  0.97012  1.0000
  H   H418      1.0  0.58520  0.01948  0.98748  1.0000
  C   C358      1.0  0.51413  0.28348  0.97789  1.0000
  C   C359      1.0  0.57029  0.03924  0.98373  1.0000
  C   C360      1.0  0.52821  0.25545  0.98104  1.0000
  H   H419      1.0  0.53141  0.48358  0.90294  1.0000
  H   H420      1.0  0.55898  0.41704  0.54602  1.0000
  H   H421      1.0  0.47262  0.30820  0.98237  1.0000
  H   H422      1.0  0.45691  0.01365  0.99207  1.0000
  C   C361      1.0  0.52396  0.47440  0.50465  1.0000
  H   H423      1.0  0.47062  0.01821  0.60445  1.0000
  H   H424      1.0  0.45606  0.48928  0.86874  1.0000
  C   C362      1.0  0.64751  0.47391  0.67457  1.0000
  H   H425      1.0  0.65229  0.06624  0.80040  1.0000
  H   H426      1.0  0.59430  0.49261  0.60046  1.0000
  H   H427      1.0  0.55677  0.09567  0.98736  1.0000
  H   H428      1.0  0.44037  0.49231  0.60309  1.0000
  H   H429      1.0  0.50363  0.49843  0.83558  1.0000
  C   C363      1.0  0.66393  0.73110  0.46958  1.0000
  S   S93       1.0  0.50140  0.97469  0.26530  1.0000
  H   H430      1.0  0.54938  0.64711  0.18999  1.0000
  Fe  Fe48      1.0  0.50256  0.97991  0.20707  1.0000
  S   S94       1.0  0.50124  0.94108  0.16852  1.0000
  H   H431      1.0  0.50604  0.54695  0.05781  1.0000
  Fe  Fe49      1.0  0.38456  0.86618  0.03282  1.0000
  S   S95       1.0  0.39061  0.90473  0.07098  1.0000
  S   S96       1.0  0.36697  0.81952  0.04298  1.0000
  H   H432      1.0  0.35159  0.68559  0.02542  1.0000
  H   H433      1.0  0.44677  0.98488  0.36123  1.0000
  S   S97       1.0  0.35752  0.62286  0.39851  1.0000
  H   H434      1.0  0.51434  0.94227  0.34512  1.0000
  H   H435      1.0  0.47762  0.93512  0.01272  1.0000
  H   H436      1.0  0.45747  0.54088  0.07795  1.0000
  C   C364      1.0  0.40224  0.54324  0.34326  1.0000
  C   C365      1.0  0.40579  0.57253  0.33085  1.0000
  C   C366      1.0  0.39181  0.59660  0.34803  1.0000
  C   C367      1.0  0.37451  0.59171  0.37796  1.0000
  C   C368      1.0  0.37124  0.56244  0.39059  1.0000
  C   C369      1.0  0.38504  0.53836  0.37328  1.0000
  H   H437      1.0  0.41897  0.57658  0.30777  1.0000
  H   H438      1.0  0.39446  0.61917  0.33803  1.0000
  H   H439      1.0  0.35806  0.55824  0.41361  1.0000
  S   S98       1.0  0.44705  0.51247  0.22197  1.0000
  C   C370      1.0  0.47027  0.93127  0.14158  1.0000
  C   C371      1.0  0.44360  0.94783  0.14139  1.0000
  C   C372      1.0  0.41948  0.93923  0.11975  1.0000
  C   C373      1.0  0.42165  0.91397  0.09811  1.0000
  C   C374      1.0  0.44845  0.89758  0.09795  1.0000
  C   C375      1.0  0.47262  0.90625  0.11954  1.0000
  H   H440      1.0  0.44142  0.96710  0.15817  1.0000
  H   H441      1.0  0.39887  0.95208  0.12007  1.0000
  H   H442      1.0  0.45048  0.87810  0.08145  1.0000
  H   H443      1.0  0.49317  0.89330  0.11951  1.0000
  Fe  Fe50      1.0  0.48857  0.54192  0.21933  1.0000
  H   H444      1.0  0.53211  0.54783  0.45631  1.0000
  S   S99       1.0  0.48697  0.57891  0.17835  1.0000
  H   H445      1.0  0.46667  0.80548  0.99937  1.0000
  C   C376      1.0  0.47464  0.54816  0.39844  1.0000
  S   S100      1.0  0.49315  0.54590  0.27751  1.0000
  Fe  Fe51      1.0  0.60333  0.65355  0.04225  1.0000
  S   S101      1.0  0.59986  0.62809  0.09340  1.0000
  S   S102      1.0  0.62035  0.70126  0.03955  1.0000
  Fe  Fe52      1.0  0.64576  0.89513  0.44739  1.0000
  S   S103      1.0  0.56665  0.65915  0.00262  1.0000
  S   S104      1.0  0.62473  0.89549  0.39357  1.0000
  N   N23       1.0  0.34031  0.72510  0.05447  1.0000
  C   C377      1.0  0.56122  0.50956  0.12228  1.0000
  C   C378      1.0  0.51058  0.55364  0.44487  1.0000
  C   C379      1.0  0.58960  0.97638  0.33117  1.0000
  C   C380      1.0  0.58240  0.94702  0.32137  1.0000
  C   C381      1.0  0.59337  0.92256  0.34078  1.0000
  C   C382      1.0  0.61116  0.92715  0.37049  1.0000
  C   C383      1.0  0.61789  0.95655  0.38068  1.0000
  C   C384      1.0  0.60736  0.98101  0.36092  1.0000
  H   H446      1.0  0.56891  0.94312  0.29845  1.0000
  H   H447      1.0  0.58814  0.89990  0.33265  1.0000
  H   H448      1.0  0.63142  0.96043  0.40356  1.0000
  H   H449      1.0  0.47198  0.97457  0.44978  1.0000
  C   C385      1.0  0.56796  0.61314  0.11512  1.0000
  C   C386      1.0  0.57250  0.59619  0.14542  1.0000
  C   C387      1.0  0.54795  0.58459  0.16430  1.0000
  C   C388      1.0  0.51850  0.59050  0.15353  1.0000
  C   C389      1.0  0.51390  0.60733  0.12310  1.0000
  C   C390      1.0  0.53849  0.61829  0.10371  1.0000
  H   H450      1.0  0.59519  0.59208  0.15446  1.0000
  H   H451      1.0  0.55183  0.57181  0.18771  1.0000
  H   H452      1.0  0.49119  0.61213  0.11470  1.0000
  H   H453      1.0  0.53463  0.63109  0.08036  1.0000
  H   H454      1.0  0.45856  0.70956  0.00614  1.0000
  H   H455      1.0  0.48653  0.72730  0.13842  1.0000
  H   H456      1.0  0.59360  0.54103  0.10190  1.0000
  S   S105      1.0  0.41825  0.51199  0.32196  1.0000
  H   H457      1.0  0.38235  0.71140  0.03143  1.0000
  H   H458      1.0  0.56976  0.67605  0.14196  1.0000
  H   H459      1.0  0.48331  0.92572  0.36819  1.0000
  S   S106      1.0  0.62580  0.86326  0.48648  1.0000
  H   H460      1.0  0.35543  0.75402  0.01289  1.0000
  Fe  Fe53      1.0  0.65162  0.68681  0.99710  1.0000
  H   H461      1.0  0.53363  0.75880  0.07074  1.0000
  H   H462      1.0  0.41750  0.95783  0.04307  1.0000
  H   H463      1.0  0.49811  0.65658  0.21171  1.0000
  S   S107      1.0  0.52053  0.50334  0.21576  1.0000
  C   C391      1.0  0.46508  0.50501  0.13207  1.0000
  H   H464      1.0  0.38247  0.51579  0.38326  1.0000
  H   H465      1.0  0.33621  0.68685  0.11026  1.0000
  N   N24       1.0  0.44256  0.60384  0.46320  1.0000
  H   H466      1.0  0.46752  0.51361  0.04506  1.0000
  C   C392      1.0  0.52059  0.53541  0.07578  1.0000
  H   H467      1.0  0.39799  0.60361  0.48486  1.0000
  C   C393      1.0  0.41409  0.58820  0.47202  1.0000
  C   C394      1.0  0.36204  0.70155  0.04411  1.0000
  H   H468      1.0  0.45660  0.64048  0.43046  1.0000
  H   H469      1.0  0.43567  0.50744  0.07235  1.0000
  C   C395      1.0  0.45912  0.51648  0.07196  1.0000
  H   H470      1.0  0.42061  0.64584  0.45101  1.0000
  H   H471      1.0  0.47691  0.95078  0.33240  1.0000
  H   H472      1.0  0.37048  0.68839  0.06652  1.0000
  N   N25       1.0  0.49091  0.97240  0.37993  1.0000
  C   C396      1.0  0.53767  0.95423  0.41018  1.0000
  Fe  Fe54      1.0  0.39790  0.80616  0.99965  1.0000
  C   C397      1.0  0.51016  0.51192  0.09779  1.0000
  C   C398      1.0  0.49142  0.94669  0.35549  1.0000
  Fe  Fe55      1.0  0.45419  0.51349  0.27987  1.0000
  H   H473      1.0  0.51699  0.52506  0.40047  1.0000
  C   C399      1.0  0.57071  0.53253  0.10033  1.0000
  H   H474      1.0  0.55260  0.94058  0.49520  1.0000
  S   S108      1.0  0.63756  0.63840  0.00348  1.0000
  C   C400      1.0  0.47242  0.72946  0.00378  1.0000
  C   C401      1.0  0.55360  0.94568  0.43984  1.0000
  C   C402      1.0  0.45888  0.75788  0.00302  1.0000
  H   H475      1.0  0.56135  0.68146  0.08182  1.0000
  C   C403      1.0  0.51085  0.95822  0.47521  1.0000
  H   H476      1.0  0.54913  0.95242  0.38567  1.0000
  H   H477      1.0  0.46740  0.69716  0.18602  1.0000
  H   H478      1.0  0.40237  0.57929  0.44884  1.0000
  C   C404      1.0  0.45557  0.56862  0.41471  1.0000
  N   N26       1.0  0.54258  0.72131  0.10489  1.0000
  C   C405      1.0  0.52328  0.74652  0.09297  1.0000
  C   C406      1.0  0.57288  0.73393  0.11251  1.0000
  C   C407      1.0  0.54521  0.69980  0.07593  1.0000
  C   C408      1.0  0.53060  0.70518  0.13549  1.0000
  C   C409      1.0  0.54768  0.68206  0.15141  1.0000
  C   C410      1.0  0.50128  0.71038  0.14894  1.0000
  C   C411      1.0  0.53614  0.66514  0.17886  1.0000
  C   C412      1.0  0.48992  0.69317  0.17637  1.0000
  C   C413      1.0  0.50723  0.67045  0.19110  1.0000
  H   H479      1.0  0.51982  0.76330  0.11387  1.0000
  H   H480      1.0  0.41808  0.56913  0.49010  1.0000
  H   H481      1.0  0.50102  0.73849  0.08334  1.0000
  H   H482      1.0  0.57231  0.74866  0.13573  1.0000
  H   H483      1.0  0.58169  0.74747  0.09037  1.0000
  H   H484      1.0  0.59004  0.71624  0.11710  1.0000
  H   H485      1.0  0.52310  0.68922  0.06979  1.0000
  H   H486      1.0  0.55343  0.71105  0.05207  1.0000
  C   C414      1.0  0.49463  0.96671  0.44563  1.0000
  S   S109      1.0  0.64800  0.93429  0.48384  1.0000
  Fe  Fe56      1.0  0.33588  0.62392  0.45182  1.0000
  H   H487      1.0  0.49944  0.58321  0.48571  1.0000
  C   C415      1.0  0.50216  0.54076  0.41341  1.0000
  H   H488      1.0  0.46644  0.52891  0.14027  1.0000
  C   C416      1.0  0.50753  0.96454  0.41201  1.0000
  H   H489      1.0  0.52910  0.99377  0.35532  1.0000
  C   C417      1.0  0.49156  0.57409  0.46145  1.0000
  C   C418      1.0  0.54020  0.94758  0.47230  1.0000
  C   C419      1.0  0.55050  0.54532  0.07707  1.0000
  H   H490      1.0  0.37536  0.75569  0.07065  1.0000
  H   H491      1.0  0.36160  0.73194  0.10436  1.0000
  C   C420      1.0  0.46342  0.58236  0.44662  1.0000
  H   H492      1.0  0.46797  0.53805  0.37398  1.0000
  H   H493      1.0  0.52248  0.96512  0.05936  1.0000
  H   H494      1.0  0.43453  0.57358  0.40201  1.0000
  H   H495      1.0  0.57641  0.93719  0.43759  1.0000
  C   C421      1.0  0.45883  0.98017  0.38597  1.0000
  S   S110      1.0  0.41948  0.76063  0.00658  1.0000
  H   H496      1.0  0.44425  0.91433  0.02375  1.0000
  H   H497      1.0  0.66378  0.77308  0.44208  1.0000
  C   C422      1.0  0.45534  0.92754  0.00277  1.0000
  C   C423      1.0  0.35464  0.74460  0.08091  1.0000
  H   H498      1.0  0.55796  0.56375  0.06074  1.0000
  N   N27       1.0  0.47867  0.50081  0.09741  1.0000
  H   H499      1.0  0.50977  0.98825  0.11539  1.0000
  H   H500      1.0  0.45079  0.97930  0.03638  1.0000
  H   H501      1.0  0.44645  0.96137  0.39861  1.0000
  C   C424      1.0  0.42987  0.97132  0.02335  1.0000
  H   H502      1.0  0.42359  0.62119  0.41537  1.0000
  H   H503      1.0  0.64786  0.73878  0.48869  1.0000
  Fe  Fe57      1.0  0.52181  0.50429  0.27409  1.0000
  H   H504      1.0  0.41519  0.99081  0.01723  1.0000
  C   C425      1.0  0.52749  0.98869  0.06351  1.0000
  S   S111      1.0  0.33353  0.58527  0.48906  1.0000
  C   C426      1.0  0.43568  0.62885  0.43899  1.0000
  H   H505      1.0  0.39423  0.93002  0.99875  1.0000
  S   S112      1.0  0.35581  0.65621  0.49016  1.0000
  C   C427      1.0  0.50384  0.72667  0.00096  1.0000
  H   H506      1.0  0.51408  0.70472  0.00106  1.0000
  C   C428      1.0  0.47687  0.78351  0.99982  1.0000
  H   H507      1.0  0.33897  0.76265  0.08931  1.0000
  H   H508      1.0  0.54674  0.99418  0.01388  1.0000
  C   C429      1.0  0.52181  0.75237  0.99771  1.0000
  C   C430      1.0  0.50826  0.78074  0.99729  1.0000
  C   C431      1.0  0.33438  0.74395  0.02346  1.0000
  Fe  Fe58      1.0  0.58585  0.70593  0.99708  1.0000
  H   H509      1.0  0.57688  0.50008  0.14084  1.0000
  C   C432      1.0  0.53148  0.49922  0.12096  1.0000
  H   H510      1.0  0.47582  0.62989  0.49098  1.0000
  C   C433      1.0  0.45450  0.61737  0.49562  1.0000
  S   S113      1.0  0.56682  0.49889  0.30202  1.0000
  H   H511      1.0  0.52295  0.87184  0.65723  1.0000
  C   C434      1.0  0.56048  0.88162  0.69285  1.0000
  S   S114      1.0  0.36286  0.81107  0.95765  1.0000
  C   C435      1.0  0.47366  0.97289  0.90585  1.0000
  Fe  Fe59      1.0  0.38011  0.85871  0.95412  1.0000
  S   S115      1.0  0.37821  0.88923  0.90685  1.0000
  N   N28       1.0  0.49527  0.51320  0.88761  1.0000
  C   C436      1.0  0.51877  0.59174  0.94743  1.0000
  H   H512      1.0  0.65650  0.69106  0.89394  1.0000
  S   S116      1.0  0.48812  0.96634  0.71417  1.0000
  C   C437      1.0  0.52347  0.53832  0.93736  1.0000
  Fe  Fe60      1.0  0.48500  0.97006  0.77213  1.0000
  S   S117      1.0  0.48533  0.92841  0.80654  1.0000
  H   H513      1.0  0.45243  0.52875  0.86738  1.0000
  S   S118      1.0  0.42301  0.51309  0.67751  1.0000
  S   S119      1.0  0.39443  0.61017  0.55981  1.0000
  C   C438      1.0  0.41515  0.54072  0.64543  1.0000
  C   C439      1.0  0.38826  0.53863  0.62622  1.0000
  C   C440      1.0  0.38134  0.55981  0.60018  1.0000
  C   C441      1.0  0.40147  0.58319  0.59282  1.0000
  C   C442      1.0  0.42855  0.58502  0.61169  1.0000
  C   C443      1.0  0.43529  0.56406  0.63797  1.0000
  S   S120      1.0  0.57325  0.99108  0.69168  1.0000
  H   H514      1.0  0.36049  0.55801  0.58582  1.0000
  H   H515      1.0  0.44423  0.60307  0.60633  1.0000
  H   H516      1.0  0.45596  0.56615  0.65263  1.0000
  C   C444      1.0  0.40873  0.90027  0.88013  1.0000
  C   C445      1.0  0.40461  0.92407  0.85667  1.0000
  C   C446      1.0  0.42794  0.93318  0.83430  1.0000
  C   C447      1.0  0.45557  0.91826  0.83486  1.0000
  C   C448      1.0  0.45980  0.89459  0.85853  1.0000
  C   C449      1.0  0.43655  0.88570  0.88121  1.0000
  H   H517      1.0  0.38319  0.93550  0.85565  1.0000
  H   H518      1.0  0.42439  0.95146  0.81629  1.0000
  H   H519      1.0  0.48112  0.88295  0.85921  1.0000
  H   H520      1.0  0.44001  0.86727  0.89903  1.0000
  C   C450      1.0  0.59243  0.88310  0.69379  1.0000
  Fe  Fe61      1.0  0.52773  0.99737  0.71772  1.0000
  C   C451      1.0  0.53136  0.56412  0.95595  1.0000
  C   C452      1.0  0.54992  0.92040  0.73486  1.0000
  S   S121      1.0  0.61802  0.69423  0.95425  1.0000
  H   H521      1.0  0.36485  0.81651  0.85560  1.0000
  C   C453      1.0  0.49836  0.59377  0.92014  1.0000
  H   H522      1.0  0.57369  0.92321  0.74317  1.0000
  Fe  Fe62      1.0  0.60190  0.64687  0.96326  1.0000
  S   S122      1.0  0.59953  0.60870  0.92408  1.0000
  H   H523      1.0  0.45257  0.50325  0.56141  1.0000
  Fe  Fe63      1.0  0.50678  0.54390  0.76488  1.0000
  H   H524      1.0  0.39335  0.96024  0.96780  1.0000
  S   S123      1.0  0.51255  0.58781  0.79472  1.0000
  H   H525      1.0  0.47838  0.96200  0.88134  1.0000
  C   C454      1.0  0.34293  0.81083  0.86619  1.0000
  S   S124      1.0  0.50344  0.54274  0.70669  1.0000
  Fe  Fe64      1.0  0.63016  0.90189  0.52379  1.0000
  S   S125      1.0  0.58779  0.91217  0.55501  1.0000
  C   C455      1.0  0.57699  0.96954  0.65330  1.0000
  C   C456      1.0  0.60576  0.96486  0.63922  1.0000
  C   C457      1.0  0.60952  0.94767  0.60890  1.0000
  C   C458      1.0  0.58446  0.93500  0.59240  1.0000
  C   C459      1.0  0.55569  0.93981  0.60645  1.0000
  C   C460      1.0  0.55194  0.95694  0.63673  1.0000
  H   H526      1.0  0.60917  0.86554  0.61032  1.0000
  H   H527      1.0  0.63177  0.94409  0.59841  1.0000
  H   H528      1.0  0.53620  0.92997  0.59396  1.0000
  H   H529      1.0  0.52965  0.96040  0.64717  1.0000
  Fe  Fe65      1.0  0.46386  0.51228  0.71362  1.0000
  C   C461      1.0  0.46216  0.51020  0.88302  1.0000
  S   S126      1.0  0.46424  0.51669  0.77201  1.0000
  C   C462      1.0  0.53809  0.59421  0.82936  1.0000
  C   C463      1.0  0.56036  0.57343  0.83806  1.0000
  C   C464      1.0  0.57897  0.57833  0.86707  1.0000
  C   C465      1.0  0.57598  0.60434  0.88731  1.0000
  C   C466      1.0  0.55459  0.62579  0.87779  1.0000
  C   C467      1.0  0.53567  0.62066  0.84900  1.0000
  H   H530      1.0  0.56321  0.55355  0.82243  1.0000
  H   H531      1.0  0.59581  0.56186  0.87390  1.0000
  H   H532      1.0  0.55224  0.64604  0.89293  1.0000
  H   H533      1.0  0.51876  0.63706  0.84220  1.0000
  H   H534      1.0  0.41055  0.92513  0.95723  1.0000
  S   S127      1.0  0.53786  0.50439  0.76724  1.0000
  H   H535      1.0  0.63109  0.51312  0.70060  1.0000
  H   H536      1.0  0.63404  0.87919  0.66542  1.0000
  N   N29       1.0  0.54270  0.88928  0.72401  1.0000
  C   C468      1.0  0.50960  0.88748  0.71848  1.0000
  C   C469      1.0  0.55032  0.86856  0.75278  1.0000
  H   H537      1.0  0.53579  0.92773  0.75706  1.0000
  H   H538      1.0  0.50213  0.90310  0.69768  1.0000
  H   H539      1.0  0.49687  0.89391  0.74220  1.0000
  H   H540      1.0  0.50227  0.86429  0.71177  1.0000
  H   H541      1.0  0.57428  0.87047  0.76080  1.0000
  H   H542      1.0  0.53660  0.87335  0.77631  1.0000
  H   H543      1.0  0.54608  0.84479  0.74527  1.0000
  H   H544      1.0  0.43828  0.63369  0.50700  1.0000
  H   H545      1.0  0.65764  0.54854  0.66176  1.0000
  H   H546      1.0  0.48958  0.61551  0.91264  1.0000
  C   C470      1.0  0.50919  0.51728  0.85319  1.0000
  H   H547      1.0  0.62528  0.97450  0.65181  1.0000
  H   H548      1.0  0.52579  0.61182  0.96109  1.0000
  C   C471      1.0  0.49071  0.56825  0.90100  1.0000
  C   C472      1.0  0.65985  0.52458  0.65771  1.0000
  C   C473      1.0  0.60973  0.87714  0.66442  1.0000
  C   C474      1.0  0.50271  0.53962  0.90927  1.0000
  H   H549      1.0  0.45354  0.93377  0.92738  1.0000
  S   S128      1.0  0.41801  0.85249  0.99224  1.0000
  C   C475      1.0  0.59582  0.86929  0.63340  1.0000
  H   H550      1.0  0.53412  0.51851  0.85521  1.0000
  C   C476      1.0  0.64510  0.50470  0.67983  1.0000
  H   H551      1.0  0.37255  0.52062  0.63170  1.0000
  C   C477      1.0  0.33458  0.78088  0.87029  1.0000
  H   H552      1.0  0.50136  0.53808  0.84010  1.0000
  S   S129      1.0  0.52703  0.99822  0.77591  1.0000
  H   H553      1.0  0.45046  0.50953  0.90844  1.0000
  C   C478      1.0  0.45239  0.97067  0.96454  1.0000
  H   H554      1.0  0.51506  0.99652  0.57511  1.0000
  N   N30       1.0  0.43659  0.95339  0.99190  1.0000
  C   C479      1.0  0.54700  0.87329  0.66079  1.0000
  H   H555      1.0  0.54617  0.93633  0.71312  1.0000
  H   H556      1.0  0.60426  0.88947  0.71711  1.0000
  H   H557      1.0  0.55398  0.86200  0.60703  1.0000
  H   H558      1.0  0.53464  0.51787  0.94485  1.0000
  C   C480      1.0  0.56458  0.86727  0.63163  1.0000
  H   H559      1.0  0.45807  0.60012  0.51612  1.0000
  H   H560      1.0  0.63040  0.64948  0.87401  1.0000
  C   C481      1.0  0.45938  0.95694  0.93241  1.0000
  H   H561      1.0  0.47631  0.57143  0.87869  1.0000
  H   H562      1.0  0.49665  0.52968  0.58279  1.0000
  H   H563      1.0  0.48546  0.52175  0.62636  1.0000
  H   H564      1.0  0.60909  0.62694  0.82209  1.0000
  Fe  Fe66      1.0  0.35145  0.61816  0.52840  1.0000
  H   H565      1.0  0.50052  0.95951  0.50057  1.0000
  H   H566      1.0  0.34993  0.76322  0.86271  1.0000
  H   H567      1.0  0.52211  0.80067  0.99490  1.0000
  C   C482      1.0  0.40751  0.94177  0.97830  1.0000
  Fe  Fe67      1.0  0.53101  0.50056  0.70955  1.0000
  H   H568      1.0  0.49258  0.50470  0.52687  1.0000
  C   C483      1.0  0.49845  0.51287  0.60394  1.0000
  H   H569      1.0  0.52252  0.51191  0.61204  1.0000
  S   S130      1.0  0.56546  0.49916  0.66606  1.0000
  H   H570      1.0  0.45939  0.91155  0.98123  1.0000
  H   H571      1.0  0.54820  0.56300  0.97629  1.0000
  H   H572      1.0  0.65321  0.64342  0.92564  1.0000
  S   S131      1.0  0.34762  0.87473  0.99436  1.0000
  C   C484      1.0  0.63339  0.62827  0.82500  1.0000
  C   C485      1.0  0.64587  0.64112  0.85474  1.0000
  C   C486      1.0  0.65199  0.61683  0.79930  1.0000
  H   H573      1.0  0.64213  0.60674  0.77639  1.0000
  S   S132      1.0  0.56131  0.75020  0.99559  1.0000
  Fe  Fe68      1.0  0.95130  0.01364  0.26616  1.0000
  C   C487      1.0  0.75802  0.20461  0.06543  1.0000
  S   S133      1.0  0.91357  0.01266  0.30612  1.0000
  H   H574      1.0  0.66857  0.21885  0.08834  1.0000
  S   S134      1.0  0.99010  0.07703  0.16608  1.0000
  H   H575      1.0  0.93306  0.04784  0.49338  1.0000
  H   H576      1.0  0.77066  0.36824  0.40750  1.0000
  Fe  Fe69      1.0  0.89306  0.36591  0.01905  1.0000
  S   S135      1.0  0.90492  0.40769  0.05045  1.0000
  H   H577      1.0  0.67854  0.16100  0.05429  1.0000
  S   S136      1.0  0.87645  0.31982  0.03447  1.0000
  H   H578      1.0  0.82067  0.37217  0.48536  1.0000
  Fe  Fe70      1.0  0.69425  0.41284  0.49346  1.0000
  C   C488      1.0  0.81342  0.31127  0.47565  1.0000
  H   H579      1.0  0.69759  0.48109  0.46916  1.0000
  Fe  Fe71      1.0  0.84286  0.12322  0.44408  1.0000
  H   H580      1.0  0.74748  0.28638  0.09695  1.0000
  S   S137      1.0  0.86182  0.12424  0.38954  1.0000
  H   H581      1.0  0.76186  0.18236  0.05535  1.0000
  Fe  Fe72      1.0  0.67651  0.34736  0.48341  1.0000
  C   C489      1.0  0.72744  0.24219  0.09367  1.0000
  N   N31       1.0  0.98014  0.02365  0.38869  1.0000
  S   S138      1.0  0.79606  0.13976  0.45481  1.0000
  H   H582      1.0  0.69027  0.19599  0.03515  1.0000
  C   C490      1.0  0.73152  0.25181  0.46053  1.0000
  H   H583      1.0  0.76034  0.21306  0.45460  1.0000
  H   H584      1.0  0.71998  0.24813  0.43622  1.0000
  H   H585      1.0  0.96685  0.15385  0.13568  1.0000
  C   C491      1.0  0.99266  0.22045  0.07791  1.0000
  Fe  Fe73      1.0  0.79355  0.10103  0.49195  1.0000
  C   C492      1.0  0.72222  0.01867  0.36382  1.0000
  S   S139      1.0  0.98166  0.42438  0.18954  1.0000
  Fe  Fe74      1.0  0.98974  0.04016  0.20718  1.0000
  C   C493      1.0  0.73059  0.21205  0.08212  1.0000
  H   H586      1.0  0.80831  0.06407  0.40966  1.0000
  N   N32       1.0  0.76830  0.04597  0.38556  1.0000
  H   H587      1.0  0.94005  0.00032  0.37271  1.0000
  C   C494      1.0  0.72378  0.27682  0.48087  1.0000
  H   H588      1.0  0.73729  0.15204  0.09499  1.0000
  C   C495      1.0  0.71828  0.16377  0.10775  1.0000
  S   S140      1.0  0.94821  0.01060  0.20797  1.0000
  C   C496      1.0  0.90070  0.04408  0.32979  1.0000
  C   C497      1.0  0.90539  0.07345  0.31819  1.0000
  C   C498      1.0  0.89338  0.09775  0.33685  1.0000
  C   C499      1.0  0.87729  0.09298  0.36768  1.0000
  C   C500      1.0  0.87351  0.06363  0.37990  1.0000
  C   C501      1.0  0.88476  0.03929  0.36074  1.0000
  H   H589      1.0  0.91755  0.07742  0.29436  1.0000
  H   H590      1.0  0.89650  0.12038  0.32726  1.0000
  H   H591      1.0  0.86191  0.05968  0.40401  1.0000
  H   H592      1.0  0.88122  0.01663  0.37000  1.0000
  C   C502      1.0  0.96033  0.41999  0.15080  1.0000
  C   C503      1.0  0.95623  0.39112  0.13670  1.0000
  C   C504      1.0  0.93939  0.38684  0.10602  1.0000
  C   C505      1.0  0.92646  0.41145  0.08911  1.0000
  C   C506      1.0  0.93065  0.44028  0.10319  1.0000
  C   C507      1.0  0.94746  0.44456  0.13380  1.0000
  H   H593      1.0  0.91662  0.09727  0.47220  1.0000
  H   H594      1.0  0.93634  0.36454  0.09554  1.0000
  H   H595      1.0  0.92077  0.45946  0.09035  1.0000
  H   H596      1.0  0.95045  0.46689  0.14423  1.0000
  C   C508      1.0  0.77707  0.25520  0.07233  1.0000
  H   H597      1.0  0.78380  0.04472  0.43846  1.0000
  C   C509      1.0  0.96385  0.20812  0.07393  1.0000
  C   C510      1.0  0.78082  0.22594  0.06063  1.0000
  C   C511      1.0  0.92955  0.08267  0.45542  1.0000
  H   H598      1.0  0.96181  0.01406  0.45572  1.0000
  C   C512      1.0  0.75045  0.26332  0.08873  1.0000
  C   C513      1.0  0.95531  0.03568  0.44555  1.0000
  H   H599      1.0  0.99747  0.11184  0.10434  1.0000
  C   C514      1.0  0.76385  0.35466  0.49336  1.0000
  C   C515      1.0  0.96290  0.04428  0.41120  1.0000
  C   C516      1.0  0.95461  0.18417  0.09462  1.0000
  H   H600      1.0  0.71863  0.03582  0.34446  1.0000
  H   H601      1.0  0.95677  0.08134  0.37407  1.0000
  C   C517      1.0  0.82470  0.28251  0.46955  1.0000
  C   C518      1.0  0.78332  0.30771  0.42344  1.0000
  C   C519      1.0  0.74693  0.02033  0.38721  1.0000
  H   H602      1.0  0.92861  0.11340  0.41262  1.0000
  C   C520      1.0  0.93889  0.05468  0.46726  1.0000
  S   S141      1.0  0.68099  0.38634  0.44626  1.0000
  H   H603      1.0  0.76686  0.31565  0.40504  1.0000
  H   H604      1.0  0.80125  0.22001  0.04698  1.0000
  N   N33       1.0  0.70671  0.18903  0.08657  1.0000
  H   H605      1.0  0.94859  0.21728  0.05461  1.0000
  C   C521      1.0  0.98674  0.03627  0.35390  1.0000
  N   N34       1.0  0.78048  0.35518  0.46016  1.0000
  H   H606      1.0  0.70731  0.25020  0.10611  1.0000
  H   H607      1.0  0.76624  0.05137  0.32982  1.0000
  H   H608      1.0  0.99762  0.00624  0.01536  1.0000
  H   H609      1.0  0.73917  0.35196  0.43084  1.0000
  S   S142      1.0  0.98973  0.04650  0.26509  1.0000
  H   H610      1.0  0.79443  0.02574  0.34506  1.0000
  S   S143      1.0  0.86309  0.15205  0.48590  1.0000
  Fe  Fe75      1.0  0.98919  0.46988  0.21551  1.0000
  C   C522      1.0  0.75183  0.07440  0.39154  1.0000
  C   C523      1.0  0.80567  0.37703  0.46303  1.0000
  H   H611      1.0  0.72640  0.17182  0.13340  1.0000
  H   H612      1.0  0.96604  0.37196  0.14962  1.0000
  C   C524      1.0  0.79236  0.32482  0.45277  1.0000
  C   C525      1.0  0.67913  0.20050  0.10373  1.0000
  C   C526      1.0  0.95285  0.07299  0.39993  1.0000
  C   C527      1.0  0.75430  0.23167  0.47107  1.0000
  H   H613      1.0  0.79729  0.40037  0.46697  1.0000
  C   C528      1.0  0.69754  0.17731  0.05226  1.0000
  S   S144      1.0  0.69482  0.30151  0.46581  1.0000
  S   S145      1.0  0.99131  0.47169  0.27382  1.0000
  H   H614      1.0  0.79986  0.06553  0.34931  1.0000
  H   H615      1.0  0.71600  0.16558  0.03851  1.0000
  H   H616      1.0  0.73496  0.07908  0.37100  1.0000
  H   H617      1.0  0.75110  0.38948  0.43961  1.0000
  H   H618      1.0  0.76736  0.09411  0.39232  1.0000
  C   C529      1.0  0.71832  0.49234  0.47632  1.0000
  H   H619      1.0  0.79449  0.27190  0.06774  1.0000
  C   C530      1.0  0.93653  0.09179  0.42191  1.0000
  C   C531      1.0  0.78270  0.04719  0.35094  1.0000
  H   H620      1.0  0.68398  0.20872  0.13033  1.0000
  H   H621      1.0  0.83994  0.27212  0.48797  1.0000
  C   C532      1.0  0.75951  0.36659  0.43320  1.0000
  H   H622      1.0  0.99909  0.40557  0.25922  1.0000
  H   H623      1.0  0.70051  0.14646  0.11236  1.0000
  C   C533      1.0  0.81560  0.26649  0.44045  1.0000
  H   H624      1.0  0.78743  0.26615  0.39529  1.0000
  H   H625      1.0  0.82387  0.24390  0.43635  1.0000
  C   C534      1.0  0.79500  0.27906  0.41744  1.0000
  S   S146      1.0  0.83861  0.08214  0.47725  1.0000
  H   H626      1.0  0.73964  0.07365  0.41673  1.0000
  H   H627      1.0  0.96572  0.04110  0.33924  1.0000
  H   H628      1.0  0.74353  0.34016  0.49133  1.0000
  C   C535      1.0  0.73675  0.28201  0.00258  1.0000
  H   H629      1.0  0.67369  0.16381  0.48341  1.0000
  H   H630      1.0  0.97280  0.46133  0.99811  1.0000
  H   H631      1.0  0.81968  0.37701  0.43916  1.0000
  C   C536      1.0  0.79284  0.04439  0.41166  1.0000
  C   C537      1.0  0.97405  0.17257  0.11958  1.0000
  H   H632      1.0  0.93230  0.17462  0.09133  1.0000
  H   H633      1.0  0.80689  0.02398  0.40824  1.0000
  H   H634      1.0  0.72742  0.30123  0.01577  1.0000
  H   H635      1.0  0.72131  0.14559  0.48586  1.0000
  S   S147      1.0  0.79008  0.31410  0.00420  1.0000
  C   C538      1.0  0.74204  0.47598  0.49071  1.0000
  C   C539      1.0  0.71731  0.02594  0.49281  1.0000
  H   H636      1.0  0.69443  0.25758  0.00201  1.0000
  H   H637      1.0  0.97363  0.30498  0.99952  1.0000
  H   H638      1.0  0.69760  0.03895  0.48622  1.0000
  S   S148      1.0  0.74758  0.07931  0.49141  1.0000
  H   H639      1.0  0.99974  0.02025  0.33769  1.0000
  H   H640      1.0  0.99816  0.23901  0.06102  1.0000
  C   C540      1.0  0.77655  0.37532  0.93766  1.0000
  H   H641      1.0  0.95601  0.45237  0.62529  1.0000
  S   S149      1.0  0.86769  0.30703  0.95033  1.0000
  C   C541      1.0  0.69233  0.33258  0.91414  1.0000
  Fe  Fe76      1.0  0.88457  0.35418  0.94159  1.0000
  S   S150      1.0  0.88311  0.37535  0.88777  1.0000
  H   H642      1.0  0.99478  0.49452  0.63286  1.0000
  C   C542      1.0  0.73453  0.17304  0.56627  1.0000
  H   H643      1.0  0.95518  0.47561  0.55356  1.0000
  C   C543      1.0  0.73405  0.15556  0.50779  1.0000
  H   H644      1.0  0.99292  0.03098  0.54801  1.0000
  N   N35       1.0  0.99103  0.46449  0.58907  1.0000
  H   H645      1.0  0.75626  0.38748  0.87391  1.0000
  H   H646      1.0  0.74972  0.15426  0.57377  1.0000
  S   S151      1.0  0.69177  0.37341  0.52979  1.0000
  H   H647      1.0  0.79212  0.03437  0.50947  1.0000
  S   S152      1.0  0.81109  0.12693  0.53775  1.0000
  H   H648      1.0  0.92521  0.43667  0.98114  1.0000
  Fe  Fe77      1.0  0.85690  0.11136  0.52020  1.0000
  S   S153      1.0  0.89934  0.09516  0.54834  1.0000
  H   H649      1.0  0.92883  0.01636  0.82778  1.0000
  H   H650      1.0  0.95508  0.25360  0.85742  1.0000
  H   H651      1.0  0.86666  0.05478  0.66181  1.0000
  S   S154      1.0  0.85405  0.37268  0.98242  1.0000
  C   C544      1.0  0.90708  0.02409  0.81639  1.0000
  C   C545      1.0  0.98449  0.28360  0.99550  1.0000
  H   H652      1.0  0.80515  0.32089  0.88631  1.0000
  H   H653      1.0  0.70859  0.22365  0.56305  1.0000
  C   C546      1.0  0.94766  0.30329  0.90388  1.0000
  H   H654      1.0  0.93181  0.47334  0.87947  1.0000
  C   C547      1.0  0.91500  0.05433  0.65690  1.0000
  C   C548      1.0  0.88552  0.06009  0.64522  1.0000
  C   C549      1.0  0.88022  0.07274  0.61222  1.0000
  C   C550      1.0  0.90441  0.07980  0.59051  1.0000
  C   C551      1.0  0.93388  0.07408  0.60223  1.0000
  C   C552      1.0  0.93917  0.06143  0.63518  1.0000
  H   H655      1.0  0.67072  0.34368  0.91601  1.0000
  H   H656      1.0  0.85745  0.07700  0.60360  1.0000
  H   H657      1.0  0.95274  0.07984  0.58582  1.0000
  H   H658      1.0  0.96194  0.05761  0.64403  1.0000
  C   C553      1.0  0.91359  0.39409  0.86711  1.0000
  C   C554      1.0  0.90870  0.40865  0.83525  1.0000
  C   C555      1.0  0.93257  0.42285  0.81748  1.0000
  C   C556      1.0  0.96177  0.42207  0.83107  1.0000
  C   C557      1.0  0.96658  0.40783  0.86315  1.0000
  C   C558      1.0  0.94256  0.39430  0.88131  1.0000
  H   H659      1.0  0.88635  0.40876  0.82408  1.0000
  H   H660      1.0  0.92851  0.43366  0.79281  1.0000
  H   H661      1.0  0.76843  0.29084  0.90919  1.0000
  H   H662      1.0  0.94638  0.38413  0.90633  1.0000
  N   N36       1.0  0.97811  0.30437  0.88817  1.0000
  S   S155      1.0  0.92051  0.03840  0.69873  1.0000
  H   H663      1.0  0.82089  0.32253  0.49887  1.0000
  C   C559      1.0  0.67513  0.24076  0.52964  1.0000
  H   H664      1.0  0.79644  0.38494  0.87253  1.0000
  C   C560      1.0  0.71885  0.34951  0.91174  1.0000
  H   H665      1.0  0.69129  0.47499  0.53681  1.0000
  H   H666      1.0  0.94860  0.29411  0.93069  1.0000
  C   C561      1.0  0.74785  0.30362  0.91003  1.0000
  H   H667      1.0  0.71097  0.11956  0.55697  1.0000
  H   H668      1.0  0.70519  0.42705  0.61086  1.0000
  H   H669      1.0  0.82387  0.35056  0.90858  1.0000
  H   H670      1.0  0.80267  0.25675  0.96929  1.0000
  C   C562      1.0  0.97636  0.25004  0.87036  1.0000
  H   H671      1.0  0.93166  0.28901  0.88909  1.0000
  S   S156      1.0  0.97804  0.03569  0.77625  1.0000
  H   H672      1.0  0.84680  0.02223  0.80570  1.0000
  C   C563      1.0  0.77534  0.37148  0.87538  1.0000
  S   S157      1.0  0.92771  0.25907  0.99096  1.0000
  Fe  Fe78      1.0  0.84005  0.32497  0.99411  1.0000
  N   N37       1.0  0.77529  0.35406  0.90811  1.0000
  H   H673      1.0  0.74959  0.19217  0.55927  1.0000
  H   H674      1.0  0.95887  0.42824  0.58804  1.0000
  C   C564      1.0  0.69468  0.43859  0.58835  1.0000
  H   H675      1.0  0.73265  0.29946  0.52904  1.0000
  C   C565      1.0  0.69439  0.18925  0.52552  1.0000
  H   H676      1.0  0.96795  0.20984  0.98289  1.0000
  H   H677      1.0  0.97641  0.20317  0.85633  1.0000
  C   C566      1.0  0.68178  0.48500  0.56069  1.0000
  S   S158      1.0  0.79947  0.21213  0.51666  1.0000
  S   S159      1.0  0.99310  0.43740  0.80850  1.0000
  C   C567      1.0  0.69351  0.30135  0.91448  1.0000
  H   H678      1.0  0.77761  0.34620  0.51527  1.0000
  H   H679      1.0  0.80464  0.32238  0.93310  1.0000
  S   S160      1.0  0.70680  0.20067  0.96595  1.0000
  H   H680      1.0  0.70740  0.43125  0.56509  1.0000
  H   H681      1.0  0.95984  0.30207  0.83623  1.0000
  H   H682      1.0  0.78737  0.47816  0.51066  1.0000
  S   S161      1.0  0.92431  0.34964  0.97717  1.0000
  H   H683      1.0  0.79817  0.38808  0.93834  1.0000
  C   C568      1.0  0.76973  0.23619  0.50230  1.0000
  C   C569      1.0  0.73883  0.28100  0.51242  1.0000
  C   C570      1.0  0.69400  0.21792  0.54167  1.0000
  C   C571      1.0  0.77913  0.25712  0.97638  1.0000
  C   C572      1.0  0.99627  0.32645  0.90817  1.0000
  H   H684      1.0  0.72143  0.17908  0.58972  1.0000
  Fe  Fe79      1.0  0.96593  0.02419  0.72122  1.0000
  S   S162      1.0  0.99430  0.46702  0.70723  1.0000
  H   H685      1.0  0.71676  0.37365  0.91147  1.0000
  H   H686      1.0  0.93721  0.32596  0.90507  1.0000
  H   H687      1.0  0.75047  0.13825  0.51598  1.0000
  C   C573      1.0  0.97214  0.44172  0.60694  1.0000
  C   C574      1.0  0.92605  0.45425  0.92914  1.0000
  H   H688      1.0  0.75838  0.39230  0.93682  1.0000
  H   H689      1.0  0.74046  0.47278  0.57160  1.0000
  H   H690      1.0  0.68068  0.14429  0.56915  1.0000
  C   C575      1.0  0.80335  0.33607  0.90903  1.0000
  C   C576      1.0  0.76175  0.26098  0.52285  1.0000
  H   H691      1.0  0.77367  0.35630  0.85258  1.0000
  C   C577      1.0  0.72961  0.23219  0.97771  1.0000
  Fe  Fe80      1.0  0.90480  0.30413  0.98979  1.0000
  C   C578      1.0  0.76745  0.28219  0.99343  1.0000
  H   H692      1.0  0.68275  0.12887  0.52624  1.0000
  H   H693      1.0  0.89477  0.03745  0.83604  1.0000
  C   C579      1.0  0.76031  0.23237  0.96857  1.0000
  H   H694      1.0  0.77454  0.36317  0.96278  1.0000
  C   C580      1.0  0.96414  0.46448  0.97206  1.0000
  H   H695      1.0  0.96692  0.48953  0.84150  1.0000
  C   C581      1.0  0.74516  0.04030  0.49737  1.0000
  C   C582      1.0  0.71797  0.25719  0.99494  1.0000
  C   C583      1.0  0.74752  0.33556  0.91012  1.0000
  C   C584      1.0  0.98136  0.22993  0.98643  1.0000
  H   H696      1.0  0.86779  0.02764  0.76623  1.0000
  C   C585      1.0  0.97984  0.48231  0.94822  1.0000
  H   H697      1.0  0.72195  0.26259  0.91263  1.0000
  H   H698      1.0  0.98575  0.42585  0.62270  1.0000
  H   H699      1.0  0.76962  0.21321  0.95523  1.0000
  H   H700      1.0  0.95553  0.49744  0.59223  1.0000
  H   H701      1.0  0.99771  0.31617  0.83908  1.0000
  H   H702      1.0  0.98900  0.40744  0.87412  1.0000
  C   C586      1.0  0.69636  0.13830  0.54784  1.0000
  H   H703      1.0  0.77337  0.26471  0.54711  1.0000
  C   C587      1.0  0.72116  0.28694  0.91207  1.0000
  C   C588      1.0  0.96883  0.48699  0.91407  1.0000
  C   C589      1.0  0.93727  0.45054  0.96256  1.0000
  Fe  Fe81      1.0  0.99306  0.47269  0.76534  1.0000
  H   H704      1.0  0.67301  0.28820  0.91688  1.0000
  H   H705      1.0  0.67579  0.26278  0.54157  1.0000
  C   C590      1.0  0.94152  0.47205  0.90507  1.0000
  C   C591      1.0  0.72742  0.48112  0.59428  1.0000
  C   C592      1.0  0.86161  0.01090  0.78660  1.0000
  H   H706      1.0  0.73830  0.47228  0.61818  1.0000
  H   H707      1.0  0.96640  0.33919  0.85154  1.0000
  N   N38       1.0  0.69537  0.47175  0.59232  1.0000
  H   H708      1.0  0.90540  0.44283  0.92168  1.0000
  C   C593      1.0  0.99136  0.27388  0.88774  1.0000
  H   H709      1.0  0.91309  0.03979  0.79495  1.0000
  H   H710      1.0  0.67124  0.43004  0.58512  1.0000
  N   N39       1.0  0.71450  0.16468  0.53691  1.0000
  S   S163      1.0  0.73874  0.43725  0.49900  1.0000
  C   C594      1.0  0.98236  0.01174  0.56195  1.0000
  C   C595      1.0  0.97541  0.31587  0.85222  1.0000
  H   H711      1.0  0.98572  0.34903  0.90829  1.0000
  H   H712      1.0  0.75602  0.37739  0.50075  1.0000
  C   C596      1.0  0.77060  0.02339  0.50572  1.0000
  C   C597      1.0  0.96714  0.25767  0.99096  1.0000
  H   H713      1.0  0.96610  0.02117  0.58097  1.0000
  H   H714      1.0  0.74719  0.17490  0.49773  1.0000
  C   C598      1.0  0.76893  0.49074  0.49956  1.0000
  C   C599      1.0  0.97039  0.48656  0.57271  1.0000
  C   C600      1.0  0.67895  0.48249  0.62320  1.0000
  H   H715      1.0  0.99852  0.31957  0.93576  1.0000
  Fe  Fe82      1.0  0.81547  0.16524  0.49956  1.0000
  C   C601      1.0  0.98840  0.22108  0.86949  1.0000
  H   H716      1.0  0.99622  0.47203  0.51652  1.0000
  H   H717      1.0  0.96853  0.99894  0.54309  1.0000
  C   C602      1.0  0.67460  0.18496  0.49700  1.0000
  C   C603      1.0  0.99543  0.99590  0.06869  1.0000
  H   H718      1.0  0.69638  0.61569  0.45103  1.0000
  Fe  Fe83      1.0  0.96522  0.51467  0.26978  1.0000
  H   H719      1.0  0.89853  0.66019  0.32669  1.0000
  C   C604      1.0  0.67635  0.70239  0.47204  1.0000
  C   C605      1.0  0.73019  0.78395  0.99858  1.0000
  H   H720      1.0  0.89402  0.87078  0.14450  1.0000
  Fe  Fe84      1.0  0.88611  0.86671  0.01670  1.0000
  S   S164      1.0  0.89457  0.90931  0.04815  1.0000
  C   C606      1.0  0.77202  0.84362  0.11488  1.0000
  S   S165      1.0  0.86726  0.82263  0.03584  1.0000
  C   C607      1.0  0.97782  0.78039  0.08383  1.0000
  Fe  Fe85      1.0  0.98108  0.97273  0.21191  1.0000
  S   S166      1.0  0.98094  0.97293  0.27034  1.0000
  C   C608      1.0  0.71172  0.75801  0.99765  1.0000
  Fe  Fe86      1.0  0.85677  0.61939  0.45607  1.0000
  C   C609      1.0  0.84317  0.87600  0.17920  1.0000
  S   S167      1.0  0.89738  0.61691  0.42034  1.0000
  C   C610      1.0  0.74838  0.53819  0.47992  1.0000
  C   C611      1.0  0.82018  0.87058  0.12081  1.0000
  C   C612      1.0  0.87141  0.58786  0.28026  1.0000
  S   S168      1.0  0.69302  0.87919  0.45826  1.0000
  S   S169      1.0  0.80973  0.63361  0.44293  1.0000
  H   H721      1.0  0.99713  0.98917  0.12390  1.0000
  H   H722      1.0  0.77296  0.76894  0.44229  1.0000
  C   C613      1.0  0.96279  0.99549  0.38351  1.0000
  H   H723      1.0  0.87831  0.86736  0.10209  1.0000
  H   H724      1.0  0.97416  0.98015  0.36491  1.0000
  H   H725      1.0  0.84141  0.85174  0.18582  1.0000
  C   C614      1.0  0.67289  0.75054  0.44328  1.0000
  H   H726      1.0  0.79447  0.84906  0.16275  1.0000
  C   C615      1.0  0.79533  0.86511  0.06429  1.0000
  H   H727      1.0  0.87024  0.83921  0.13361  1.0000
  H   H728      1.0  0.92276  0.63829  0.21539  1.0000
  C   C616      1.0  0.79571  0.85427  0.13552  1.0000
  C   C617      1.0  0.72146  0.52342  0.47108  1.0000
  H   H729      1.0  0.87145  0.92168  0.15127  1.0000
  C   C618      1.0  0.87344  0.86380  0.13000  1.0000
  H   H730      1.0  0.83722  0.88713  0.07120  1.0000
  H   H731      1.0  0.82305  0.88792  0.18933  1.0000
  H   H732      1.0  0.90183  0.54649  0.23804  1.0000
  C   C619      1.0  0.91743  0.54625  0.33684  1.0000
  C   C620      1.0  0.93793  0.56937  0.34385  1.0000
  C   C621      1.0  0.93160  0.59057  0.36984  1.0000
  C   C622      1.0  0.90489  0.58874  0.38923  1.0000
  C   C623      1.0  0.88477  0.56517  0.38290  1.0000
  C   C624      1.0  0.89099  0.54412  0.35670  1.0000
  H   H733      1.0  0.95844  0.57119  0.32896  1.0000
  H   H734      1.0  0.94728  0.60874  0.37455  1.0000
  H   H735      1.0  0.86415  0.56349  0.39762  1.0000
  C   C625      1.0  0.85684  0.59800  0.31007  1.0000
  C   C626      1.0  0.95589  0.92456  0.14289  1.0000
  C   C627      1.0  0.93788  0.94764  0.12982  1.0000
  C   C628      1.0  0.92000  0.94281  0.10017  1.0000
  C   C629      1.0  0.91984  0.91488  0.08326  1.0000
  C   C630      1.0  0.93832  0.89195  0.09585  1.0000
  C   C631      1.0  0.95616  0.89677  0.12560  1.0000
  H   H736      1.0  0.93751  0.96915  0.14276  1.0000
  H   H737      1.0  0.90587  0.96073  0.09058  1.0000
  H   H738      1.0  0.93853  0.87040  0.08301  1.0000
  H   H739      1.0  0.83184  0.92671  0.14264  1.0000
  H   H740      1.0  0.85768  0.91871  0.10844  1.0000
  C   C632      1.0  0.69846  0.69233  0.44825  1.0000
  H   H741      1.0  0.95644  0.60873  0.25234  1.0000
  H   H742      1.0  0.75378  0.83079  0.12633  1.0000
  H   H743      1.0  0.87501  0.52630  0.35144  1.0000
  Fe  Fe87      1.0  0.89938  0.80235  0.99737  1.0000
  S   S170      1.0  0.95982  0.51044  0.21203  1.0000
  C   C633      1.0  0.96256  0.75715  0.99867  1.0000
  C   C634      1.0  0.77211  0.52178  0.49419  1.0000
  H   H744      1.0  0.73610  0.63614  0.48949  1.0000
  H   H745      1.0  0.98419  0.68857  0.09571  1.0000
  H   H746      1.0  0.72320  0.65546  0.39801  1.0000
  H   H747      1.0  0.97015  0.87884  0.13545  1.0000
  C   C635      1.0  0.70147  0.99495  0.36511  1.0000
  C   C636      1.0  0.86651  0.62408  0.32658  1.0000
  H   H748      1.0  0.87627  0.56823  0.21144  1.0000
  C   C637      1.0  0.72711  0.65912  0.48542  1.0000
  H   H749      1.0  0.94596  0.57151  0.26523  1.0000
  C   C638      1.0  0.81918  0.87563  0.08453  1.0000
  C   C639      1.0  0.74955  0.99671  0.41187  1.0000
  C   C640      1.0  0.89063  0.64036  0.31317  1.0000
  H   H750      1.0  0.73140  0.80340  0.45797  1.0000
  H   H751      1.0  0.85595  0.63113  0.35051  1.0000
  C   C641      1.0  0.73356  0.65449  0.42422  1.0000
  C   C642      1.0  0.76564  0.73848  0.48486  1.0000
  H   H752      1.0  0.68260  0.99421  0.34720  1.0000
  H   H753      1.0  0.74263  0.63133  0.42746  1.0000
  N   N40       1.0  0.84655  0.88071  0.14131  1.0000
  H   H754      1.0  0.70308  0.53602  0.45987  1.0000
  N   N41       1.0  0.91249  0.59375  0.23465  1.0000
  H   H755      1.0  0.75399  0.84001  0.06314  1.0000
  C   C643      1.0  0.75957  0.76433  0.46506  1.0000
  H   H756      1.0  0.92315  0.60970  0.18333  1.0000
  C   C644      1.0  0.85200  0.91328  0.13571  1.0000
  H   H757      1.0  0.86306  0.88476  0.19376  1.0000
  C   C645      1.0  0.90515  0.63064  0.28315  1.0000
  H   H758      1.0  0.79537  0.86883  0.03651  1.0000
  C   C646      1.0  0.77193  0.84890  0.07933  1.0000
  H   H759      1.0  0.97272  0.56460  0.46196  1.0000
  H   H760      1.0  0.95729  0.57919  0.22148  1.0000
  C   C647      1.0  0.72875  0.97303  0.41277  1.0000
  N   N42       1.0  0.71142  0.66186  0.45168  1.0000
  C   C648      1.0  0.70476  0.97215  0.38952  1.0000
  S   S171      1.0  0.92400  0.75910  0.00842  1.0000
  C   C649      1.0  0.89606  0.60401  0.26578  1.0000
  C   C650      1.0  0.73619  0.78420  0.47418  1.0000
  H   H761      1.0  0.95126  0.59616  0.44893  1.0000
  H   H762      1.0  0.83871  0.58487  0.32128  1.0000
  H   H763      1.0  0.98977  0.82595  0.09626  1.0000
  C   C651      1.0  0.91142  0.61717  0.20733  1.0000
  H   H764      1.0  0.70194  0.75699  0.39962  1.0000
  H   H765      1.0  0.88774  0.62267  0.20037  1.0000
  C   C652      1.0  0.69449  0.74144  0.41947  1.0000
  H   H766      1.0  0.72452  0.70771  0.40316  1.0000
  H   H767      1.0  0.68861  0.95381  0.39053  1.0000
  H   H768      1.0  0.72001  0.80566  0.00268  1.0000
  C   C653      1.0  0.94438  0.58816  0.24383  1.0000
  S   S172      1.0  0.92299  0.52042  0.30260  1.0000
  H   H769      1.0  0.86354  0.56679  0.26978  1.0000
  H   H770      1.0  0.92406  0.64377  0.27410  1.0000
  H   H771      1.0  0.91293  0.55865  0.19601  1.0000
  S   S173      1.0  0.79620  0.71484  0.47234  1.0000
  C   C654      1.0  0.68711  0.63895  0.45010  1.0000
  H   H772      1.0  0.75338  0.66993  0.42508  1.0000
  C   C655      1.0  0.90018  0.56561  0.21948  1.0000
  Fe  Fe88      1.0  0.79544  0.60102  0.48432  1.0000
  S   S174      1.0  0.97777  0.92915  0.18103  1.0000
  C   C656      1.0  0.99706  0.80274  0.09606  1.0000
  S   S175      1.0  0.75138  0.57716  0.47319  1.0000
  H   H773      1.0  0.95563  0.78629  0.07418  1.0000
  H   H774      1.0  0.67129  0.64064  0.47222  1.0000
  C   C657      1.0  0.70732  0.71287  0.42188  1.0000
  H   H775      1.0  0.98713  0.60249  0.46821  1.0000
  C   C658      1.0  0.96676  0.58792  0.46952  1.0000
  H   H776      1.0  0.97120  0.73458  0.07243  1.0000
  Fe  Fe89      1.0  0.81264  0.66727  0.48618  1.0000
  H   H777      1.0  0.75345  0.87945  0.49328  1.0000
  H   H778      1.0  0.77543  0.84898  0.47781  1.0000
  H   H779      1.0  0.73101  0.95538  0.43201  1.0000
  H   H780      1.0  0.95962  0.98270  0.40791  1.0000
  C   C659      1.0  0.98720  0.75047  0.08293  1.0000
  H   H781      1.0  0.69335  0.98374  0.49269  1.0000
  H   H782      1.0  0.68765  0.75996  0.00105  1.0000
  H   H783      1.0  0.97715  0.97992  0.06516  1.0000
  H   H784      1.0  0.96997  0.80490  0.99963  1.0000
  H   H785      1.0  0.67383  0.64115  0.42576  1.0000
  H   H786      1.0  0.76720  0.99611  0.43111  1.0000
  H   H787      1.0  0.66891  0.68834  0.49318  1.0000
  H   H788      1.0  0.74658  0.67478  0.48681  1.0000
  H   H789      1.0  0.91026  0.57572  0.48130  1.0000
  H   H790      1.0  0.99856  0.69444  0.05233  1.0000
  H   H791      1.0  0.92901  0.62918  0.48856  1.0000
  C   C660      1.0  0.71486  0.99468  0.49645  1.0000
  S   S176      1.0  0.84246  0.58368  0.49399  1.0000
  S   S177      1.0  0.86126  0.65566  0.49613  1.0000
  H   H792      1.0  0.81836  0.82496  0.49523  1.0000
  H   H793      1.0  0.96250  0.70884  0.99653  1.0000
  S   S178      1.0  0.68890  0.80310  0.51687  1.0000
  H   H794      1.0  0.89437  0.96368  0.76501  1.0000
  S   S179      1.0  0.86585  0.80159  0.95376  1.0000
  H   H795      1.0  0.75932  0.81074  0.58359  1.0000
  Fe  Fe90      1.0  0.88465  0.84738  0.94096  1.0000
  S   S180      1.0  0.89402  0.85864  0.88440  1.0000
  C   C661      1.0  0.77696  0.80435  0.56596  1.0000
  H   H796      1.0  0.89246  0.51054  0.60070  1.0000
  H   H797      1.0  0.68740  0.53002  0.61315  1.0000
  H   H798      1.0  0.96129  0.83805  0.90476  1.0000
  H   H799      1.0  0.78788  0.97904  0.51565  1.0000
  H   H800      1.0  0.98307  0.50500  0.55989  1.0000
  H   H801      1.0  0.85441  0.94715  0.79742  1.0000
  N   N43       1.0  0.77556  0.85435  0.53364  1.0000
  C   C662      1.0  0.90683  0.98242  0.77745  1.0000
  C   C663      1.0  0.78737  0.82363  0.53908  1.0000
  S   S181      1.0  0.79639  0.63524  0.52719  1.0000
  S   S182      1.0  0.92998  0.50598  0.66112  1.0000
  Fe  Fe91      1.0  0.84482  0.62055  0.53359  1.0000
  S   S183      1.0  0.87107  0.61853  0.58434  1.0000
  C   C664      1.0  0.94289  0.62042  0.51045  1.0000
  C   C665      1.0  0.74796  0.73285  0.51417  1.0000
  H   H802      1.0  0.79218  0.89998  0.53243  1.0000
  Fe  Fe92      1.0  0.96467  0.50805  0.70485  1.0000
  C   C666      1.0  0.82117  0.78299  0.52109  1.0000
  C   C667      1.0  0.87986  0.96010  0.89207  1.0000
  H   H803      1.0  0.68832  0.64722  0.94705  1.0000
  C   C668      1.0  0.98782  0.71228  0.86823  1.0000
  C   C669      1.0  0.72470  0.75283  0.52342  1.0000
  C   C670      1.0  0.88887  0.98060  0.86660  1.0000
  C   C671      1.0  0.91329  0.53748  0.64049  1.0000
  C   C672      1.0  0.89579  0.53304  0.61048  1.0000
  C   C673      1.0  0.88233  0.55749  0.59318  1.0000
  C   C674      1.0  0.88617  0.58667  0.60584  1.0000
  C   C675      1.0  0.90360  0.59105  0.63587  1.0000
  C   C676      1.0  0.91712  0.56663  0.65310  1.0000
  H   H804      1.0  0.74491  0.88686  0.55523  1.0000
  H   H805      1.0  0.86884  0.55375  0.57024  1.0000
  H   H806      1.0  0.90675  0.61353  0.64585  1.0000
  H   H807      1.0  0.93038  0.57039  0.67623  1.0000
  C   C677      1.0  0.91850  0.88811  0.87150  1.0000
  C   C678      1.0  0.92304  0.89362  0.83603  1.0000
  C   C679      1.0  0.94142  0.91761  0.82483  1.0000
  C   C680      1.0  0.95524  0.93647  0.84911  1.0000
  C   C681      1.0  0.95118  0.93050  0.88456  1.0000
  C   C682      1.0  0.93302  0.90639  0.89575  1.0000
  H   H808      1.0  0.91200  0.87948  0.81710  1.0000
  H   H809      1.0  0.94475  0.92155  0.79749  1.0000
  C   C683      1.0  0.80062  0.87647  0.53463  1.0000
  H   H810      1.0  0.92974  0.90241  0.92312  1.0000
  H   H811      1.0  0.68581  0.50957  0.55861  1.0000
  H   H812      1.0  0.73151  0.63107  0.89406  1.0000
  H   H813      1.0  0.96262  0.63564  0.51361  1.0000
  H   H814      1.0  0.85608  0.91900  0.90302  1.0000
  C   C684      1.0  0.81072  0.76483  0.54786  1.0000
  N   N44       1.0  0.88873  0.99837  0.80375  1.0000
  C   C685      1.0  0.76067  0.85619  0.49935  1.0000
  C   C686      1.0  0.67669  0.51373  0.62990  1.0000
  H   H815      1.0  0.88765  0.96268  0.91853  1.0000
  C   C687      1.0  0.97003  0.51091  0.85594  1.0000
  H   H816      1.0  0.92000  0.80492  0.91100  1.0000
  H   H817      1.0  0.92752  0.97288  0.78926  1.0000
  H   H818      1.0  0.96186  0.94488  0.90353  1.0000
  C   C688      1.0  0.97279  0.57893  0.53258  1.0000
  H   H819      1.0  0.92005  0.76745  0.89547  1.0000
  C   C689      1.0  0.86202  0.93546  0.88342  1.0000
  C   C690      1.0  0.87975  0.97713  0.83149  1.0000
  C   C691      1.0  0.85302  0.93120  0.84925  1.0000
  N   N45       1.0  0.96180  0.79192  0.88732  1.0000
  H   H820      1.0  0.94735  0.73671  0.86033  1.0000
  H   H821      1.0  0.73020  0.50592  0.59429  1.0000
  H   H822      1.0  0.94044  0.77659  0.93411  1.0000
  H   H823      1.0  0.73437  0.66762  0.87331  1.0000
  H   H824      1.0  0.97254  0.80537  0.83526  1.0000
  H   H825      1.0  0.73276  0.84887  0.55936  1.0000
  C   C692      1.0  0.76164  0.78210  0.99421  1.0000
  C   C693      1.0  0.98120  0.76500  0.88539  1.0000
  H   H826      1.0  0.94090  0.58806  0.57399  1.0000
  C   C694      1.0  0.98171  0.57090  0.59477  1.0000
  Fe  Fe93      1.0  0.83472  0.82443  0.99087  1.0000
  C   C695      1.0  0.68317  0.61830  0.80321  1.0000
  H   H827      1.0  0.84001  0.91137  0.84258  1.0000
  Fe  Fe94      1.0  0.69347  0.91571  0.49840  1.0000
  H   H828      1.0  0.81897  0.74204  0.55044  1.0000
  C   C696      1.0  0.69592  0.63103  0.83297  1.0000
  H   H829      1.0  0.71228  0.66394  0.50778  1.0000
  H   H830      1.0  0.75264  0.71352  0.53023  1.0000
  H   H831      1.0  0.93141  0.54556  0.50029  1.0000
  C   C697      1.0  0.68128  0.68804  0.89396  1.0000
  S   S184      1.0  0.96012  0.51078  0.76308  1.0000
  H   H832      1.0  0.97871  0.69189  0.85693  1.0000
  C   C698      1.0  0.97005  0.73807  0.87033  1.0000
  H   H833      1.0  0.98315  0.81341  0.93102  1.0000
  C   C699      1.0  0.95255  0.80110  0.85192  1.0000
  C   C700      1.0  0.67753  0.64270  0.85983  1.0000
  C   C701      1.0  0.99034  0.96724  0.59645  1.0000
  N   N46       1.0  0.69001  0.65598  0.89195  1.0000
  H   H834      1.0  0.71136  0.74828  0.54624  1.0000
  Fe  Fe95      1.0  0.67344  0.85042  0.50041  1.0000
  H   H835      1.0  0.93828  0.78393  0.83899  1.0000
  H   H836      1.0  0.81349  0.87468  0.55930  1.0000
  H   H837      1.0  0.91155  0.57173  0.52720  1.0000
  C   C702      1.0  0.75313  0.86360  0.56000  1.0000
  S   S185      1.0  0.92076  0.84612  0.98165  1.0000
  H   H838      1.0  0.76289  0.86330  0.58653  1.0000
  S   S186      1.0  0.97701  0.96825  0.83690  1.0000
  S   S187      1.0  0.97344  0.97490  0.73004  1.0000
  H   H839      1.0  0.93897  0.82208  0.85226  1.0000
  C   C703      1.0  0.80984  0.81198  0.51675  1.0000
  H   H840      1.0  0.73162  0.66475  0.91922  1.0000
  C   C704      1.0  0.93447  0.78483  0.90778  1.0000
  C   C705      1.0  0.92535  0.56960  0.50333  1.0000
  C   C706      1.0  0.96305  0.57996  0.56750  1.0000
  H   H841      1.0  0.97595  0.95417  0.57837  1.0000
  H   H842      1.0  0.78006  0.76090  0.59043  1.0000
  C   C707      1.0  0.98009  0.78315  0.99591  1.0000
  S   S188      1.0  0.78370  0.81580  0.99558  1.0000
  C   C708      1.0  0.78872  0.77549  0.57026  1.0000
  S   S189      1.0  0.85093  0.87061  0.97467  1.0000
  H   H843      1.0  0.69035  0.70101  0.87164  1.0000
  C   C709      1.0  0.72336  0.65466  0.89446  1.0000
  H   H844      1.0  0.84806  0.99338  0.77326  1.0000
  H   H845      1.0  0.68983  0.69880  0.91811  1.0000
  C   C710      1.0  0.97663  0.81827  0.90377  1.0000
  H   H846      1.0  0.91405  0.99777  0.75623  1.0000
  C   C711      1.0  0.74030  0.97771  0.50459  1.0000
  H   H847      1.0  0.94767  0.52154  0.85981  1.0000
  H   H848      1.0  0.99693  0.82558  0.88913  1.0000
  S   S190      1.0  0.73829  0.93844  0.50796  1.0000
  H   H849      1.0  0.97374  0.57215  0.62127  1.0000
  S   S191      1.0  0.67586  0.88642  0.54131  1.0000
  C   C712      1.0  0.67769  0.63976  0.92239  1.0000
  C   C713      1.0  0.76815  0.99211  0.50929  1.0000
  C   C714      1.0  0.86159  0.95171  0.82361  1.0000
  Fe  Fe96      1.0  0.98913  0.98688  0.78353  1.0000
  H   H850      1.0  0.92852  0.62270  0.53388  1.0000
  H   H851      1.0  0.83747  0.77408  0.50297  1.0000
  H   H852      1.0  0.97031  0.54674  0.91323  1.0000
  H   H853      1.0  0.72018  0.63133  0.83441  1.0000
  N   N47       1.0  0.98589  0.50605  0.88938  1.0000
  N   N48       1.0  0.95255  0.58899  0.50431  1.0000
  H   H854      1.0  0.81663  0.87349  0.51289  1.0000
  H   H855      1.0  0.69755  0.60938  0.78309  1.0000
  C   C715      1.0  0.71874  0.77878  0.50371  1.0000
  H   H856      1.0  0.68111  0.61510  0.92016  1.0000
  C   C716      1.0  0.72445  0.72971  0.99229  1.0000
  H   H857      1.0  0.98304  0.52602  0.83835  1.0000
  S   S192      1.0  0.70235  0.69604  0.99038  1.0000
  H   H858      1.0  0.97574  0.97461  0.61826  1.0000
  H   H859      1.0  0.79290  0.53301  0.50111  1.0000
  H   H860      1.0  0.74013  0.84193  0.49870  1.0000
  H   H861      1.0  0.99342  0.95957  0.52104  1.0000
  C   C717      1.0  0.99168  0.53610  0.90470  1.0000
  H   H862      1.0  0.76610  0.70615  0.98379  1.0000
  C   C718      1.0  0.75589  0.72785  0.98786  1.0000
  H   H863      1.0  0.79844  0.75186  0.98549  1.0000
  C   C719      1.0  0.97608  0.72899  0.99464  1.0000
  C   C720      1.0  0.77436  0.75378  0.98885  1.0000
  H   H864      1.0  0.90364  0.99846  0.87500  1.0000
