data_image0
_chemical_formula_structural       HCHFeS2FeS2FeSFeS3FeSCSFeSFeS3FeS2CS2C7H3C2HCHFeH2CHC6H4C6H4C6H4NC9H14NC7SH11C3HFeC3HC2H3CH5C3H2CHCHCSH3C2H2CHFeH5C2H3CH3CSFeSHFeSHFeSFeSCSH2CFeS2FeS2C5H3CHC6H6C2H2CNH2C2NH2CHNC9H14CHCHC3H2CHCSCH4SH2CH2CH2C3H2CH3CH2CSCH2CH4C3HNH2NH2SCHC6HNH2SH3SCH2C6H3SCH3C6HCH2CFeHSH2NC6H2CH13SHFeHCHFeS2FeS2FeSFeS3FeSC4H2C3H2C6H4C3H2FeS2FeS2FeSFeS3HFeSC6H5C3H3C3H2CHCHCNC9H12NC8H10C2H2CH2C2HCHC2H2C2HNHCH3C2HSH7CH3C2H3NH2C4H3C3HCH2C2HCH4SC3H2CH6CSCFeSFeSFeS2FeS2FeSFeS3FeCSCS2C6H4C2H3CH4C6H4C6H3C6H4CFeH5C3H2SNC4N2HCH4CHSCH3CHSCSH2CH2C2FeCH3FeH5CHSC4H3CHCHFeH3C2H2CHSHCH6SH4CHCHC2FeS2FeS2FeHFeS3C2HFeS2FeHSH4NC2HCSHCHC6H2CHC6H4CH3CHCHC2HCH12S2HNC2H4C2H3C2H2C4H3C3HCH2SCHC2NH2C2H2CHFeCHC2HNHS2HSC2H3NC2Fe2HNFeS2FeS2FeSFeS3CSHSFeSFeSH2FeS2FeS2C6H4C2HC3H4C6H4C6H4C6H3FeNC3H2CH3CH2NC9H11CHCHSCH2CH2SCH2C2HC2NH4CHCH2FeH3CH3CHCH3NH3C2H2C2HSH3C2HCHCH4CHC4HC2H2NSH3CNHFeS2FeSHFeSFeS3H3FeS2FeS2C5FeH3C7H4CH4C2HC2HCHCSNC9H14CH3CHC3H4C3H2CH3C2HC6H2C2HCH2CSHCH2C2H2CHC2S2HSC6HCH2SCHCSH3C6H3CFeH2CH2CHCH4CHC2H6N2HFeSC2HC3HCSH2C3HCH4CHC2HC3FeH5C2H3CHCSHCH2SFeS2FeS2FeSFeS3FeSC4H2CHC2HC6H4C3HSFeS2FeS2FeSFeS3HCSC6H6C2HCHC3H2CHCHCH4CH2CH3CHFeC3H7C2H2NC4H4NC9H14C3HCH4C2H3CHNH6CH3CHC4HC2H2NH2SH4N2H5SHFeSFeSFeS2FeS2FeSFeS3FeS2FeS2C6H4C2HC3H4C6H5C5H3C6H4C3H2NH2C3H3C5HFeH3C2H7C2H3CH2C2HC2H5NC2HC2H7C2H3NCHC2H2CSCSHCHC2H2C3HNHCH2FeCHCHC2H3SCHNCH3C3HNHNC2SHFeS2FeS2FeHFeCS2HSHFeS2FeS2H4C2H2SH4C6H2CHC6H4C3H3CH2C5H3NSH2CH5NC3H4CHC2H3C4H2CNH2CHCHC3H2C2H4NC3H4C4HCH2CHSH2CFeC2H5C2
_chemical_formula_sum              "H864 C720 Fe96 S192 N48"
_cell_length_a       46.524
_cell_length_b       51.6897
_cell_length_c       36.0069
_cell_angle_alpha    90.1221
_cell_angle_beta     90.0092
_cell_angle_gamma    90.1313

_space_group_name_H-M_alt    "P 1"
_space_group_IT_number       1

loop_
  _space_group_symop_operation_xyz
  'x, y, z'

loop_
  _atom_site_type_symbol
  _atom_site_label
  _atom_site_symmetry_multiplicity
  _atom_site_fract_x
  _atom_site_fract_y
  _atom_site_fract_z
  _atom_site_occupancy
  H   H1        1.0  0.37969  0.24687  0.16113  1.0000
  C   C1        1.0  0.45467  0.27960  0.14346  1.0000
  H   H2        1.0  0.31610  0.05628  0.01843  1.0000
  Fe  Fe1       1.0  0.35581  0.13551  0.18582  1.0000
  S   S1        1.0  0.36408  0.17610  0.16477  1.0000
  S   S2        1.0  0.36142  0.09677  0.15537  1.0000
  Fe  Fe2       1.0  0.32792  0.15516  0.25801  1.0000
  S   S3        1.0  0.33526  0.19642  0.24281  1.0000
  S   S4        1.0  0.30002  0.14366  0.30709  1.0000
  Fe  Fe3       1.0  0.31966  0.18568  0.18621  1.0000
  S   S5        1.0  0.28912  0.21461  0.15945  1.0000
  Fe  Fe4       1.0  0.37888  0.18391  0.22331  1.0000
  S   S6        1.0  0.41252  0.21329  0.24082  1.0000
  S   S7        1.0  0.30997  0.14474  0.20203  1.0000
  S   S8        1.0  0.37303  0.14292  0.24358  1.0000
  Fe  Fe5       1.0  0.09319  0.28365  0.25838  1.0000
  S   S9        1.0  0.09444  0.24091  0.25263  1.0000
  C   C2        1.0  0.45901  0.02337  0.17417  1.0000
  S   S10       1.0  0.08042  0.24771  0.16494  1.0000
  Fe  Fe6       1.0  0.05494  0.24465  0.21767  1.0000
  S   S11       1.0  0.02294  0.21267  0.22959  1.0000
  Fe  Fe7       1.0  0.12021  0.24711  0.20087  1.0000
  S   S12       1.0  0.15615  0.21704  0.20280  1.0000
  S   S13       1.0  0.05111  0.28759  0.22756  1.0000
  S   S14       1.0  0.10670  0.30111  0.31357  1.0000
  Fe  Fe8       1.0  0.17645  0.22306  0.47970  1.0000
  S   S15       1.0  0.20482  0.18775  0.48220  1.0000
  S   S16       1.0  0.13866  0.21997  0.43977  1.0000
  C   C3        1.0  0.44408  0.00627  0.24497  1.0000
  S   S17       1.0  0.28206  0.21684  0.44711  1.0000
  S   S18       1.0  0.21301  0.25112  0.47521  1.0000
  C   C4        1.0  0.11474  0.27908  0.34969  1.0000
  C   C5        1.0  0.13588  0.28530  0.37616  1.0000
  C   C6        1.0  0.14357  0.26744  0.40401  1.0000
  C   C7        1.0  0.12929  0.24365  0.40642  1.0000
  C   C8        1.0  0.10726  0.23800  0.38097  1.0000
  C   C9        1.0  0.10036  0.25539  0.35238  1.0000
  C   C10       1.0  0.36385  0.02157  0.01376  1.0000
  H   H3        1.0  0.16025  0.27220  0.42382  1.0000
  H   H4        1.0  0.09550  0.22000  0.38322  1.0000
  H   H5        1.0  0.08344  0.25069  0.33290  1.0000
  C   C11       1.0  0.44852  0.21339  0.22543  1.0000
  C   C12       1.0  0.44474  0.03991  0.19871  1.0000
  H   H6        1.0  0.45972  0.09400  0.10280  1.0000
  C   C13       1.0  0.33155  0.07044  0.02796  1.0000
  H   H7        1.0  0.32335  0.25721  0.46224  1.0000
  Fe  Fe9       1.0  0.24124  0.21630  0.48175  1.0000
  H   H8        1.0  0.33406  0.29065  0.46475  1.0000
  H   H9        1.0  0.99095  0.10513  0.03386  1.0000
  C   C14       1.0  0.33258  0.27235  0.48088  1.0000
  H   H10       1.0  0.44569  0.17804  0.19395  1.0000
  C   C15       1.0  0.25203  0.21512  0.17084  1.0000
  C   C16       1.0  0.23462  0.23564  0.15851  1.0000
  C   C17       1.0  0.20517  0.23675  0.16795  1.0000
  C   C18       1.0  0.19289  0.21718  0.18962  1.0000
  C   C19       1.0  0.21037  0.19678  0.20187  1.0000
  C   C20       1.0  0.23974  0.19575  0.19271  1.0000
  H   H11       1.0  0.24396  0.25072  0.14154  1.0000
  H   H12       1.0  0.19197  0.25255  0.15823  1.0000
  H   H13       1.0  0.20113  0.18164  0.21857  1.0000
  H   H14       1.0  0.25280  0.17982  0.20234  1.0000
  C   C21       1.0  0.29582  0.16375  0.34641  1.0000
  C   C22       1.0  0.27222  0.15974  0.37006  1.0000
  C   C23       1.0  0.26751  0.17603  0.40082  1.0000
  C   C24       1.0  0.28702  0.19587  0.40888  1.0000
  C   C25       1.0  0.31105  0.19943  0.38581  1.0000
  C   C26       1.0  0.31521  0.18370  0.35432  1.0000
  H   H15       1.0  0.25751  0.14395  0.36453  1.0000
  H   H16       1.0  0.24916  0.17288  0.41870  1.0000
  H   H17       1.0  0.32642  0.21455  0.39211  1.0000
  H   H18       1.0  0.33368  0.18669  0.33654  1.0000
  C   C27       1.0  0.43665  0.05847  0.09241  1.0000
  C   C28       1.0  0.41092  0.04515  0.09856  1.0000
  C   C29       1.0  0.38832  0.05710  0.11822  1.0000
  C   C30       1.0  0.39125  0.08239  0.13240  1.0000
  C   C31       1.0  0.41723  0.09552  0.12691  1.0000
  C   C32       1.0  0.43977  0.08360  0.10701  1.0000
  H   H19       1.0  0.40854  0.02555  0.08854  1.0000
  H   H20       1.0  0.36836  0.04675  0.12248  1.0000
  H   H21       1.0  0.41983  0.11495  0.13767  1.0000
  H   H22       1.0  0.00579  0.21920  0.34636  1.0000
  N   N1        1.0  0.16653  0.18882  0.32618  1.0000
  C   C33       1.0  0.15519  0.21046  0.30349  1.0000
  C   C34       1.0  0.14257  0.17696  0.34734  1.0000
  C   C35       1.0  0.18706  0.20006  0.35349  1.0000
  C   C36       1.0  0.17942  0.16903  0.30152  1.0000
  C   C37       1.0  0.16278  0.15748  0.27282  1.0000
  C   C38       1.0  0.20825  0.16038  0.30534  1.0000
  C   C39       1.0  0.17436  0.13864  0.24928  1.0000
  C   C40       1.0  0.21966  0.14161  0.28153  1.0000
  C   C41       1.0  0.20279  0.13080  0.25355  1.0000
  H   H23       1.0  0.13661  0.20464  0.28598  1.0000
  H   H24       1.0  0.14760  0.22690  0.32091  1.0000
  H   H25       1.0  0.17190  0.21796  0.28420  1.0000
  H   H26       1.0  0.12450  0.17091  0.32906  1.0000
  H   H27       1.0  0.13349  0.19063  0.36810  1.0000
  H   H28       1.0  0.14999  0.15965  0.36295  1.0000
  H   H29       1.0  0.20538  0.20971  0.33937  1.0000
  H   H30       1.0  0.17664  0.21507  0.37123  1.0000
  H   H31       1.0  0.19533  0.18515  0.37305  1.0000
  H   H32       1.0  0.14078  0.16327  0.26795  1.0000
  H   H33       1.0  0.22246  0.16777  0.32645  1.0000
  H   H34       1.0  0.16139  0.13057  0.22705  1.0000
  H   H35       1.0  0.24182  0.13545  0.28468  1.0000
  H   H36       1.0  0.21192  0.11652  0.23490  1.0000
  N   N2        1.0  0.26929  0.24079  0.29325  1.0000
  C   C42       1.0  0.28839  0.24628  0.32540  1.0000
  C   C43       1.0  0.26504  0.21243  0.29093  1.0000
  C   C44       1.0  0.28448  0.24979  0.25924  1.0000
  C   C45       1.0  0.24081  0.25332  0.29629  1.0000
  C   C46       1.0  0.22225  0.25429  0.26508  1.0000
  C   C47       1.0  0.23015  0.26382  0.33014  1.0000
  C   C48       1.0  0.42423  0.24082  0.14806  1.0000
  S   S19       1.0  0.46583  0.04415  0.06798  1.0000
  H   H37       1.0  0.45817  0.24901  0.25405  1.0000
  H   H38       1.0  0.27986  0.23784  0.35159  1.0000
  H   H39       1.0  0.31004  0.23741  0.32167  1.0000
  H   H40       1.0  0.29156  0.26745  0.32932  1.0000
  H   H41       1.0  0.25105  0.20680  0.26720  1.0000
  H   H42       1.0  0.25512  0.20473  0.31670  1.0000
  H   H43       1.0  0.28572  0.20203  0.28720  1.0000
  H   H44       1.0  0.30754  0.24417  0.25903  1.0000
  H   H45       1.0  0.27546  0.24125  0.23336  1.0000
  H   H46       1.0  0.28364  0.27122  0.25666  1.0000
  H   H47       1.0  0.22844  0.24582  0.23889  1.0000
  C   C49       1.0  0.19530  0.26606  0.26700  1.0000
  C   C50       1.0  0.36114  0.06836  0.01872  1.0000
  C   C51       1.0  0.46650  0.23394  0.23618  1.0000
  H   H48       1.0  0.43817  0.99974  0.27254  1.0000
  Fe  Fe10      1.0  0.07881  0.29090  0.17625  1.0000
  C   C52       1.0  0.99616  0.98369  0.14703  1.0000
  C   C53       1.0  0.32135  0.09059  0.05033  1.0000
  C   C54       1.0  0.34018  0.10939  0.06370  1.0000
  H   H49       1.0  0.35481  0.26605  0.48745  1.0000
  C   C55       1.0  0.18581  0.27678  0.30025  1.0000
  C   C56       1.0  0.20308  0.27547  0.33181  1.0000
  H   H50       1.0  0.33244  0.12451  0.08209  1.0000
  H   H51       1.0  0.19542  0.28359  0.35777  1.0000
  H   H52       1.0  0.46421  0.03087  0.14705  1.0000
  C   C57       1.0  0.40028  0.25602  0.15563  1.0000
  H   H53       1.0  0.97868  0.17513  0.23659  1.0000
  H   H54       1.0  0.28347  0.29885  0.48521  1.0000
  H   H55       1.0  0.41494  0.04495  0.01645  1.0000
  H   H56       1.0  0.16491  0.28596  0.30154  1.0000
  H   H57       1.0  0.37226  0.02084  0.04264  1.0000
  C   C58       1.0  0.42973  0.29454  0.15092  1.0000
  C   C59       1.0  0.45812  0.98945  0.22042  1.0000
  C   C60       1.0  0.45941  0.19394  0.20236  1.0000
  H   H58       1.0  0.18151  0.26651  0.24264  1.0000
  H   H59       1.0  0.24225  0.26333  0.35572  1.0000
  C   C61       1.0  0.40298  0.28284  0.15691  1.0000
  H   H60       1.0  0.42204  0.21992  0.14800  1.0000
  C   C62       1.0  0.43726  0.03138  0.23405  1.0000
  H   H61       1.0  0.01429  0.97634  0.12976  1.0000
  C   C63       1.0  0.36921  0.10825  0.05454  1.0000
  S   S20       1.0  0.12096  0.29035  0.20816  1.0000
  H   H62       1.0  0.34028  0.01829  0.01514  1.0000
  H   H63       1.0  0.29883  0.09146  0.05797  1.0000
  H   H64       1.0  0.40267  0.08793  0.02791  1.0000
  C   C64       1.0  0.98672  0.24350  0.30501  1.0000
  C   C65       1.0  0.37975  0.08803  0.03259  1.0000
  H   H65       1.0  0.14666  0.30384  0.37474  1.0000
  H   H66       1.0  0.38429  0.29457  0.16306  1.0000
  C   C66       1.0  0.45113  0.25227  0.14224  1.0000
  H   H67       1.0  0.43914  0.05938  0.19004  1.0000
  Fe  Fe11      1.0  0.46567  0.00686  0.03380  1.0000
  H   H68       1.0  0.38383  0.12258  0.06596  1.0000
  H   H69       1.0  0.27606  0.26502  0.48552  1.0000
  H   H70       1.0  0.00616  0.25475  0.30072  1.0000
  H   H71       1.0  0.98764  0.00088  0.13214  1.0000
  H   H72       1.0  0.42602  0.04426  0.25289  1.0000
  C   C67       1.0  0.46590  0.99754  0.18404  1.0000
  C   C68       1.0  0.98717  0.21279  0.21363  1.0000
  H   H73       1.0  0.98893  0.25029  0.18783  1.0000
  H   H74       1.0  0.45432  0.99462  0.11040  1.0000
  H   H75       1.0  0.00506  0.99071  0.17391  1.0000
  C   C69       1.0  0.98651  0.22330  0.33052  1.0000
  H   H76       1.0  0.97942  0.14225  0.07235  1.0000
  H   H77       1.0  0.47229  0.30246  0.08182  1.0000
  H   H78       1.0  0.46885  0.23917  0.13778  1.0000
  C   C70       1.0  0.28490  0.28115  0.50259  1.0000
  S   S21       1.0  0.43088  0.97677  0.03490  1.0000
  Fe  Fe12      1.0  0.06604  0.99885  0.69702  1.0000
  S   S22       1.0  0.06579  0.04149  0.70934  1.0000
  H   H79       1.0  0.44671  0.00047  0.65319  1.0000
  Fe  Fe13      1.0  0.13183  0.99637  0.70122  1.0000
  S   S23       1.0  0.13714  0.03850  0.71564  1.0000
  H   H80       1.0  0.16672  0.98706  0.58696  1.0000
  Fe  Fe14      1.0  0.09862  0.03236  0.75288  1.0000
  S   S24       1.0  0.09010  0.04988  0.80926  1.0000
  Fe  Fe15      1.0  0.10407  0.04476  0.67086  1.0000
  S   S25       1.0  0.10597  0.07670  0.62700  1.0000
  C   C71       1.0  0.28742  0.29906  0.63353  1.0000
  S   S26       1.0  0.10107  0.00265  0.65421  1.0000
  H   H81       1.0  0.18904  0.04168  0.64979  1.0000
  H   H82       1.0  0.42550  0.98389  0.82580  1.0000
  C   C72       1.0  0.45637  0.98334  0.66498  1.0000
  Fe  Fe16      1.0  0.21255  0.25266  0.53786  1.0000
  S   S27       1.0  0.24308  0.21947  0.54409  1.0000
  S   S28       1.0  0.21732  0.29270  0.56500  1.0000
  Fe  Fe17      1.0  0.20363  0.19360  0.54427  1.0000
  S   S29       1.0  0.20244  0.16095  0.58750  1.0000
  S   S30       1.0  0.17293  0.22724  0.54203  1.0000
  C   C73       1.0  0.05910  0.99328  0.89913  1.0000
  C   C74       1.0  0.04787  0.01835  0.89755  1.0000
  C   C75       1.0  0.05742  0.03567  0.86992  1.0000
  C   C76       1.0  0.07758  0.02779  0.84314  1.0000
  C   C77       1.0  0.08824  0.00253  0.84433  1.0000
  H   H83       1.0  0.99227  0.99331  0.87911  1.0000
  H   H84       1.0  0.03249  0.02462  0.91822  1.0000
  H   H85       1.0  0.04921  0.05523  0.86936  1.0000
  C   C78       1.0  0.24531  0.99065  0.70015  1.0000
  H   H86       1.0  0.15531  0.04055  0.62586  1.0000
  C   C79       1.0  0.17515  0.13788  0.59813  1.0000
  C   C80       1.0  0.14918  0.13666  0.57859  1.0000
  C   C81       1.0  0.12831  0.11787  0.58792  1.0000
  C   C82       1.0  0.13304  0.10013  0.61689  1.0000
  C   C83       1.0  0.15898  0.10138  0.63651  1.0000
  C   C84       1.0  0.17987  0.12012  0.62712  1.0000
  H   H87       1.0  0.14521  0.15016  0.55625  1.0000
  H   H88       1.0  0.10836  0.11711  0.57251  1.0000
  H   H89       1.0  0.16309  0.08791  0.65877  1.0000
  H   H90       1.0  0.19989  0.12087  0.64235  1.0000
  H   H91       1.0  0.00076  0.00358  0.65217  1.0000
  H   H92       1.0  0.02063  0.00082  0.82032  1.0000
  C   C85       1.0  0.21509  0.98981  0.69992  1.0000
  C   C86       1.0  0.17104  0.00618  0.57376  1.0000
  H   H93       1.0  0.25526  0.08760  0.56009  1.0000
  H   H94       1.0  0.33382  0.04524  0.96030  1.0000
  C   C87       1.0  0.24466  0.30470  0.59528  1.0000
  N   N3        1.0  0.47700  0.00639  0.79882  1.0000
  H   H95       1.0  0.33633  0.24435  0.54298  1.0000
  H   H96       1.0  0.30412  0.23538  0.51973  1.0000
  C   C88       1.0  0.44837  0.00439  0.78101  1.0000
  C   C89       1.0  0.26582  0.28863  0.61030  1.0000
  N   N4        1.0  0.19049  0.02246  0.59685  1.0000
  H   H97       1.0  0.26533  0.26813  0.60439  1.0000
  H   H98       1.0  0.20914  0.98741  0.61924  1.0000
  C   C90       1.0  0.23350  0.08003  0.55944  1.0000
  H   H99       1.0  0.41031  0.06435  0.97508  1.0000
  N   N5        1.0  0.09700  0.12478  0.72478  1.0000
  C   C91       1.0  0.09104  0.13662  0.76154  1.0000
  C   C92       1.0  0.06919  0.11550  0.70931  1.0000
  C   C93       1.0  0.11545  0.10177  0.73028  1.0000
  C   C94       1.0  0.11201  0.14369  0.70065  1.0000
  C   C95       1.0  0.10061  0.15225  0.66612  1.0000
  C   C96       1.0  0.13915  0.15394  0.71133  1.0000
  C   C97       1.0  0.11558  0.16995  0.64398  1.0000
  C   C98       1.0  0.15408  0.17134  0.68869  1.0000
  C   C99       1.0  0.14232  0.17932  0.65508  1.0000
  H   H100      1.0  0.07783  0.15443  0.75855  1.0000
  H   H101      1.0  0.07925  0.12298  0.78012  1.0000
  H   H102      1.0  0.11104  0.14204  0.77655  1.0000
  H   H103      1.0  0.05858  0.10121  0.72801  1.0000
  H   H104      1.0  0.07229  0.10542  0.68218  1.0000
  H   H105      1.0  0.05374  0.13166  0.70542  1.0000
  H   H106      1.0  0.13582  0.10638  0.74496  1.0000
  H   H107      1.0  0.10447  0.08669  0.74730  1.0000
  H   H108      1.0  0.12117  0.09296  0.70307  1.0000
  H   H109      1.0  0.08057  0.14508  0.65500  1.0000
  H   H110      1.0  0.14931  0.14824  0.73701  1.0000
  H   H111      1.0  0.10695  0.17570  0.61726  1.0000
  H   H112      1.0  0.17518  0.17835  0.69673  1.0000
  H   H113      1.0  0.15436  0.19219  0.63702  1.0000
  C   C100      1.0  0.22697  0.05653  0.57680  1.0000
  H   H114      1.0  0.22905  0.00175  0.58194  1.0000
  C   C101      1.0  0.39405  0.00126  0.74520  1.0000
  H   H115      1.0  0.25634  0.00881  0.70499  1.0000
  C   C102      1.0  0.42436  0.99231  0.79840  1.0000
  C   C103      1.0  0.19841  0.04658  0.57711  1.0000
  C   C104      1.0  0.17528  0.02941  0.63153  1.0000
  H   H116      1.0  0.18857  0.98159  0.77120  1.0000
  H   H117      1.0  0.46110  0.02410  0.72987  1.0000
  C   C105      1.0  0.41699  0.01349  0.72771  1.0000
  H   H118      1.0  0.20283  0.00723  0.70482  1.0000
  C   C106      1.0  0.17699  0.06184  0.55960  1.0000
  S   S31       1.0  0.39930  0.98287  0.93121  1.0000
  C   C107      1.0  0.98640  0.98805  0.66004  1.0000
  H   H119      1.0  0.14947  0.01500  0.56998  1.0000
  H   H120      1.0  0.40994  0.02998  0.97223  1.0000
  H   H121      1.0  0.36832  0.98331  0.86266  1.0000
  H   H122      1.0  0.36531  0.03143  0.94026  1.0000
  S   S32       1.0  0.46772  0.00844  0.97141  1.0000
  H   H123      1.0  0.16894  0.01187  0.64749  1.0000
  H   H124      1.0  0.18957  0.99283  0.81848  1.0000
  C   C108      1.0  0.21572  0.00625  0.60678  1.0000
  H   H125      1.0  0.30231  0.25352  0.56232  1.0000
  H   H126      1.0  0.30375  0.28645  0.64482  1.0000
  C   C109      1.0  0.44381  0.01494  0.74511  1.0000
  H   H127      1.0  0.18048  0.00261  0.54582  1.0000
  H   H128      1.0  0.46860  0.04466  0.81975  1.0000
  C   C110      1.0  0.18392  0.08498  0.54167  1.0000
  C   C111      1.0  0.40302  0.04659  0.98975  1.0000
  C   C112      1.0  0.21204  0.09420  0.54190  1.0000
  H   H129      1.0  0.10404  0.99636  0.82425  1.0000
  H   H130      1.0  0.15450  0.05660  0.56071  1.0000
  C   C113      1.0  0.07935  0.98551  0.87248  1.0000
  H   H131      1.0  0.46340  0.00376  0.85616  1.0000
  H   H132      1.0  0.36820  0.27723  0.54750  1.0000
  H   H133      1.0  0.21702  0.11277  0.52939  1.0000
  C   C114      1.0  0.17899  0.97891  0.79916  1.0000
  H   H134      1.0  0.24459  0.04681  0.59031  1.0000
  H   H135      1.0  0.41416  0.02145  0.70011  1.0000
  C   C115      1.0  0.39771  0.99082  0.78047  1.0000
  S   S33       1.0  0.09700  0.98991  0.74290  1.0000
  C   C116      1.0  0.35755  0.04738  0.95863  1.0000
  H   H136      1.0  0.36222  0.06605  0.94445  1.0000
  H   H137      1.0  0.37341  0.99971  0.73128  1.0000
  C   C117      1.0  0.31447  0.25130  0.53589  1.0000
  H   H138      1.0  0.16716  0.09644  0.52881  1.0000
  H   H139      1.0  0.22955  0.01569  0.62811  1.0000
  H   H140      1.0  0.27020  0.28325  0.52677  1.0000
  H   H141      1.0  0.15608  0.98480  0.79609  1.0000
  C   C118      1.0  0.01562  0.98023  0.81374  1.0000
  C   C119      1.0  0.35549  0.29432  0.55270  1.0000
  C   C120      1.0  0.32734  0.29685  0.53787  1.0000
  H   H142      1.0  0.37969  0.98145  0.79386  1.0000
  N   N6        1.0  0.37143  0.04647  0.99570  1.0000
  H   H143      1.0  0.01815  0.97766  0.78324  1.0000
  H   H144      1.0  0.37289  0.00469  0.99839  1.0000
  N   N7        1.0  0.31485  0.27592  0.51473  1.0000
  H   H145      1.0  0.34307  0.59884  0.26418  1.0000
  H   H146      1.0  0.43041  0.53715  0.17095  1.0000
  S   S34       1.0  0.42756  0.48120  0.04976  1.0000
  C   C121      1.0  0.38576  0.52797  0.17957  1.0000
  H   H147      1.0  0.12117  0.48168  0.07102  1.0000
  C   C122      1.0  0.04198  0.33890  0.11598  1.0000
  C   C123      1.0  0.02141  0.34624  0.14232  1.0000
  C   C124      1.0  0.00012  0.36464  0.13313  1.0000
  C   C125      1.0  0.99927  0.37618  0.09772  1.0000
  C   C126      1.0  0.01938  0.36836  0.07113  1.0000
  C   C127      1.0  0.04041  0.34972  0.08014  1.0000
  H   H148      1.0  0.02224  0.33813  0.16998  1.0000
  N   N8        1.0  0.32826  0.56976  0.22513  1.0000
  H   H149      1.0  0.01867  0.37660  0.04355  1.0000
  H   H150      1.0  0.05582  0.34388  0.05928  1.0000
  S   S35       1.0  0.00065  0.46513  0.04874  1.0000
  H   H151      1.0  0.33488  0.55246  0.27859  1.0000
  H   H152      1.0  0.00399  0.61085  0.08177  1.0000
  H   H153      1.0  0.30689  0.60299  0.24952  1.0000
  S   S36       1.0  0.35050  0.61824  0.14105  1.0000
  C   C128      1.0  0.40839  0.56727  0.20081  1.0000
  H   H154      1.0  0.28574  0.57733  0.20337  1.0000
  H   H155      1.0  0.45404  0.59938  0.12301  1.0000
  C   C129      1.0  0.42738  0.57014  0.09755  1.0000
  C   C130      1.0  0.39900  0.56241  0.09081  1.0000
  C   C131      1.0  0.37586  0.57746  0.10416  1.0000
  C   C132      1.0  0.38070  0.60040  0.12443  1.0000
  C   C133      1.0  0.40907  0.60824  0.13099  1.0000
  C   C134      1.0  0.43221  0.59318  0.11764  1.0000
  H   H156      1.0  0.39488  0.54477  0.07547  1.0000
  H   H157      1.0  0.35406  0.57121  0.09880  1.0000
  H   H158      1.0  0.41320  0.62584  0.14639  1.0000
  S   S37       1.0  0.45749  0.55153  0.08251  1.0000
  C   C135      1.0  0.30666  0.56878  0.19477  1.0000
  H   H159      1.0  0.31427  0.57988  0.17013  1.0000
  H   H160      1.0  0.31604  0.53218  0.24616  1.0000
  H   H161      1.0  0.38727  0.50955  0.16524  1.0000
  C   C136      1.0  0.35939  0.53647  0.19368  1.0000
  C   C137      1.0  0.38206  0.57616  0.21455  1.0000
  C   C138      1.0  0.31882  0.55251  0.25562  1.0000
  C   C139      1.0  0.08992  0.45896  0.04164  1.0000
  C   C140      1.0  0.41018  0.54339  0.18300  1.0000
  C   C141      1.0  0.35660  0.56103  0.21110  1.0000
  H   H162      1.0  0.29789  0.55885  0.26757  1.0000
  C   C142      1.0  0.32852  0.59664  0.23982  1.0000
  H   H163      1.0  0.30201  0.54878  0.18525  1.0000
  H   H164      1.0  0.38213  0.59527  0.22666  1.0000
  C   C143      1.0  0.07535  0.43546  0.03982  1.0000
  Fe  Fe18      1.0  0.45903  0.51419  0.04790  1.0000
  H   H165      1.0  0.33515  0.61052  0.21790  1.0000
  S   S38       1.0  0.46903  0.42425  0.09902  1.0000
  H   H166      1.0  0.42734  0.57946  0.20254  1.0000
  H   H167      1.0  0.34112  0.52379  0.19030  1.0000
  N   N9        1.0  0.10573  0.39919  0.12297  1.0000
  C   C144      1.0  0.11411  0.37482  0.10396  1.0000
  C   C145      1.0  0.12866  0.40531  0.15036  1.0000
  C   C146      1.0  0.07880  0.39467  0.14405  1.0000
  C   C147      1.0  0.10094  0.41987  0.09518  1.0000
  C   C148      1.0  0.08070  0.41621  0.06609  1.0000
  C   C149      1.0  0.11548  0.44412  0.09630  1.0000
  H   H168      1.0  0.43085  0.31539  0.15271  1.0000
  H   H169      1.0  0.05968  0.43225  0.01791  1.0000
  C   C150      1.0  0.10995  0.46328  0.06978  1.0000
  H   H170      1.0  0.13348  0.37766  0.08631  1.0000
  H   H171      1.0  0.11876  0.35899  0.12409  1.0000
  H   H172      1.0  0.09680  0.36703  0.08594  1.0000
  H   H173      1.0  0.14972  0.40853  0.13641  1.0000
  H   H174      1.0  0.13178  0.38912  0.17042  1.0000
  H   H175      1.0  0.12319  0.42263  0.16732  1.0000
  H   H176      1.0  0.06041  0.39004  0.12559  1.0000
  H   H177      1.0  0.08082  0.37801  0.16355  1.0000
  H   H178      1.0  0.07247  0.41208  0.16029  1.0000
  H   H179      1.0  0.06865  0.39844  0.06352  1.0000
  H   H180      1.0  0.13116  0.44882  0.11734  1.0000
  H   H181      1.0  0.98445  0.37020  0.15382  1.0000
  H   H182      1.0  0.08554  0.47381  0.02113  1.0000
  S   S39       1.0  0.07200  0.31901  0.12746  1.0000
  H   H183      1.0  0.46703  0.32837  0.11456  1.0000
  Fe  Fe19      1.0  0.46654  0.45496  0.05303  1.0000
  H   H184      1.0  0.98860  0.57304  0.04440  1.0000
  C   C151      1.0  0.98172  0.60906  0.07326  1.0000
  H   H185      1.0  0.47591  0.32219  0.17976  1.0000
  Fe  Fe20      1.0  0.32834  0.37817  0.69233  1.0000
  S   S40       1.0  0.34040  0.41295  0.65784  1.0000
  S   S41       1.0  0.31663  0.33771  0.67069  1.0000
  Fe  Fe21      1.0  0.34671  0.40578  0.76545  1.0000
  S   S42       1.0  0.35917  0.44224  0.73628  1.0000
  S   S43       1.0  0.35405  0.39903  0.82700  1.0000
  Fe  Fe22      1.0  0.31855  0.43569  0.70345  1.0000
  S   S44       1.0  0.29109  0.47124  0.69432  1.0000
  Fe  Fe23      1.0  0.37991  0.41645  0.69399  1.0000
  S   S45       1.0  0.42697  0.41914  0.67713  1.0000
  S   S46       1.0  0.30431  0.40080  0.73600  1.0000
  S   S47       1.0  0.36959  0.38005  0.72512  1.0000
  Fe  Fe24      1.0  0.43351  0.47900  0.98754  1.0000
  S   S48       1.0  0.39843  0.48240  0.94370  1.0000
  C   C152      1.0  0.30013  0.43872  0.88875  1.0000
  C   C153      1.0  0.25436  0.47028  0.70638  1.0000
  C   C154      1.0  0.21152  0.44662  0.72456  1.0000
  C   C155      1.0  0.24055  0.44683  0.71393  1.0000
  H   H186      1.0  0.20104  0.42840  0.73061  1.0000
  H   H187      1.0  0.25217  0.42884  0.71137  1.0000
  C   C156      1.0  0.44745  0.44788  0.68165  1.0000
  C   C157      1.0  0.45300  0.53024  0.85652  1.0000
  C   C158      1.0  0.24828  0.46360  0.82302  1.0000
  H   H188      1.0  0.31442  0.51141  0.90841  1.0000
  H   H189      1.0  0.22480  0.44840  0.58795  1.0000
  C   C159      1.0  0.36817  0.42239  0.85807  1.0000
  C   C160      1.0  0.36893  0.44873  0.84924  1.0000
  C   C161      1.0  0.37892  0.46682  0.87552  1.0000
  C   C162      1.0  0.38899  0.45873  0.91040  1.0000
  C   C163      1.0  0.38922  0.43233  0.91875  1.0000
  C   C164      1.0  0.37848  0.41428  0.89284  1.0000
  H   H190      1.0  0.36134  0.45530  0.82257  1.0000
  H   H191      1.0  0.37846  0.48724  0.86902  1.0000
  H   H192      1.0  0.39665  0.42593  0.94568  1.0000
  H   H193      1.0  0.37796  0.39395  0.89992  1.0000
  C   C165      1.0  0.28812  0.32564  0.64231  1.0000
  C   C166      1.0  0.26678  0.34168  0.62757  1.0000
  C   C167      1.0  0.24525  0.33125  0.60419  1.0000
  H   H194      1.0  0.26699  0.36213  0.63398  1.0000
  H   H195      1.0  0.22895  0.34386  0.59284  1.0000
  Fe  Fe25      1.0  0.06445  0.49469  0.69829  1.0000
  S   S49       1.0  0.05621  0.53676  0.70885  1.0000
  S   S50       1.0  0.03468  0.46153  0.68258  1.0000
  Fe  Fe26      1.0  0.12625  0.49836  0.72869  1.0000
  S   S51       1.0  0.12261  0.54084  0.74249  1.0000
  S   S52       1.0  0.16013  0.46850  0.74274  1.0000
  Fe  Fe27      1.0  0.07830  0.53035  0.76369  1.0000
  S   S53       1.0  0.05529  0.54323  0.81607  1.0000
  Fe  Fe28      1.0  0.10103  0.54393  0.68638  1.0000
  S   S54       1.0  0.10717  0.57428  0.64051  1.0000
  S   S55       1.0  0.08382  0.48816  0.75417  1.0000
  S   S56       1.0  0.10744  0.50177  0.67152  1.0000
  H   H196      1.0  0.45147  0.46384  0.90112  1.0000
  Fe  Fe29      1.0  0.00267  0.46540  0.98634  1.0000
  S   S57       1.0  0.04460  0.46723  0.95426  1.0000
  C   C168      1.0  0.04794  0.48896  0.91662  1.0000
  C   C169      1.0  0.03101  0.51122  0.91420  1.0000
  C   C170      1.0  0.03413  0.52808  0.88380  1.0000
  C   C171      1.0  0.05354  0.52245  0.85503  1.0000
  C   C172      1.0  0.07051  0.50020  0.85750  1.0000
  C   C173      1.0  0.06799  0.48374  0.88845  1.0000
  H   H197      1.0  0.01579  0.51564  0.93597  1.0000
  H   H198      1.0  0.02114  0.54539  0.88233  1.0000
  H   H199      1.0  0.08591  0.49589  0.83591  1.0000
  H   H200      1.0  0.08146  0.46677  0.89043  1.0000
  H   H201      1.0  0.32237  0.43212  0.94044  1.0000
  C   C174      1.0  0.13146  0.61261  0.59776  1.0000
  C   C175      1.0  0.13381  0.59816  0.63073  1.0000
  C   C176      1.0  0.15766  0.60237  0.65371  1.0000
  H   H202      1.0  0.23628  0.45717  0.79782  1.0000
  H   H203      1.0  0.11313  0.60958  0.57975  1.0000
  H   H204      1.0  0.15968  0.59174  0.67942  1.0000
  C   C177      1.0  0.23887  0.49348  0.70926  1.0000
  C   C178      1.0  0.20974  0.49326  0.71972  1.0000
  C   C179      1.0  0.19599  0.46978  0.72729  1.0000
  H   H205      1.0  0.24957  0.51169  0.70389  1.0000
  H   H206      1.0  0.19819  0.51123  0.72308  1.0000
  C   C180      1.0  0.43437  0.47184  0.68765  1.0000
  H   H207      1.0  0.10396  0.43987  0.82853  1.0000
  C   C181      1.0  0.32499  0.33948  0.56806  1.0000
  H   H208      1.0  0.41119  0.47311  0.68908  1.0000
  C   C182      1.0  0.45433  0.55686  0.91185  1.0000
  N   N10       1.0  0.09175  0.40525  0.70953  1.0000
  C   C183      1.0  0.10637  0.42681  0.69005  1.0000
  C   C184      1.0  0.11294  0.38429  0.71604  1.0000
  C   C185      1.0  0.06929  0.39480  0.68421  1.0000
  C   C186      1.0  0.08027  0.41464  0.74553  1.0000
  C   C187      1.0  0.05037  0.41522  0.75386  1.0000
  C   C188      1.0  0.09926  0.42385  0.77351  1.0000
  C   C189      1.0  0.04041  0.42379  0.78843  1.0000
  C   C190      1.0  0.08904  0.43250  0.80789  1.0000
  C   C191      1.0  0.05968  0.43235  0.81540  1.0000
  H   H209      1.0  0.12555  0.43382  0.70537  1.0000
  H   H210      1.0  0.11390  0.42108  0.66189  1.0000
  H   H211      1.0  0.09174  0.44364  0.68677  1.0000
  H   H212      1.0  0.12101  0.37592  0.68949  1.0000
  H   H213      1.0  0.10324  0.36832  0.73258  1.0000
  H   H214      1.0  0.13230  0.39125  0.73123  1.0000
  H   H215      1.0  0.05365  0.41003  0.67600  1.0000
  H   H216      1.0  0.07864  0.38740  0.65778  1.0000
  H   H217      1.0  0.05737  0.37847  0.69719  1.0000
  H   H218      1.0  0.03417  0.40962  0.73393  1.0000
  H   H219      1.0  0.12217  0.42504  0.76871  1.0000
  H   H220      1.0  0.01755  0.42403  0.79421  1.0000
  N   N11       1.0  0.18416  0.53023  0.61026  1.0000
  C   C192      1.0  0.19190  0.55550  0.59323  1.0000
  C   C193      1.0  0.15753  0.52094  0.59162  1.0000
  C   C194      1.0  0.20846  0.51188  0.60745  1.0000
  C   C195      1.0  0.23644  0.51950  0.61890  1.0000
  C   C196      1.0  0.20487  0.48568  0.59609  1.0000
  C   C197      1.0  0.25942  0.50214  0.61844  1.0000
  C   C198      1.0  0.22801  0.46842  0.59605  1.0000
  C   C199      1.0  0.25519  0.47663  0.60725  1.0000
  H   H221      1.0  0.20777  0.56664  0.60995  1.0000
  H   H222      1.0  0.17298  0.56853  0.59068  1.0000
  H   H223      1.0  0.20085  0.55283  0.56482  1.0000
  H   H224      1.0  0.14852  0.50346  0.60535  1.0000
  H   H225      1.0  0.14001  0.53565  0.59300  1.0000
  H   H226      1.0  0.16144  0.51666  0.56175  1.0000
  H   H227      1.0  0.24065  0.53872  0.62943  1.0000
  H   H228      1.0  0.18434  0.47789  0.58771  1.0000
  H   H229      1.0  0.25116  0.48480  0.81964  1.0000
  H   H230      1.0  0.25845  0.41667  0.79782  1.0000
  C   C200      1.0  0.99307  0.46584  0.84959  1.0000
  C   C201      1.0  0.17910  0.62034  0.64331  1.0000
  H   H231      1.0  0.28525  0.45128  0.76864  1.0000
  H   H232      1.0  0.42823  0.37707  0.79198  1.0000
  C   C202      1.0  0.98409  0.48832  0.67063  1.0000
  H   H233      1.0  0.15865  0.54711  0.65392  1.0000
  H   H234      1.0  0.02367  0.49232  0.79509  1.0000
  C   C203      1.0  0.31909  0.47261  0.92840  1.0000
  C   C204      1.0  0.29497  0.45673  0.79571  1.0000
  H   H235      1.0  0.17230  0.51554  0.66388  1.0000
  C   C205      1.0  0.99704  0.46452  0.67802  1.0000
  H   H236      1.0  0.28965  0.49869  0.85133  1.0000
  C   C206      1.0  0.45128  0.49438  0.69028  1.0000
  C   C207      1.0  0.44404  0.53525  0.89286  1.0000
  H   H237      1.0  0.00794  0.48122  0.85600  1.0000
  H   H238      1.0  0.42120  0.39572  0.83216  1.0000
  C   C208      1.0  0.29571  0.48363  0.87053  1.0000
  C   C209      1.0  0.31242  0.32017  0.54612  1.0000
  H   H239      1.0  0.99108  0.51787  0.83271  1.0000
  N   N12       1.0  0.45040  0.41387  0.79297  1.0000
  H   H240      1.0  0.41495  0.41627  0.75483  1.0000
  C   C210      1.0  0.26982  0.42154  0.82419  1.0000
  H   H241      1.0  0.42913  0.52224  0.90655  1.0000
  H   H242      1.0  0.31295  0.35675  0.57507  1.0000
  H   H243      1.0  0.44086  0.51294  0.69328  1.0000
  C   C211      1.0  0.43846  0.39076  0.81202  1.0000
  C   C212      1.0  0.15273  0.63078  0.58757  1.0000
  H   H244      1.0  0.45731  0.39197  0.74248  1.0000
  S   S58       1.0  0.46283  0.51371  0.98555  1.0000
  H   H245      1.0  0.27294  0.46306  0.60828  1.0000
  H   H246      1.0  0.25595  0.41480  0.84742  1.0000
  H   H247      1.0  0.44201  0.52140  0.78200  1.0000
  H   H248      1.0  0.23414  0.46031  0.84752  1.0000
  H   H249      1.0  0.33096  0.47844  0.95301  1.0000
  H   H250      1.0  0.44473  0.51299  0.84323  1.0000
  H   H251      1.0  0.28997  0.40988  0.82393  1.0000
  C   C213      1.0  0.17681  0.63465  0.61018  1.0000
  H   H252      1.0  0.43424  0.44600  0.76139  1.0000
  H   H253      1.0  0.31592  0.44656  0.79780  1.0000
  H   H254      1.0  0.36140  0.35070  0.60117  1.0000
  C   C214      1.0  0.99157  0.44510  0.87434  1.0000
  C   C215      1.0  0.35236  0.33609  0.58286  1.0000
  H   H255      1.0  0.29815  0.41811  0.88442  1.0000
  H   H256      1.0  0.19578  0.54312  0.66541  1.0000
  H   H257      1.0  0.28047  0.50812  0.62830  1.0000
  N   N13       1.0  0.27601  0.44970  0.82714  1.0000
  H   H258      1.0  0.00821  0.50656  0.75472  1.0000
  H   H259      1.0  0.05186  0.43921  0.84200  1.0000
  C   C216      1.0  0.30990  0.49115  0.90308  1.0000
  C   C217      1.0  0.17749  0.53423  0.65007  1.0000
  C   C218      1.0  0.42639  0.42830  0.77578  1.0000
  C   C219      1.0  0.46338  0.45695  0.87713  1.0000
  H   H260      1.0  0.00457  0.44523  0.89938  1.0000
  H   H261      1.0  0.40996  0.43429  0.79637  1.0000
  H   H262      1.0  0.29942  0.47784  0.79430  1.0000
  C   C220      1.0  0.31420  0.44649  0.92126  1.0000
  C   C221      1.0  0.29023  0.45716  0.86241  1.0000
  C   C222      1.0  0.46927  0.40452  0.76251  1.0000
  H   H263      1.0  0.99720  0.50553  0.66781  1.0000
  C   C223      1.0  0.36765  0.31361  0.57507  1.0000
  H   H264      1.0  0.44736  0.56063  0.94009  1.0000
  H   H265      1.0  0.98967  0.42377  0.68672  1.0000
  C   C224      1.0  0.00608  0.49007  0.77439  1.0000
  C   C225      1.0  0.46528  0.43090  0.82000  1.0000
  H   H266      1.0  0.01033  0.47200  0.75846  1.0000
  C   C226      1.0  0.45035  0.44033  0.85155  1.0000
  H   H267      1.0  0.29069  0.32374  0.53696  1.0000
  H   H268      1.0  0.15059  0.64162  0.56204  1.0000
  H   H269      1.0  0.42834  0.43494  0.85657  1.0000
  H   H270      1.0  0.19748  0.62336  0.66121  1.0000
  S   S59       1.0  0.46943  0.45001  0.99081  1.0000
  C   C227      1.0  0.47229  0.54710  0.83782  1.0000
  C   C228      1.0  0.45468  0.53902  0.77535  1.0000
  C   C229      1.0  0.47395  0.57335  0.89477  1.0000
  H   H271      1.0  0.46032  0.53730  0.74541  1.0000
  H   H272      1.0  0.45550  0.38016  0.82736  1.0000
  C   C230      1.0  0.97979  0.44227  0.68120  1.0000
  H   H273      1.0  0.44036  0.55611  0.77834  1.0000
  H   H274      1.0  0.38885  0.31102  0.58696  1.0000
  H   H275      1.0  0.12488  0.87360  0.45094  1.0000
  H   H276      1.0  0.36372  0.74944  0.18941  1.0000
  H   H277      1.0  0.46801  0.96269  0.10408  1.0000
  H   H278      1.0  0.01022  0.73676  0.34645  1.0000
  C   C231      1.0  0.41562  0.82381  0.12380  1.0000
  S   S60       1.0  0.32663  0.70893  0.24793  1.0000
  C   C232      1.0  0.43920  0.80798  0.13087  1.0000
  Fe  Fe30      1.0  0.30824  0.70196  0.19126  1.0000
  S   S61       1.0  0.27741  0.73373  0.17269  1.0000
  Fe  Fe31      1.0  0.36961  0.69974  0.22251  1.0000
  S   S62       1.0  0.40385  0.72926  0.23820  1.0000
  Fe  Fe32      1.0  0.10503  0.78798  0.26377  1.0000
  S   S63       1.0  0.09395  0.74702  0.25038  1.0000
  S   S64       1.0  0.13140  0.79770  0.31497  1.0000
  Fe  Fe33      1.0  0.07761  0.80854  0.19102  1.0000
  S   S65       1.0  0.06570  0.76817  0.17206  1.0000
  S   S66       1.0  0.06823  0.84810  0.16420  1.0000
  Fe  Fe34      1.0  0.05122  0.76225  0.23120  1.0000
  S   S67       1.0  0.00992  0.74560  0.25537  1.0000
  Fe  Fe35      1.0  0.10996  0.75656  0.19313  1.0000
  S   S68       1.0  0.14026  0.72604  0.16943  1.0000
  S   S69       1.0  0.06122  0.80295  0.24936  1.0000
  S   S70       1.0  0.12293  0.79719  0.20738  1.0000
  Fe  Fe36      1.0  0.18115  0.71657  0.48575  1.0000
  C   C233      1.0  0.16664  0.81484  0.50002  1.0000
  S   S71       1.0  0.14278  0.71702  0.44683  1.0000
  C   C234      1.0  0.13310  0.78062  0.48597  1.0000
  S   S72       1.0  0.28666  0.71063  0.45700  1.0000
  S   S73       1.0  0.21752  0.74501  0.48375  1.0000
  C   C235      1.0  0.13559  0.77360  0.34924  1.0000
  C   C236      1.0  0.11399  0.75532  0.35587  1.0000
  C   C237      1.0  0.11660  0.73795  0.38572  1.0000
  C   C238      1.0  0.14082  0.73863  0.40900  1.0000
  C   C239      1.0  0.16257  0.75667  0.40198  1.0000
  C   C240      1.0  0.15998  0.77403  0.37218  1.0000
  H   H279      1.0  0.09499  0.75494  0.33855  1.0000
  H   H280      1.0  0.09967  0.72403  0.39100  1.0000
  H   H281      1.0  0.18131  0.75738  0.41962  1.0000
  H   H282      1.0  0.17697  0.78787  0.36700  1.0000
  C   C241      1.0  0.43952  0.72897  0.22158  1.0000
  C   C242      1.0  0.45694  0.75078  0.22780  1.0000
  H   H283      1.0  0.12513  0.76120  0.49114  1.0000
  H   H284      1.0  0.46958  0.86584  0.11664  1.0000
  H   H285      1.0  0.14538  0.70073  0.28599  1.0000
  C   C243      1.0  0.45103  0.70752  0.20321  1.0000
  H   H286      1.0  0.44804  0.76754  0.24167  1.0000
  H   H287      1.0  0.13175  0.85573  0.36947  1.0000
  H   H288      1.0  0.15294  0.71892  0.32694  1.0000
  H   H289      1.0  0.43777  0.69063  0.19826  1.0000
  C   C244      1.0  0.23933  0.73101  0.17260  1.0000
  C   C245      1.0  0.22539  0.70725  0.16744  1.0000
  C   C246      1.0  0.19509  0.70612  0.16588  1.0000
  C   C247      1.0  0.17838  0.72857  0.17036  1.0000
  C   C248      1.0  0.19234  0.75230  0.17563  1.0000
  C   C249      1.0  0.22263  0.75351  0.17639  1.0000
  H   H290      1.0  0.23794  0.68983  0.16388  1.0000
  H   H291      1.0  0.18453  0.68771  0.16135  1.0000
  H   H292      1.0  0.17982  0.76978  0.17862  1.0000
  H   H293      1.0  0.23316  0.77203  0.17991  1.0000
  C   C250      1.0  0.29541  0.66625  0.34677  1.0000
  C   C251      1.0  0.99835  0.69950  0.32488  1.0000
  C   C252      1.0  0.27010  0.67358  0.40537  1.0000
  C   C253      1.0  0.28959  0.69317  0.41481  1.0000
  C   C254      1.0  0.31190  0.69931  0.39002  1.0000
  C   C255      1.0  0.31454  0.68620  0.35588  1.0000
  H   H294      1.0  0.46696  0.94329  0.18033  1.0000
  H   H295      1.0  0.32708  0.71441  0.39705  1.0000
  H   H296      1.0  0.33181  0.69107  0.33701  1.0000
  C   C256      1.0  0.04414  0.86107  0.13033  1.0000
  C   C257      1.0  0.04543  0.88770  0.12220  1.0000
  C   C258      1.0  0.02576  0.89924  0.09735  1.0000
  C   C259      1.0  0.00385  0.88445  0.08117  1.0000
  C   C260      1.0  0.00286  0.85774  0.08874  1.0000
  C   C261      1.0  0.02322  0.84602  0.11245  1.0000
  H   H297      1.0  0.06186  0.89949  0.13518  1.0000
  H   H298      1.0  0.02729  0.91967  0.09120  1.0000
  H   H299      1.0  0.17064  0.75543  0.28824  1.0000
  H   H300      1.0  0.02272  0.82539  0.11679  1.0000
  C   C262      1.0  0.10751  0.86179  0.43814  1.0000
  Fe  Fe37      1.0  0.32229  0.66636  0.25657  1.0000
  H   H301      1.0  0.01986  0.81308  0.18152  1.0000
  H   H302      1.0  0.19080  0.71128  0.36641  1.0000
  H   H303      1.0  0.32840  0.76143  0.19303  1.0000
  H   H304      1.0  0.27418  0.74332  0.38191  1.0000
  H   H305      1.0  0.99781  0.74032  0.17563  1.0000
  C   C263      1.0  0.40707  0.77338  0.14909  1.0000
  C   C264      1.0  0.25682  0.73814  0.36324  1.0000
  C   C265      1.0  0.16260  0.70535  0.30652  1.0000
  H   H306      1.0  0.16075  0.73615  0.24862  1.0000
  H   H307      1.0  0.33641  0.74800  0.46281  1.0000
  S   S74       1.0  0.35165  0.69546  0.16475  1.0000
  N   N14       1.0  0.11856  0.83767  0.42093  1.0000
  C   C266      1.0  0.98011  0.73353  0.23003  1.0000
  C   C267      1.0  0.12098  0.79557  0.45772  1.0000
  C   C268      1.0  0.13128  0.82094  0.44999  1.0000
  C   C269      1.0  0.17851  0.74047  0.26846  1.0000
  N   N15       1.0  0.18820  0.71694  0.28832  1.0000
  N   N16       1.0  0.35325  0.77838  0.14829  1.0000
  H   H308      1.0  0.21664  0.70591  0.24351  1.0000
  C   C270      1.0  0.09426  0.82533  0.40071  1.0000
  H   H309      1.0  0.19596  0.74948  0.25191  1.0000
  H   H310      1.0  0.34870  0.76534  0.09178  1.0000
  H   H311      1.0  0.16806  0.68699  0.32097  1.0000
  H   H312      1.0  0.00558  0.93317  0.15203  1.0000
  C   C271      1.0  0.20944  0.71990  0.35349  1.0000
  H   H313      1.0  0.30839  0.78910  0.14985  1.0000
  S   S75       1.0  0.00702  0.96949  0.03134  1.0000
  C   C272      1.0  0.14084  0.84455  0.39313  1.0000
  H   H314      1.0  0.27963  0.74980  0.31418  1.0000
  H   H315      1.0  0.35820  0.78123  0.20775  1.0000
  H   H316      1.0  0.20763  0.68036  0.27485  1.0000
  C   C273      1.0  0.21153  0.72388  0.31450  1.0000
  H   H317      1.0  0.25842  0.64451  0.36492  1.0000
  S   S76       1.0  0.20911  0.68106  0.48908  1.0000
  C   C274      1.0  0.19902  0.69790  0.26084  1.0000
  S   S77       1.0  0.30116  0.65969  0.20129  1.0000
  H   H318      1.0  0.36411  0.74196  0.12233  1.0000
  H   H319      1.0  0.23000  0.72346  0.40687  1.0000
  C   C275      1.0  0.23182  0.72704  0.37731  1.0000
  H   H320      1.0  0.45329  0.77045  0.14880  1.0000
  H   H321      1.0  0.18183  0.69171  0.24114  1.0000
  C   C276      1.0  0.23751  0.73496  0.30107  1.0000
  C   C277      1.0  0.25980  0.74185  0.32516  1.0000
  Fe  Fe38      1.0  0.34631  0.65333  0.17972  1.0000
  C   C278      1.0  0.32997  0.79783  0.14436  1.0000
  H   H322      1.0  0.24088  0.73820  0.27170  1.0000
  H   H323      1.0  0.40496  0.75363  0.15865  1.0000
  H   H324      1.0  0.33279  0.81405  0.16443  1.0000
  Fe  Fe39      1.0  0.24536  0.70988  0.49044  1.0000
  H   H325      1.0  0.99824  0.94581  0.19698  1.0000
  H   H326      1.0  0.32640  0.74843  0.12470  1.0000
  H   H327      1.0  0.25287  0.66864  0.42423  1.0000
  H   H328      1.0  0.07618  0.82048  0.41970  1.0000
  H   H329      1.0  0.41913  0.84335  0.11375  1.0000
  C   C279      1.0  0.34788  0.75765  0.12060  1.0000
  H   H330      1.0  0.15853  0.85635  0.40509  1.0000
  S   S78       1.0  0.46526  0.91268  0.07389  1.0000
  C   C280      1.0  0.99439  0.72132  0.34697  1.0000
  C   C281      1.0  0.97936  0.73364  0.19117  1.0000
  C   C282      1.0  0.32715  0.76649  0.47337  1.0000
  C   C283      1.0  0.38251  0.78903  0.14254  1.0000
  H   H331      1.0  0.15067  0.82688  0.38098  1.0000
  H   H332      1.0  0.32889  0.80570  0.11566  1.0000
  H   H333      1.0  0.09676  0.87442  0.41734  1.0000
  C   C284      1.0  0.35083  0.76726  0.18617  1.0000
  H   H334      1.0  0.16376  0.84903  0.46757  1.0000
  C   C285      1.0  0.27324  0.65997  0.37170  1.0000
  H   H335      1.0  0.46085  0.81520  0.12646  1.0000
  Fe  Fe40      1.0  0.46743  0.94775  0.03511  1.0000
  H   H336      1.0  0.10119  0.80738  0.38626  1.0000
  H   H337      1.0  0.10391  0.78652  0.44203  1.0000
  H   H338      1.0  0.09160  0.85733  0.46038  1.0000
  C   C286      1.0  0.15461  0.83006  0.47195  1.0000
  C   C287      1.0  0.99922  0.80218  0.18302  1.0000
  H   H339      1.0  0.46242  0.97019  0.23050  1.0000
  H   H340      1.0  0.00362  0.78389  0.19806  1.0000
  C   C288      1.0  0.43491  0.78280  0.14343  1.0000
  H   H341      1.0  0.30444  0.76640  0.46372  1.0000
  S   S79       1.0  0.36698  0.65722  0.23622  1.0000
  H   H342      1.0  0.37041  0.82786  0.12328  1.0000
  C   C289      1.0  0.38762  0.81459  0.12944  1.0000
  H   H343      1.0  0.01714  0.69830  0.30708  1.0000
  H   H344      1.0  0.97935  0.94555  0.09913  1.0000
  H   H345      1.0  0.08549  0.83812  0.37859  1.0000
  H   H346      1.0  0.00758  0.83593  0.23810  1.0000
  H   H347      1.0  0.98138  0.66378  0.30571  1.0000
  H   H348      1.0  0.33842  0.78278  0.45937  1.0000
  S   S80       1.0  0.29948  0.64801  0.30544  1.0000
  H   H349      1.0  0.99195  0.85432  0.18228  1.0000
  H   H350      1.0  0.99355  0.80628  0.25559  1.0000
  H   H351      1.0  0.98638  0.84598  0.07581  1.0000
  H   H352      1.0  0.43828  0.96795  0.13474  1.0000
  C   C290      1.0  0.98802  0.94079  0.16997  1.0000
  H   H353      1.0  0.99319  0.79689  0.15413  1.0000
  C   C291      1.0  0.98762  0.82398  0.23967  1.0000
  H   H354      1.0  0.27545  0.78840  0.50300  1.0000
  C   C292      1.0  0.97765  0.67987  0.32428  1.0000
  C   C293      1.0  0.45909  0.97622  0.12511  1.0000
  Fe  Fe41      1.0  0.32994  0.87383  0.69175  1.0000
  S   S81       1.0  0.34608  0.90863  0.65997  1.0000
  S   S82       1.0  0.32110  0.83420  0.66507  1.0000
  Fe  Fe42      1.0  0.34487  0.89933  0.76757  1.0000
  S   S83       1.0  0.36123  0.93548  0.74115  1.0000
  S   S84       1.0  0.35078  0.89230  0.82924  1.0000
  Fe  Fe43      1.0  0.32260  0.93154  0.70406  1.0000
  H   H355      1.0  0.35632  0.80762  0.55765  1.0000
  Fe  Fe44      1.0  0.38323  0.90968  0.70015  1.0000
  S   S85       1.0  0.43162  0.91020  0.69185  1.0000
  S   S86       1.0  0.30422  0.89681  0.73367  1.0000
  S   S87       1.0  0.36894  0.87342  0.72878  1.0000
  C   C294      1.0  0.42739  0.91514  0.78881  1.0000
  C   C295      1.0  0.98012  0.94607  0.81556  1.0000
  H   H356      1.0  0.22763  0.75688  0.69311  1.0000
  Fe  Fe45      1.0  0.21520  0.74557  0.54605  1.0000
  S   S88       1.0  0.24579  0.71258  0.55290  1.0000
  S   S89       1.0  0.21508  0.78371  0.57806  1.0000
  Fe  Fe46      1.0  0.20653  0.68665  0.55126  1.0000
  H   H357      1.0  0.47328  0.97322  0.83498  1.0000
  S   S90       1.0  0.17584  0.72010  0.54777  1.0000
  H   H358      1.0  0.16220  0.92926  0.85653  1.0000
  H   H359      1.0  0.32041  0.72802  0.52304  1.0000
  H   H360      1.0  0.15909  0.67017  0.75949  1.0000
  H   H361      1.0  0.25942  0.92698  0.68457  1.0000
  N   N17       1.0  0.32953  0.76858  0.51440  1.0000
  C   C296      1.0  0.23319  0.94940  0.79139  1.0000
  C   C297      1.0  0.47002  0.90478  0.82360  1.0000
  H   H362      1.0  0.43970  0.85977  0.83644  1.0000
  C   C298      1.0  0.45181  0.93885  0.68559  1.0000
  S   S91       1.0  0.46806  0.94458  0.97262  1.0000
  H   H363      1.0  0.43921  0.92825  0.76965  1.0000
  C   C299      1.0  0.27106  0.93195  0.82987  1.0000
  H   H364      1.0  0.22864  0.72627  0.71576  1.0000
  C   C300      1.0  0.36417  0.91760  0.85745  1.0000
  C   C301      1.0  0.37838  0.91170  0.89080  1.0000
  C   C302      1.0  0.39015  0.93147  0.91307  1.0000
  C   C303      1.0  0.38659  0.95736  0.90295  1.0000
  C   C304      1.0  0.43925  0.96138  0.67180  1.0000
  C   C305      1.0  0.36082  0.94348  0.84725  1.0000
  H   H365      1.0  0.38052  0.89173  0.89930  1.0000
  H   H366      1.0  0.40125  0.92671  0.93856  1.0000
  C   C306      1.0  0.37162  0.96329  0.87022  1.0000
  H   H367      1.0  0.34917  0.94822  0.82220  1.0000
  C   C307      1.0  0.29067  0.82034  0.64260  1.0000
  C   C308      1.0  0.29280  0.79497  0.62854  1.0000
  C   C309      1.0  0.26979  0.78341  0.60908  1.0000
  C   C310      1.0  0.24431  0.79713  0.60345  1.0000
  C   C311      1.0  0.24189  0.82228  0.61817  1.0000
  C   C312      1.0  0.26496  0.83388  0.63758  1.0000
  H   H368      1.0  0.31258  0.78434  0.63235  1.0000
  H   H369      1.0  0.27183  0.76401  0.59824  1.0000
  H   H370      1.0  0.22221  0.83302  0.61416  1.0000
  H   H371      1.0  0.26298  0.85337  0.64830  1.0000
  C   C313      1.0  0.15911  0.67736  0.73122  1.0000
  H   H372      1.0  0.41619  0.88648  0.84755  1.0000
  H   H373      1.0  0.40862  0.90762  0.77302  1.0000
  H   H374      1.0  0.17098  0.96234  0.86917  1.0000
  C   C314      1.0  0.27815  0.82471  0.53053  1.0000
  H   H375      1.0  0.20620  0.92547  0.68331  1.0000
  C   C315      1.0  0.28956  0.80118  0.51837  1.0000
  H   H376      1.0  0.12793  0.64935  0.71236  1.0000
  C   C316      1.0  0.22230  0.93455  0.85352  1.0000
  C   C317      1.0  0.21380  0.74065  0.70312  1.0000
  H   H377      1.0  0.12810  0.66514  0.64775  1.0000
  C   C318      1.0  0.17932  0.75001  0.65561  1.0000
  H   H378      1.0  0.22728  0.95719  0.76474  1.0000
  H   H379      1.0  0.28954  0.74816  0.52298  1.0000
  H   H380      1.0  0.16521  0.77845  0.52873  1.0000
  H   H381      1.0  0.99526  0.93208  0.82850  1.0000
  H   H382      1.0  0.25590  0.82941  0.52475  1.0000
  H   H383      1.0  0.25845  0.91930  0.88416  1.0000
  H   H384      1.0  0.36326  0.76405  0.55504  1.0000
  H   H385      1.0  0.19961  0.74879  0.72510  1.0000
  H   H386      1.0  0.18265  0.93508  0.75780  1.0000
  H   H387      1.0  0.16908  0.74402  0.62905  1.0000
  H   H388      1.0  0.08818  0.96619  0.87368  1.0000
  H   H389      1.0  0.19027  0.70602  0.74311  1.0000
  S   S92       1.0  0.03098  0.96852  0.70274  1.0000
  S   S93       1.0  0.20454  0.65701  0.59848  1.0000
  H   H390      1.0  0.45647  0.89289  0.87961  1.0000
  N   N18       1.0  0.44562  0.89372  0.80243  1.0000
  C   C319      1.0  0.42714  0.87609  0.82464  1.0000
  C   C320      1.0  0.24717  0.94451  0.68884  1.0000
  H   H391      1.0  0.98453  0.93331  0.71213  1.0000
  H   H392      1.0  0.23232  0.73489  0.63470  1.0000
  H   H393      1.0  0.03259  0.96813  0.82678  1.0000
  H   H394      1.0  0.23036  0.70301  0.65523  1.0000
  C   C321      1.0  0.21738  0.71938  0.64423  1.0000
  C   C322      1.0  0.16325  0.94954  0.84630  1.0000
  H   H395      1.0  0.41655  0.96164  0.66528  1.0000
  H   H396      1.0  0.40939  0.86760  0.80765  1.0000
  H   H397      1.0  0.17104  0.91360  0.79356  1.0000
  C   C323      1.0  0.26204  0.94281  0.79651  1.0000
  C   C324      1.0  0.45618  0.87850  0.77016  1.0000
  H   H398      1.0  0.14752  0.93874  0.77675  1.0000
  H   H399      1.0  0.36802  0.74524  0.51392  1.0000
  C   C325      1.0  0.14145  0.67465  0.66842  1.0000
  C   C326      1.0  0.17772  0.70755  0.68424  1.0000
  C   C327      1.0  0.31822  0.79389  0.52699  1.0000
  C   C328      1.0  0.17702  0.69804  0.72131  1.0000
  H   H400      1.0  0.14059  0.95523  0.84042  1.0000
  H   H401      1.0  0.43814  0.86934  0.75447  1.0000
  H   H402      1.0  0.28565  0.85943  0.56222  1.0000
  C   C329      1.0  0.31247  0.74750  0.53152  1.0000
  C   C330      1.0  0.21706  0.94373  0.68803  1.0000
  C   C331      1.0  0.33463  0.81159  0.54873  1.0000
  H   H403      1.0  0.15925  0.70077  0.62923  1.0000
  C   C332      1.0  0.36015  0.76427  0.52436  1.0000
  H   H404      1.0  0.33542  0.84784  0.57859  1.0000
  H   H405      1.0  0.46748  0.89057  0.74931  1.0000
  S   S94       1.0  0.16335  0.96374  0.69390  1.0000
  C   C333      1.0  0.26138  0.96797  0.69482  1.0000
  H   H406      1.0  0.16200  0.75641  0.67483  1.0000
  C   C334      1.0  0.17020  0.93407  0.78411  1.0000
  C   C335      1.0  0.15936  0.69516  0.65814  1.0000
  N   N19       1.0  0.19676  0.72903  0.67237  1.0000
  H   H407      1.0  0.41888  0.92697  0.81222  1.0000
  H   H408      1.0  0.19268  0.76728  0.64873  1.0000
  C   C336      1.0  0.14143  0.66566  0.70481  1.0000
  C   C337      1.0  0.29482  0.84161  0.55167  1.0000
  H   H409      1.0  0.20635  0.71194  0.61907  1.0000
  H   H410      1.0  0.00393  0.96050  0.87979  1.0000
  C   C338      1.0  0.32295  0.83506  0.56078  1.0000
  H   H411      1.0  0.31319  0.74865  0.56238  1.0000
  Fe  Fe47      1.0  0.00862  0.97257  0.96889  1.0000
  C   C339      1.0  0.21237  0.94558  0.81969  1.0000
  H   H412      1.0  0.29342  0.92647  0.83355  1.0000
  C   C340      1.0  0.99603  0.96854  0.68377  1.0000
  C   C341      1.0  0.25126  0.92789  0.85832  1.0000
  H   H413      1.0  0.20816  0.93067  0.87661  1.0000
  N   N20       1.0  0.18174  0.95191  0.81280  1.0000
  H   H414      1.0  0.27744  0.94590  0.77424  1.0000
  S   S95       1.0  0.04944  0.97114  0.93436  1.0000
  S   S96       1.0  0.29908  0.96934  0.69588  1.0000
  H   H415      1.0  0.37430  0.77940  0.51208  1.0000
  S   S97       1.0  0.97954  0.93836  0.95966  1.0000
  C   C342      1.0  0.20097  0.96629  0.69368  1.0000
  C   C343      1.0  0.47239  0.90266  0.86288  1.0000
  H   H416      1.0  0.47113  0.86296  0.77914  1.0000
  H   H417      1.0  0.18448  0.82203  0.51656  1.0000
  H   H418      1.0  0.98194  0.94340  0.78499  1.0000
  N   N21       1.0  0.98649  0.97305  0.82713  1.0000
  C   C344      1.0  0.98716  0.97362  0.86838  1.0000
  C   C345      1.0  0.15582  0.79022  0.50704  1.0000
  Fe  Fe48      1.0  0.43524  0.97624  0.97262  1.0000
  Fe  Fe49      1.0  0.57926  0.30830  0.17364  1.0000
  H   H419      1.0  0.88759  0.00518  0.23391  1.0000
  N   N22       1.0  0.62624  0.14937  0.48369  1.0000
  Fe  Fe50      1.0  0.85007  0.12190  0.18175  1.0000
  S   S98       1.0  0.83576  0.15807  0.15220  1.0000
  S   S99       1.0  0.85814  0.08576  0.14595  1.0000
  Fe  Fe51      1.0  0.84003  0.14762  0.25885  1.0000
  S   S100      1.0  0.82642  0.18525  0.23391  1.0000
  S   S101      1.0  0.83934  0.14179  0.32139  1.0000
  Fe  Fe52      1.0  0.80034  0.16104  0.19475  1.0000
  S   S102      1.0  0.75175  0.16502  0.19147  1.0000
  Fe  Fe53      1.0  0.86326  0.17865  0.19461  1.0000
  S   S103      1.0  0.89248  0.21184  0.17816  1.0000
  S   S104      1.0  0.81252  0.12333  0.22136  1.0000
  S   S105      1.0  0.87911  0.14245  0.22238  1.0000
  C   C346      1.0  0.93751  0.23351  0.28818  1.0000
  S   S106      1.0  0.61199  0.24844  0.22716  1.0000
  H   H420      1.0  0.51051  0.26046  0.15197  1.0000
  S   S107      1.0  0.58954  0.27009  0.14691  1.0000
  Fe  Fe54      1.0  0.56965  0.25191  0.19717  1.0000
  S   S108      1.0  0.54180  0.21693  0.18451  1.0000
  Fe  Fe55      1.0  0.63080  0.26996  0.17903  1.0000
  S   S109      1.0  0.67378  0.26133  0.15193  1.0000
  H   H421      1.0  0.87992  0.16044  0.08165  1.0000
  H   H422      1.0  0.87880  0.22094  0.29612  1.0000
  Fe  Fe56      1.0  0.68562  0.22327  0.47431  1.0000
  S   S110      1.0  0.71584  0.18964  0.47071  1.0000
  S   S111      1.0  0.64932  0.21875  0.43251  1.0000
  Fe  Fe57      1.0  0.75075  0.21936  0.47401  1.0000
  S   S112      1.0  0.78486  0.22564  0.43000  1.0000
  S   S113      1.0  0.72040  0.25318  0.47447  1.0000
  C   C347      1.0  0.62632  0.27677  0.34063  1.0000
  C   C348      1.0  0.61915  0.25059  0.33711  1.0000
  C   C349      1.0  0.62656  0.23302  0.36537  1.0000
  C   C350      1.0  0.64180  0.24132  0.39693  1.0000
  C   C351      1.0  0.64978  0.26734  0.39995  1.0000
  C   C352      1.0  0.64169  0.28502  0.37214  1.0000
  H   H423      1.0  0.60697  0.24405  0.31328  1.0000
  H   H424      1.0  0.62009  0.21298  0.36293  1.0000
  H   H425      1.0  0.66113  0.27401  0.42439  1.0000
  H   H426      1.0  0.49112  0.29264  0.19694  1.0000
  C   C353      1.0  0.92891  0.21197  0.19203  1.0000
  C   C354      1.0  0.94643  0.23331  0.18351  1.0000
  H   H427      1.0  0.59376  0.21387  0.14386  1.0000
  C   C355      1.0  0.50609  0.21569  0.20100  1.0000
  C   C356      1.0  0.70007  0.14335  0.12753  1.0000
  C   C357      1.0  0.94080  0.19090  0.21072  1.0000
  H   H428      1.0  0.93747  0.24963  0.16877  1.0000
  H   H429      1.0  0.50885  0.25088  0.23285  1.0000
  H   H430      1.0  0.66583  0.19975  0.11269  1.0000
  H   H431      1.0  0.92781  0.17423  0.21693  1.0000
  C   C358      1.0  0.73257  0.19412  0.18503  1.0000
  C   C359      1.0  0.70513  0.19652  0.20100  1.0000
  C   C360      1.0  0.68771  0.21802  0.19308  1.0000
  C   C361      1.0  0.69699  0.23661  0.16762  1.0000
  C   C362      1.0  0.72466  0.23453  0.15229  1.0000
  C   C363      1.0  0.74260  0.21356  0.16140  1.0000
  H   H432      1.0  0.69706  0.18133  0.21883  1.0000
  H   H433      1.0  0.66669  0.21972  0.20542  1.0000
  H   H434      1.0  0.73202  0.24889  0.13263  1.0000
  H   H435      1.0  0.76355  0.21176  0.14863  1.0000
  C   C364      1.0  0.82215  0.16463  0.35071  1.0000
  C   C365      1.0  0.81565  0.15792  0.38759  1.0000
  C   C366      1.0  0.80297  0.17605  0.41189  1.0000
  C   C367      1.0  0.79764  0.20128  0.39976  1.0000
  C   C368      1.0  0.80451  0.20805  0.36312  1.0000
  C   C369      1.0  0.81607  0.18971  0.33850  1.0000
  H   H436      1.0  0.82040  0.13863  0.39741  1.0000
  H   H437      1.0  0.79820  0.17074  0.44028  1.0000
  H   H438      1.0  0.80093  0.22764  0.35376  1.0000
  H   H439      1.0  0.82074  0.19528  0.31037  1.0000
  C   C370      1.0  0.93565  0.04480  0.09088  1.0000
  C   C371      1.0  0.90739  0.03827  0.08133  1.0000
  C   C372      1.0  0.88408  0.05104  0.09848  1.0000
  C   C373      1.0  0.88859  0.07043  0.12543  1.0000
  C   C374      1.0  0.91685  0.07654  0.13555  1.0000
  C   C375      1.0  0.94018  0.06390  0.11825  1.0000
  H   H440      1.0  0.90347  0.02347  0.06064  1.0000
  H   H441      1.0  0.86233  0.04589  0.09071  1.0000
  H   H442      1.0  0.92073  0.09070  0.15707  1.0000
  Fe  Fe58      1.0  0.96837  0.99600  0.02818  1.0000
  N   N23       1.0  0.91138  0.19526  0.31767  1.0000
  C   C376      1.0  0.88774  0.20127  0.29137  1.0000
  C   C377      1.0  0.89967  0.19772  0.35583  1.0000
  C   C378      1.0  0.93675  0.21238  0.31346  1.0000
  H   H443      1.0  0.95292  0.07548  0.01182  1.0000
  H   H444      1.0  0.52117  0.99681  0.16497  1.0000
  C   C379      1.0  0.59994  0.16184  0.46862  1.0000
  H   H445      1.0  0.93383  0.13558  0.14778  1.0000
  H   H446      1.0  0.89317  0.21802  0.36186  1.0000
  H   H447      1.0  0.88034  0.18521  0.35985  1.0000
  C   C380      1.0  0.91148  0.00636  0.18290  1.0000
  H   H448      1.0  0.50234  0.00943  0.12529  1.0000
  H   H449      1.0  0.90226  0.08334  0.02887  1.0000
  N   N24       1.0  0.71848  0.22162  0.32568  1.0000
  C   C381      1.0  0.73701  0.23929  0.30358  1.0000
  C   C382      1.0  0.68978  0.22018  0.30792  1.0000
  C   C383      1.0  0.71486  0.23350  0.36303  1.0000
  C   C384      1.0  0.73112  0.19533  0.32691  1.0000
  C   C385      1.0  0.73422  0.18111  0.36047  1.0000
  C   C386      1.0  0.74001  0.18281  0.29371  1.0000
  C   C387      1.0  0.74615  0.15630  0.36057  1.0000
  C   C388      1.0  0.75220  0.15813  0.29421  1.0000
  C   C389      1.0  0.75542  0.14495  0.32759  1.0000
  H   H450      1.0  0.73739  0.23423  0.27354  1.0000
  H   H451      1.0  0.72930  0.25965  0.30481  1.0000
  H   H452      1.0  0.75955  0.23893  0.31393  1.0000
  H   H453      1.0  0.67518  0.20710  0.32368  1.0000
  H   H454      1.0  0.69106  0.21273  0.27896  1.0000
  H   H455      1.0  0.67928  0.23954  0.30661  1.0000
  H   H456      1.0  0.73574  0.23453  0.37820  1.0000
  H   H457      1.0  0.70620  0.25352  0.36133  1.0000
  H   H458      1.0  0.69919  0.22256  0.38031  1.0000
  H   H459      1.0  0.72835  0.18894  0.38719  1.0000
  H   H460      1.0  0.73790  0.19200  0.26699  1.0000
  C   C390      1.0  0.96169  0.13043  0.06297  1.0000
  H   H461      1.0  0.75952  0.14928  0.26856  1.0000
  C   C391      1.0  0.50654  0.27436  0.12898  1.0000
  H   H462      1.0  0.71171  0.17932  0.10198  1.0000
  S   S114      1.0  0.96597  0.02909  0.07069  1.0000
  C   C392      1.0  0.64577  0.16652  0.14098  1.0000
  H   H463      1.0  0.63111  0.18781  0.20540  1.0000
  H   H464      1.0  0.49644  0.18003  0.17232  1.0000
  C   C393      1.0  0.66799  0.17994  0.12179  1.0000
  H   H465      1.0  0.89932  0.02251  0.17176  1.0000
  H   H466      1.0  0.94113  0.19275  0.12189  1.0000
  S   S115      1.0  0.61553  0.29990  0.30721  1.0000
  C   C394      1.0  0.96187  0.20806  0.33499  1.0000
  H   H467      1.0  0.93051  0.16558  0.28386  1.0000
  H   H468      1.0  0.63142  0.21833  0.15071  1.0000
  C   C395      1.0  0.90488  0.99662  0.21788  1.0000
  C   C396      1.0  0.96219  0.24877  0.28424  1.0000
  H   H469      1.0  0.96635  0.16713  0.12106  1.0000
  C   C397      1.0  0.91979  0.16790  0.31128  1.0000
  C   C398      1.0  0.93373  0.99545  0.16210  1.0000
  N   N25       1.0  0.61764  0.17840  0.14983  1.0000
  H   H470      1.0  0.60525  0.17934  0.45180  1.0000
  H   H471      1.0  0.57272  0.17231  0.13755  1.0000
  H   H472      1.0  0.72122  0.13495  0.12376  1.0000
  H   H473      1.0  0.91967  0.23829  0.27028  1.0000
  C   C399      1.0  0.69465  0.16838  0.11523  1.0000
  H   H474      1.0  0.76570  0.12615  0.32793  1.0000
  C   C400      1.0  0.94728  0.09245  0.02803  1.0000
  H   H475      1.0  0.90912  0.16182  0.15401  1.0000
  H   H476      1.0  0.93806  0.00366  0.13521  1.0000
  Fe  Fe59      1.0  0.60143  0.28797  0.24914  1.0000
  H   H477      1.0  0.74922  0.14617  0.38661  1.0000
  H   H478      1.0  0.90499  0.17871  0.05394  1.0000
  H   H479      1.0  0.59714  0.16270  0.10121  1.0000
  C   C401      1.0  0.59417  0.16346  0.13188  1.0000
  H   H480      1.0  0.90083  0.15466  0.31179  1.0000
  H   H481      1.0  0.88928  0.11953  0.06874  1.0000
  H   H482      1.0  0.70356  0.30471  0.39549  1.0000
  C   C402      1.0  0.94839  0.17591  0.10500  1.0000
  H   H483      1.0  0.58781  0.14840  0.45017  1.0000
  C   C403      1.0  0.91151  0.11791  0.06028  1.0000
  H   H484      1.0  0.93474  0.16057  0.33282  1.0000
  H   H485      1.0  0.61762  0.20726  0.10646  1.0000
  H   H486      1.0  0.89737  0.13272  0.13188  1.0000
  N   N26       1.0  0.48284  0.29250  0.13820  1.0000
  H   H487      1.0  0.63696  0.12861  0.43372  1.0000
  H   H488      1.0  0.52728  0.28477  0.12453  1.0000
  H   H489      1.0  0.89492  0.19973  0.26198  1.0000
  C   C404      1.0  0.61301  0.17821  0.19064  1.0000
  C   C405      1.0  0.93272  0.13557  0.07325  1.0000
  H   H490      1.0  0.63599  0.12937  0.16695  1.0000
  H   H491      1.0  0.95692  0.18386  0.07850  1.0000
  C   C406      1.0  0.91874  0.09692  0.03764  1.0000
  C   C407      1.0  0.97557  0.23371  0.19418  1.0000
  H   H492      1.0  0.64402  0.18702  0.49520  1.0000
  S   S116      1.0  0.55707  0.28998  0.22287  1.0000
  H   H493      1.0  0.58554  0.16883  0.49116  1.0000
  H   H494      1.0  0.86954  0.18751  0.29453  1.0000
  H   H495      1.0  0.61090  0.15834  0.20197  1.0000
  C   C408      1.0  0.96973  0.19137  0.22164  1.0000
  C   C409      1.0  0.67864  0.12951  0.14583  1.0000
  H   H496      1.0  0.96282  0.19260  0.35507  1.0000
  C   C410      1.0  0.65181  0.14080  0.15233  1.0000
  H   H497      1.0  0.59295  0.14323  0.14210  1.0000
  C   C411      1.0  0.61517  0.20562  0.13709  1.0000
  H   H498      1.0  0.96192  0.06889  0.12622  1.0000
  H   H499      1.0  0.59294  0.18854  0.19859  1.0000
  H   H500      1.0  0.96272  0.26420  0.26389  1.0000
  H   H501      1.0  0.68315  0.11013  0.15567  1.0000
  C   C412      1.0  0.50627  0.99165  0.14192  1.0000
  H   H502      1.0  0.64677  0.30531  0.37533  1.0000
  C   C413      1.0  0.49518  0.23510  0.22405  1.0000
  C   C414      1.0  0.64573  0.14420  0.45184  1.0000
  C   C415      1.0  0.90012  0.17193  0.08256  1.0000
  C   C416      1.0  0.49093  0.30619  0.17290  1.0000
  H   H503      1.0  0.91548  0.19189  0.37736  1.0000
  C   C417      1.0  0.48815  0.19511  0.19018  1.0000
  C   C418      1.0  0.91586  0.14633  0.13453  1.0000
  H   H504      1.0  0.89488  0.18926  0.09982  1.0000
  H   H505      1.0  0.71819  0.30879  0.46031  1.0000
  N   N27       1.0  0.92464  0.15716  0.09825  1.0000
  S   S117      1.0  0.50208  0.97807  0.03758  1.0000
  H   H506      1.0  0.50195  0.26332  0.10310  1.0000
  H   H507      1.0  0.64893  0.16178  0.43440  1.0000
  H   H508      1.0  0.66766  0.13846  0.46079  1.0000
  C   C419      1.0  0.96869  0.10913  0.04070  1.0000
  N   N28       1.0  0.47929  0.98003  0.15644  1.0000
  H   H509      1.0  0.51782  0.97813  0.12296  1.0000
  Fe  Fe60      1.0  0.55204  0.01728  0.68495  1.0000
  S   S118      1.0  0.55961  0.05702  0.70741  1.0000
  S   S119      1.0  0.50606  0.01178  0.66554  1.0000
  Fe  Fe61      1.0  0.61326  0.00178  0.70283  1.0000
  S   S120      1.0  0.62536  0.04045  0.72750  1.0000
  H   H510      1.0  0.95082  0.00213  0.62729  1.0000
  Fe  Fe62      1.0  0.58194  0.03793  0.75479  1.0000
  S   S121      1.0  0.57012  0.05404  0.81117  1.0000
  Fe  Fe63      1.0  0.60220  0.05701  0.67783  1.0000
  S   S122      1.0  0.61022  0.09658  0.65097  1.0000
  S   S123      1.0  0.57159  0.99807  0.73449  1.0000
  S   S124      1.0  0.59283  0.01834  0.65106  1.0000
  H   H511      1.0  0.50198  0.00369  0.74815  1.0000
  H   H512      1.0  0.88306  0.28204  0.72894  1.0000
  H   H513      1.0  0.60702  0.06333  0.56507  1.0000
  Fe  Fe64      1.0  0.72124  0.24910  0.53673  1.0000
  S   S125      1.0  0.75403  0.21720  0.53653  1.0000
  S   S126      1.0  0.72097  0.28363  0.57687  1.0000
  Fe  Fe65      1.0  0.71567  0.19008  0.53331  1.0000
  S   S127      1.0  0.71377  0.15124  0.56398  1.0000
  S   S128      1.0  0.68296  0.22183  0.53692  1.0000
  C   C420      1.0  0.54646  0.99529  0.90156  1.0000
  C   C421      1.0  0.53696  0.02090  0.90409  1.0000
  C   C422      1.0  0.54474  0.03892  0.87656  1.0000
  C   C423      1.0  0.56125  0.03125  0.84580  1.0000
  C   C424      1.0  0.57020  0.00554  0.84291  1.0000
  Fe  Fe66      1.0  0.50040  0.97696  0.97500  1.0000
  H   H514      1.0  0.52427  0.02695  0.92772  1.0000
  H   H515      1.0  0.53780  0.05881  0.87904  1.0000
  H   H516      1.0  0.79063  0.98535  0.86627  1.0000
  C   C425      1.0  0.61064  0.08011  0.54763  1.0000
  C   C426      1.0  0.68523  0.13673  0.58959  1.0000
  C   C427      1.0  0.65990  0.15004  0.59797  1.0000
  C   C428      1.0  0.63731  0.13740  0.61678  1.0000
  C   C429      1.0  0.63984  0.11144  0.62805  1.0000
  C   C430      1.0  0.66549  0.09831  0.62066  1.0000
  C   C431      1.0  0.68802  0.11092  0.60152  1.0000
  H   H517      1.0  0.65775  0.17010  0.59004  1.0000
  H   H518      1.0  0.61769  0.14782  0.62271  1.0000
  H   H519      1.0  0.66783  0.07839  0.62924  1.0000
  H   H520      1.0  0.70761  0.10048  0.59548  1.0000
  C   C432      1.0  0.83570  0.29543  0.68916  1.0000
  H   H521      1.0  0.76418  0.28500  0.66985  1.0000
  H   H522      1.0  0.93926  0.00873  0.72516  1.0000
  H   H523      1.0  0.86927  0.26993  0.66782  1.0000
  H   H524      1.0  0.67799  0.00959  0.68580  1.0000
  C   C433      1.0  0.74974  0.30405  0.59133  1.0000
  C   C434      1.0  0.48585  0.98332  0.67330  1.0000
  H   H525      1.0  0.85368  0.28999  0.75913  1.0000
  C   C435      1.0  0.94105  0.00803  0.75524  1.0000
  C   C436      1.0  0.74626  0.99599  0.78659  1.0000
  H   H526      1.0  0.50605  0.03640  0.81709  1.0000
  C   C437      1.0  0.77772  0.30115  0.57776  1.0000
  H   H527      1.0  0.83694  0.24133  0.63336  1.0000
  C   C438      1.0  0.84651  0.27392  0.66892  1.0000
  S   S129      1.0  0.97328  0.00188  0.96648  1.0000
  N   N29       1.0  0.61544  0.12446  0.76762  1.0000
  C   C439      1.0  0.59399  0.11079  0.74441  1.0000
  C   C440      1.0  0.62542  0.10656  0.79721  1.0000
  C   C441      1.0  0.60066  0.14641  0.78621  1.0000
  C   C442      1.0  0.63978  0.13259  0.74371  1.0000
  C   C443      1.0  0.65870  0.11387  0.72837  1.0000
  C   C444      1.0  0.64440  0.15877  0.73303  1.0000
  C   C445      1.0  0.68116  0.12094  0.70467  1.0000
  C   C446      1.0  0.66672  0.16557  0.70884  1.0000
  C   C447      1.0  0.68504  0.14670  0.69469  1.0000
  H   H528      1.0  0.60343  0.09351  0.73087  1.0000
  H   H529      1.0  0.57525  0.10393  0.76102  1.0000
  H   H530      1.0  0.58594  0.12330  0.72151  1.0000
  H   H531      1.0  0.63239  0.08751  0.78608  1.0000
  H   H532      1.0  0.60789  0.10170  0.81716  1.0000
  H   H533      1.0  0.64359  0.11509  0.81320  1.0000
  H   H534      1.0  0.58966  0.15916  0.76580  1.0000
  H   H535      1.0  0.58344  0.13953  0.80536  1.0000
  H   H536      1.0  0.61602  0.15814  0.80297  1.0000
  H   H537      1.0  0.65563  0.09346  0.73336  1.0000
  H   H538      1.0  0.63074  0.17432  0.74232  1.0000
  H   H539      1.0  0.69490  0.10622  0.69264  1.0000
  H   H540      1.0  0.66953  0.18553  0.70032  1.0000
  H   H541      1.0  0.70179  0.15192  0.67509  1.0000
  C   C448      1.0  0.92236  0.02236  0.77733  1.0000
  H   H542      1.0  0.58321  0.99949  0.81957  1.0000
  H   H543      1.0  0.73107  0.01351  0.68172  1.0000
  H   H544      1.0  0.83029  0.98561  0.79802  1.0000
  C   C449      1.0  0.96205  0.99254  0.77166  1.0000
  H   H545      1.0  0.94563  0.00516  0.86259  1.0000
  C   C450      1.0  0.59214  0.11741  0.51487  1.0000
  C   C451      1.0  0.64035  0.16809  0.50898  1.0000
  C   C452      1.0  0.79860  0.26127  0.64982  1.0000
  H   H546      1.0  0.88473  0.98232  0.84470  1.0000
  H   H547      1.0  0.50020  0.99590  0.84861  1.0000
  H   H548      1.0  0.65648  0.07564  0.54729  1.0000
  H   H549      1.0  0.52037  0.99328  0.78871  1.0000
  C   C453      1.0  0.69143  0.99304  0.69164  1.0000
  C   C454      1.0  0.94545  0.00552  0.83258  1.0000
  C   C455      1.0  0.82819  0.25728  0.64933  1.0000
  H   H550      1.0  0.78442  0.24868  0.63402  1.0000
  H   H551      1.0  0.75998  0.00951  0.77215  1.0000
  C   C456      1.0  0.86987  0.29831  0.73971  1.0000
  H   H552      1.0  0.90605  0.03429  0.76448  1.0000
  H   H553      1.0  0.62697  0.17171  0.53407  1.0000
  H   H554      1.0  0.91002  0.03224  0.83316  1.0000
  C   C457      1.0  0.80702  0.98982  0.79409  1.0000
  C   C458      1.0  0.96479  0.99058  0.81078  1.0000
  H   H555      1.0  0.78251  0.28569  0.55843  1.0000
  C   C459      1.0  0.92466  0.02121  0.81590  1.0000
  C   C460      1.0  0.80534  0.29877  0.68936  1.0000
  C   C461      1.0  0.72145  0.99518  0.68930  1.0000
  C   C462      1.0  0.48492  0.03406  0.80307  1.0000
  C   C463      1.0  0.49885  0.99359  0.77512  1.0000
  C   C464      1.0  0.95812  0.98723  0.64611  1.0000
  H   H556      1.0  0.70868  0.01560  0.76583  1.0000
  H   H557      1.0  0.97608  0.98186  0.75344  1.0000
  C   C465      1.0  0.56325  0.98777  0.87100  1.0000
  C   C466      1.0  0.63849  0.08710  0.53763  1.0000
  H   H558      1.0  0.80294  0.00913  0.80672  1.0000
  C   C467      1.0  0.78721  0.28178  0.67008  1.0000
  H   H559      1.0  0.48710  0.04406  0.77589  1.0000
  H   H560      1.0  0.80370  0.99114  0.76350  1.0000
  C   C468      1.0  0.71665  0.99971  0.78251  1.0000
  S   S130      1.0  0.77651  0.97777  0.69378  1.0000
  H   H561      1.0  0.66557  0.11491  0.51200  1.0000
  C   C469      1.0  0.64342  0.10952  0.51695  1.0000
  H   H562      1.0  0.66169  0.16113  0.51859  1.0000
  H   H563      1.0  0.56595  0.08987  0.54475  1.0000
  C   C470      1.0  0.58753  0.09520  0.53626  1.0000
  C   C471      1.0  0.69720  0.98244  0.79829  1.0000
  H   H564      1.0  0.67429  0.98497  0.79391  1.0000
  H   H565      1.0  0.57327  0.12834  0.50750  1.0000
  C   C472      1.0  0.47834  0.99426  0.83620  1.0000
  H   H566      1.0  0.89267  0.30767  0.67348  1.0000
  C   C473      1.0  0.62037  0.12523  0.50447  1.0000
  C   C474      1.0  0.56966  0.41619  0.15610  1.0000
  S   S131      1.0  0.97256  0.39997  0.08810  1.0000
  S   S132      1.0  0.93128  0.45590  0.03948  1.0000
  H   H567      1.0  0.95377  0.41869  0.16566  1.0000
  S   S133      1.0  0.56363  0.33688  0.12912  1.0000
  C   C475      1.0  0.53686  0.36097  0.12193  1.0000
  C   C476      1.0  0.51872  0.36978  0.15027  1.0000
  C   C477      1.0  0.49791  0.38896  0.14275  1.0000
  C   C478      1.0  0.49516  0.39975  0.10701  1.0000
  C   C479      1.0  0.51278  0.39045  0.07859  1.0000
  C   C480      1.0  0.53357  0.37132  0.08604  1.0000
  H   H568      1.0  0.52104  0.36225  0.17809  1.0000
  C   C481      1.0  0.55604  0.43014  0.02046  1.0000
  H   H569      1.0  0.50994  0.39775  0.05077  1.0000
  H   H570      1.0  0.54716  0.36439  0.06379  1.0000
  S   S134      1.0  0.49770  0.48821  0.05461  1.0000
  C   C482      1.0  0.55178  0.43477  0.14043  1.0000
  H   H571      1.0  0.87970  0.43588  0.20317  1.0000
  C   C483      1.0  0.96159  0.62765  0.08414  1.0000
  S   S135      1.0  0.85183  0.59017  0.14533  1.0000
  H   H572      1.0  0.62707  0.43553  0.03957  1.0000
  H   H573      1.0  0.95338  0.56120  0.14316  1.0000
  H   H574      1.0  0.93798  0.56824  0.02575  1.0000
  C   C484      1.0  0.92798  0.54106  0.10216  1.0000
  C   C485      1.0  0.90037  0.53812  0.08734  1.0000
  C   C486      1.0  0.87742  0.55322  0.10107  1.0000
  C   C487      1.0  0.88165  0.57131  0.12987  1.0000
  C   C488      1.0  0.90914  0.57371  0.14535  1.0000
  C   C489      1.0  0.93215  0.55887  0.13133  1.0000
  H   H575      1.0  0.89675  0.52447  0.06500  1.0000
  H   H576      1.0  0.85622  0.55093  0.08912  1.0000
  H   H577      1.0  0.91271  0.58684  0.16831  1.0000
  C   C490      1.0  0.86335  0.47251  0.21979  1.0000
  Fe  Fe67      1.0  0.84704  0.62586  0.18306  1.0000
  H   H578      1.0  0.60694  0.40807  0.02173  1.0000
  H   H579      1.0  0.96028  0.47547  0.15400  1.0000
  C   C491      1.0  0.55562  0.44233  0.10353  1.0000
  H   H580      1.0  0.68151  0.38507  0.39230  1.0000
  H   H581      1.0  0.80834  0.63567  0.38713  1.0000
  C   C492      1.0  0.60747  0.42956  0.02399  1.0000
  H   H582      1.0  0.89425  0.44818  0.11009  1.0000
  C   C493      1.0  0.90450  0.46704  0.17765  1.0000
  H   H583      1.0  0.54033  0.45589  0.09231  1.0000
  H   H584      1.0  0.87262  0.62190  0.08330  1.0000
  H   H585      1.0  0.95059  0.44157  0.20322  1.0000
  H   H586      1.0  0.53544  0.43848  0.03059  1.0000
  C   C494      1.0  0.93831  0.43117  0.18123  1.0000
  H   H587      1.0  0.89019  0.42205  0.14248  1.0000
  C   C495      1.0  0.70915  0.35003  0.46513  1.0000
  C   C496      1.0  0.90618  0.43491  0.12891  1.0000
  H   H588      1.0  0.92821  0.61916  0.35398  1.0000
  H   H589      1.0  0.84662  0.46407  0.23691  1.0000
  H   H590      1.0  0.59893  0.47669  0.05769  1.0000
  H   H591      1.0  0.51273  0.31502  0.17076  1.0000
  H   H592      1.0  0.56599  0.40971  0.18431  1.0000
  H   H593      1.0  0.92183  0.50437  0.15852  1.0000
  N   N30       1.0  0.58105  0.43976  0.04194  1.0000
  N   N31       1.0  0.92363  0.44970  0.15616  1.0000
  H   H594      1.0  0.53406  0.44263  0.15645  1.0000
  Fe  Fe68      1.0  0.96109  0.49003  0.04310  1.0000
  S   S136      1.0  0.95807  0.52327  0.08535  1.0000
  C   C497      1.0  0.68991  0.36862  0.40746  1.0000
  C   C498      1.0  0.90604  0.49450  0.17532  1.0000
  H   H595      1.0  0.92313  0.41767  0.19499  1.0000
  C   C499      1.0  0.88663  0.51026  0.19447  1.0000
  C   C500      1.0  0.86535  0.49932  0.21665  1.0000
  C   C501      1.0  0.88251  0.45655  0.20052  1.0000
  H   H596      1.0  0.85026  0.51170  0.23117  1.0000
  C   C502      1.0  0.93216  0.62550  0.07402  1.0000
  S   S137      1.0  0.81260  0.62944  0.22663  1.0000
  H   H597      1.0  0.88789  0.53114  0.19169  1.0000
  H   H598      1.0  0.61229  0.40263  0.08302  1.0000
  C   C503      1.0  0.59136  0.40503  0.13486  1.0000
  C   C504      1.0  0.69839  0.37142  0.44458  1.0000
  C   C505      1.0  0.70234  0.32339  0.40916  1.0000
  H   H599      1.0  0.91981  0.42222  0.11116  1.0000
  C   C506      1.0  0.57786  0.43176  0.08123  1.0000
  H   H600      1.0  0.90361  0.62586  0.13844  1.0000
  H   H601      1.0  0.55427  0.40872  0.02227  1.0000
  H   H602      1.0  0.56130  0.47766  0.04641  1.0000
  H   H603      1.0  0.69609  0.39046  0.45654  1.0000
  C   C507      1.0  0.59554  0.41259  0.09796  1.0000
  H   H604      1.0  0.68492  0.34252  0.36118  1.0000
  C   C508      1.0  0.71074  0.32594  0.44626  1.0000
  C   C509      1.0  0.88152  0.64055  0.07278  1.0000
  H   H605      1.0  0.60436  0.38971  0.14672  1.0000
  C   C510      1.0  0.58210  0.46843  0.03915  1.0000
  C   C511      1.0  0.69186  0.34467  0.38981  1.0000
  C   C512      1.0  0.48093  0.31159  0.10753  1.0000
  Fe  Fe69      1.0  0.97125  0.43096  0.04238  1.0000
  H   H606      1.0  0.93688  0.47675  0.11409  1.0000
  H   H607      1.0  0.90225  0.59967  0.04427  1.0000
  H   H608      1.0  0.67576  0.63753  0.16579  1.0000
  H   H609      1.0  0.76236  0.34998  0.49033  1.0000
  H   H610      1.0  0.58661  0.47499  0.01026  1.0000
  C   C513      1.0  0.92418  0.60357  0.05235  1.0000
  C   C514      1.0  0.97319  0.58786  0.05199  1.0000
  H   H611      1.0  0.88075  0.64047  0.04191  1.0000
  H   H612      1.0  0.96077  0.45028  0.11992  1.0000
  H   H613      1.0  0.48421  0.39587  0.16491  1.0000
  C   C515      1.0  0.94634  0.46373  0.13530  1.0000
  H   H614      1.0  0.50235  0.31995  0.10061  1.0000
  C   C516      1.0  0.94457  0.58524  0.04137  1.0000
  S   S138      1.0  0.62249  0.30957  0.20204  1.0000
  H   H615      1.0  0.73241  0.39138  0.50357  1.0000
  C   C517      1.0  0.94438  0.63509  0.35255  1.0000
  H   H616      1.0  0.95987  0.62927  0.33062  1.0000
  H   H617      1.0  0.95607  0.63558  0.37954  1.0000
  S   S139      1.0  0.84412  0.64192  0.32240  1.0000
  Fe  Fe70      1.0  0.82735  0.39323  0.66891  1.0000
  S   S140      1.0  0.82385  0.43552  0.65361  1.0000
  S   S141      1.0  0.82259  0.35960  0.62758  1.0000
  Fe  Fe71      1.0  0.85031  0.40582  0.74675  1.0000
  S   S142      1.0  0.84775  0.44834  0.73740  1.0000
  S   S143      1.0  0.86683  0.38781  0.80010  1.0000
  Fe  Fe72      1.0  0.80506  0.44041  0.71072  1.0000
  S   S144      1.0  0.77316  0.47088  0.72903  1.0000
  Fe  Fe73      1.0  0.86689  0.44040  0.68159  1.0000
  S   S145      1.0  0.89934  0.47029  0.66220  1.0000
  S   S146      1.0  0.80575  0.39792  0.72472  1.0000
  S   S147      1.0  0.87226  0.39796  0.69236  1.0000
  Fe  Fe74      1.0  0.93883  0.45726  0.97762  1.0000
  S   S148      1.0  0.90319  0.46052  0.93451  1.0000
  C   C518      1.0  0.49174  0.46466  0.87211  1.0000
  C   C519      1.0  0.73606  0.47071  0.71920  1.0000
  C   C520      1.0  0.68938  0.49159  0.72638  1.0000
  C   C521      1.0  0.71916  0.49112  0.73276  1.0000
  H   H618      1.0  0.67658  0.50725  0.73734  1.0000
  H   H619      1.0  0.72913  0.50654  0.74857  1.0000
  C   C522      1.0  0.93682  0.46751  0.66886  1.0000
  H   H620      1.0  0.69321  0.59915  0.53731  1.0000
  C   C523      1.0  0.69052  0.50354  0.61712  1.0000
  C   C524      1.0  0.74128  0.57115  0.59533  1.0000
  H   H621      1.0  0.94428  0.50809  0.65896  1.0000
  C   C525      1.0  0.88033  0.40795  0.83606  1.0000
  C   C526      1.0  0.88229  0.43476  0.83164  1.0000
  C   C527      1.0  0.89061  0.45058  0.86162  1.0000
  C   C528      1.0  0.89811  0.43972  0.89599  1.0000
  C   C529      1.0  0.89752  0.41279  0.89996  1.0000
  C   C530      1.0  0.88844  0.39699  0.87017  1.0000
  H   H622      1.0  0.87694  0.44342  0.80537  1.0000
  H   H623      1.0  0.89096  0.47138  0.85835  1.0000
  H   H624      1.0  0.90278  0.40423  0.92649  1.0000
  H   H625      1.0  0.88712  0.37626  0.87389  1.0000
  C   C531      1.0  0.79394  0.33863  0.61433  1.0000
  C   C532      1.0  0.76596  0.34151  0.62795  1.0000
  C   C533      1.0  0.49426  0.43924  0.81555  1.0000
  H   H626      1.0  0.76122  0.35697  0.64729  1.0000
  S   S149      1.0  0.96614  0.49330  0.98107  1.0000
  Fe  Fe75      1.0  0.54960  0.52543  0.70204  1.0000
  S   S150      1.0  0.56187  0.56484  0.72313  1.0000
  S   S151      1.0  0.50158  0.52216  0.69070  1.0000
  Fe  Fe76      1.0  0.61147  0.50668  0.71140  1.0000
  S   S152      1.0  0.62739  0.54457  0.73497  1.0000
  S   S153      1.0  0.63909  0.47202  0.69662  1.0000
  Fe  Fe77      1.0  0.58576  0.54339  0.76757  1.0000
  S   S154      1.0  0.57579  0.55705  0.82621  1.0000
  Fe  Fe78      1.0  0.60191  0.56247  0.68827  1.0000
  S   S155      1.0  0.61299  0.59439  0.64611  1.0000
  S   S156      1.0  0.57202  0.50413  0.74780  1.0000
  S   S157      1.0  0.58757  0.52453  0.66354  1.0000
  H   H627      1.0  0.95289  0.51313  0.82979  1.0000
  C   C534      1.0  0.48143  0.49311  0.68816  1.0000
  S   S158      1.0  0.53912  0.48162  0.95766  1.0000
  C   C535      1.0  0.54749  0.50253  0.92022  1.0000
  C   C536      1.0  0.53836  0.52828  0.91960  1.0000
  C   C537      1.0  0.54723  0.54477  0.89065  1.0000
  C   C538      1.0  0.56415  0.53541  0.86123  1.0000
  C   C539      1.0  0.57226  0.50937  0.86107  1.0000
  C   C540      1.0  0.56445  0.49317  0.89083  1.0000
  H   H628      1.0  0.52536  0.53576  0.94210  1.0000
  H   H629      1.0  0.54118  0.56495  0.89125  1.0000
  H   H630      1.0  0.58547  0.50199  0.83873  1.0000
  H   H631      1.0  0.57161  0.47328  0.89110  1.0000
  H   H632      1.0  0.69137  0.53825  0.67308  1.0000
  H   H633      1.0  0.50371  0.55843  0.75257  1.0000
  C   C541      1.0  0.64272  0.61284  0.62918  1.0000
  C   C542      1.0  0.67019  0.61172  0.64503  1.0000
  H   H634      1.0  0.64996  0.52163  0.56953  1.0000
  C   C543      1.0  0.97321  0.42440  0.86722  1.0000
  H   H635      1.0  0.67390  0.59970  0.66906  1.0000
  C   C544      1.0  0.72303  0.45076  0.69903  1.0000
  C   C545      1.0  0.69319  0.45127  0.69254  1.0000
  C   C546      1.0  0.67629  0.47169  0.70617  1.0000
  H   H636      1.0  0.73589  0.43492  0.68857  1.0000
  H   H637      1.0  0.68315  0.43579  0.67694  1.0000
  C   C547      1.0  0.94973  0.44379  0.67709  1.0000
  H   H638      1.0  0.82531  0.32971  0.74808  1.0000
  C   C548      1.0  0.79962  0.31838  0.58916  1.0000
  H   H639      1.0  0.93661  0.42656  0.67945  1.0000
  C   C549      1.0  0.74403  0.32434  0.61645  1.0000
  H   H640      1.0  0.94236  0.40801  0.82956  1.0000
  H   H641      1.0  0.63500  0.51005  0.61225  1.0000
  H   H642      1.0  0.67604  0.48789  0.62745  1.0000
  H   H643      1.0  0.65735  0.52218  0.67122  1.0000
  C   C550      1.0  0.95662  0.42420  0.83502  1.0000
  H   H644      1.0  0.82996  0.34723  0.70499  1.0000
  H   H645      1.0  0.50160  0.47755  0.89211  1.0000
  C   C551      1.0  0.69305  0.62622  0.62963  1.0000
  H   H646      1.0  0.93317  0.48816  0.77368  1.0000
  H   H647      1.0  0.72247  0.32676  0.62717  1.0000
  H   H648      1.0  0.60983  0.43685  0.99503  1.0000
  C   C552      1.0  0.84113  0.33555  0.72649  1.0000
  H   H649      1.0  0.49855  0.58198  0.84702  1.0000
  Fe  Fe79      1.0  0.49832  0.48504  0.99225  1.0000
  C   C553      1.0  0.49737  0.51741  0.79740  1.0000
  C   C554      1.0  0.70184  0.58549  0.55725  1.0000
  C   C555      1.0  0.95756  0.44510  0.81040  1.0000
  H   H650      1.0  0.71429  0.62477  0.64167  1.0000
  H   H651      1.0  0.51773  0.46787  0.68103  1.0000
  H   H652      1.0  0.70208  0.33735  0.55737  1.0000
  H   H653      1.0  0.67441  0.34365  0.52361  1.0000
  H   H654      1.0  0.50737  0.43334  0.79230  1.0000
  H   H655      1.0  0.97168  0.40857  0.88683  1.0000
  H   H656      1.0  0.50500  0.51313  0.76874  1.0000
  C   C556      1.0  0.48293  0.56865  0.85831  1.0000
  C   C557      1.0  0.49871  0.56254  0.78225  1.0000
  H   H657      1.0  0.48763  0.58157  0.78294  1.0000
  H   H658      1.0  0.85666  0.34873  0.74064  1.0000
  N   N32       1.0  0.48073  0.54180  0.79891  1.0000
  C   C558      1.0  0.67108  0.53667  0.65692  1.0000
  C   C559      1.0  0.73037  0.58778  0.56843  1.0000
  C   C560      1.0  0.64767  0.52612  0.59960  1.0000
  C   C561      1.0  0.50722  0.45579  0.84151  1.0000
  H   H659      1.0  0.52936  0.46193  0.83783  1.0000
  H   H660      1.0  0.48758  0.39299  0.77337  1.0000
  H   H661      1.0  0.72453  0.37945  0.54910  1.0000
  H   H662      1.0  0.70967  0.50271  0.63557  1.0000
  N   N33       1.0  0.79479  0.45243  0.84582  1.0000
  C   C562      1.0  0.81045  0.47377  0.82729  1.0000
  C   C563      1.0  0.81079  0.44522  0.88007  1.0000
  C   C564      1.0  0.79500  0.42946  0.82083  1.0000
  C   C565      1.0  0.76504  0.46117  0.85358  1.0000
  C   C566      1.0  0.75667  0.47102  0.88889  1.0000
  C   C567      1.0  0.74406  0.46198  0.82495  1.0000
  C   C568      1.0  0.72879  0.48021  0.89514  1.0000
  C   C569      1.0  0.71630  0.47124  0.83144  1.0000
  C   C570      1.0  0.70864  0.48027  0.86650  1.0000
  H   H663      1.0  0.80003  0.47931  0.80059  1.0000
  H   H664      1.0  0.81111  0.49142  0.84503  1.0000
  H   H665      1.0  0.83299  0.46828  0.82074  1.0000
  H   H666      1.0  0.81639  0.46235  0.89743  1.0000
  H   H667      1.0  0.83180  0.43598  0.87371  1.0000
  H   H668      1.0  0.79839  0.43114  0.89709  1.0000
  H   H669      1.0  0.78849  0.43423  0.79194  1.0000
  H   H670      1.0  0.81691  0.42104  0.81792  1.0000
  H   H671      1.0  0.78055  0.41396  0.83141  1.0000
  H   H672      1.0  0.77139  0.47208  0.91200  1.0000
  H   H673      1.0  0.74889  0.45591  0.79699  1.0000
  H   H674      1.0  0.72284  0.48762  0.92226  1.0000
  H   H675      1.0  0.70078  0.47169  0.80890  1.0000
  H   H676      1.0  0.86802  0.33221  0.65905  1.0000
  C   C571      1.0  0.87800  0.32296  0.68380  1.0000
  C   C572      1.0  0.72369  0.55214  0.61109  1.0000
  C   C573      1.0  0.68399  0.56666  0.57294  1.0000
  H   H677      1.0  0.75510  0.34521  0.53873  1.0000
  C   C574      1.0  0.69456  0.54908  0.60005  1.0000
  H   H678      1.0  0.76337  0.57332  0.60445  1.0000
  H   H679      1.0  0.68713  0.48762  0.87129  1.0000
  H   H680      1.0  0.95673  0.50621  0.74400  1.0000
  H   H681      1.0  0.73294  0.54018  0.63256  1.0000
  C   C575      1.0  0.95537  0.48884  0.76218  1.0000
  C   C576      1.0  0.95413  0.48971  0.66553  1.0000
  H   H682      1.0  0.66181  0.56679  0.56410  1.0000
  H   H683      1.0  0.69737  0.49831  0.58848  1.0000
  H   H684      1.0  0.61728  0.63031  0.58597  1.0000
  C   C577      1.0  0.49457  0.46906  0.68315  1.0000
  H   H685      1.0  0.51986  0.56434  0.79649  1.0000
  N   N34       1.0  0.67617  0.52921  0.61780  1.0000
  H   H686      1.0  0.63415  0.54378  0.60293  1.0000
  H   H687      1.0  0.65988  0.55564  0.65872  1.0000
  H   H688      1.0  0.74375  0.60302  0.55698  1.0000
  H   H689      1.0  0.48785  0.42818  0.67416  1.0000
  H   H690      1.0  0.94363  0.44381  0.78646  1.0000
  H   H691      1.0  0.89185  0.33785  0.69735  1.0000
  C   C578      1.0  0.63842  0.62916  0.59840  1.0000
  H   H692      1.0  0.82118  0.31592  0.57849  1.0000
  H   H693      1.0  0.69550  0.38736  0.51911  1.0000
  H   H694      1.0  0.55772  0.43525  0.99052  1.0000
  C   C579      1.0  0.71742  0.37877  0.51952  1.0000
  H   H695      1.0  0.51670  0.51855  0.81561  1.0000
  C   C580      1.0  0.69681  0.33657  0.52720  1.0000
  C   C581      1.0  0.74680  0.34131  0.51024  1.0000
  C   C582      1.0  0.47758  0.44661  0.67923  1.0000
  C   C583      1.0  0.68880  0.64213  0.59838  1.0000
  H   H696      1.0  0.95842  0.47196  0.74351  1.0000
  C   C584      1.0  0.97312  0.51379  0.81327  1.0000
  C   C585      1.0  0.97564  0.46684  0.81732  1.0000
  H   H697      1.0  0.69685  0.31572  0.51939  1.0000
  H   H698      1.0  0.48246  0.58978  0.91004  1.0000
  N   N35       1.0  0.85563  0.31287  0.70945  1.0000
  H   H699      1.0  0.97227  0.53095  0.79465  1.0000
  H   H700      1.0  0.88447  0.31100  0.75627  1.0000
  S   S159      1.0  0.97583  0.42929  0.97989  1.0000
  H   H701      1.0  0.79499  0.31470  0.70339  1.0000
  H   H702      1.0  0.48439  0.50050  0.80635  1.0000
  H   H703      1.0  0.47774  0.42084  0.74568  1.0000
  H   H704      1.0  0.74762  0.31990  0.50698  1.0000
  N   N36       1.0  0.97732  0.48940  0.79210  1.0000
  N   N37       1.0  0.71742  0.35189  0.50477  1.0000
  H   H705      1.0  0.97255  0.92457  0.17391  1.0000
  H   H706      1.0  0.94671  0.79564  0.26293  1.0000
  H   H707      1.0  0.90227  0.77119  0.26110  1.0000
  H   H708      1.0  0.52397  0.69709  0.29697  1.0000
  H   H709      1.0  0.49358  0.70634  0.32575  1.0000
  S   S160      1.0  0.83320  0.69024  0.23942  1.0000
  H   H710      1.0  0.49685  0.94153  0.14989  1.0000
  Fe  Fe80      1.0  0.80164  0.66859  0.20354  1.0000
  S   S161      1.0  0.75339  0.67544  0.20920  1.0000
  Fe  Fe81      1.0  0.86587  0.68145  0.19486  1.0000
  S   S162      1.0  0.89871  0.70798  0.16782  1.0000
  Fe  Fe82      1.0  0.59714  0.79180  0.25572  1.0000
  S   S163      1.0  0.60482  0.75349  0.22850  1.0000
  S   S164      1.0  0.60573  0.79846  0.31703  1.0000
  Fe  Fe83      1.0  0.57974  0.81850  0.18239  1.0000
  S   S165      1.0  0.58694  0.78181  0.14985  1.0000
  S   S166      1.0  0.57173  0.85769  0.15437  1.0000
  Fe  Fe84      1.0  0.56405  0.76219  0.19717  1.0000
  S   S167      1.0  0.53419  0.72834  0.18588  1.0000
  Fe  Fe85      1.0  0.62704  0.77619  0.18396  1.0000
  S   S168      1.0  0.66973  0.76563  0.15692  1.0000
  S   S169      1.0  0.55434  0.79910  0.22799  1.0000
  S   S170      1.0  0.62189  0.81431  0.21307  1.0000
  Fe  Fe86      1.0  0.69105  0.71962  0.46916  1.0000
  S   S171      1.0  0.72285  0.68688  0.47255  1.0000
  S   S172      1.0  0.65767  0.71292  0.42407  1.0000
  Fe  Fe87      1.0  0.75578  0.71854  0.47514  1.0000
  S   S173      1.0  0.79479  0.72344  0.43794  1.0000
  S   S174      1.0  0.72419  0.75117  0.46906  1.0000
  C   C586      1.0  0.62259  0.77471  0.34479  1.0000
  C   C587      1.0  0.62152  0.74847  0.33532  1.0000
  C   C588      1.0  0.63240  0.72978  0.35990  1.0000
  C   C589      1.0  0.64548  0.73720  0.39347  1.0000
  C   C590      1.0  0.64768  0.76349  0.40225  1.0000
  C   C591      1.0  0.63586  0.78213  0.37822  1.0000
  H   H711      1.0  0.61141  0.74247  0.30974  1.0000
  H   H712      1.0  0.63046  0.70947  0.35302  1.0000
  H   H713      1.0  0.65765  0.76941  0.42805  1.0000
  H   H714      1.0  0.63679  0.80240  0.38573  1.0000
  C   C592      1.0  0.93045  0.71624  0.19208  1.0000
  C   C593      1.0  0.95443  0.72540  0.17232  1.0000
  H   H715      1.0  0.58842  0.72326  0.14880  1.0000
  C   C594      1.0  0.49751  0.72944  0.19847  1.0000
  C   C595      1.0  0.70650  0.69532  0.33328  1.0000
  C   C596      1.0  0.93157  0.71526  0.23083  1.0000
  H   H716      1.0  0.86637  0.65581  0.08244  1.0000
  H   H717      1.0  0.62514  0.72548  0.16403  1.0000
  H   H718      1.0  0.94434  0.94151  0.11899  1.0000
  H   H719      1.0  0.91302  0.70868  0.24626  1.0000
  C   C597      1.0  0.73149  0.70189  0.19616  1.0000
  C   C598      1.0  0.74051  0.72046  0.17049  1.0000
  C   C599      1.0  0.72139  0.73999  0.15894  1.0000
  C   C600      1.0  0.69341  0.74150  0.17363  1.0000
  C   C601      1.0  0.68471  0.72333  0.20008  1.0000
  C   C602      1.0  0.70355  0.70345  0.21089  1.0000
  H   H720      1.0  0.76189  0.71938  0.15880  1.0000
  H   H721      1.0  0.72826  0.75398  0.13846  1.0000
  H   H722      1.0  0.66341  0.72435  0.21189  1.0000
  H   H723      1.0  0.69638  0.68911  0.23067  1.0000
  H   H724      1.0  0.67305  0.78342  0.29840  1.0000
  C   C603      1.0  0.96259  0.95533  0.11612  1.0000
  C   C604      1.0  0.80035  0.67403  0.40867  1.0000
  C   C605      1.0  0.80582  0.70049  0.40444  1.0000
  C   C606      1.0  0.82173  0.70899  0.37364  1.0000
  C   C607      1.0  0.83221  0.69124  0.34729  1.0000
  H   H725      1.0  0.78834  0.66726  0.43249  1.0000
  H   H726      1.0  0.82611  0.72942  0.37030  1.0000
  H   H727      1.0  0.84471  0.69804  0.32395  1.0000
  C   C608      1.0  0.54179  0.87191  0.13122  1.0000
  C   C609      1.0  0.54599  0.89511  0.11147  1.0000
  C   C610      1.0  0.52300  0.90751  0.09320  1.0000
  C   C611      1.0  0.49527  0.89706  0.09492  1.0000
  C   C612      1.0  0.48000  0.70772  0.19190  1.0000
  C   C613      1.0  0.51406  0.86136  0.13275  1.0000
  H   H728      1.0  0.56732  0.90346  0.11010  1.0000
  H   H729      1.0  0.52677  0.92519  0.07793  1.0000
  H   H730      1.0  0.96745  0.83883  0.15181  1.0000
  H   H731      1.0  0.51041  0.84366  0.14802  1.0000
  C   C614      1.0  0.64863  0.66692  0.14177  1.0000
  C   C615      1.0  0.73117  0.76171  0.25090  1.0000
  C   C616      1.0  0.70715  0.77662  0.25942  1.0000
  H   H732      1.0  0.74293  0.76547  0.22549  1.0000
  H   H733      1.0  0.70027  0.79180  0.24066  1.0000
  N   N38       1.0  0.52565  0.73616  0.31859  1.0000
  H   H734      1.0  0.62826  0.72021  0.06135  1.0000
  H   H735      1.0  0.93018  0.70717  0.38558  1.0000
  C   C617      1.0  0.92018  0.67129  0.07417  1.0000
  C   C618      1.0  0.54115  0.73147  0.35389  1.0000
  C   C619      1.0  0.55506  0.75220  0.37266  1.0000
  H   H736      1.0  0.95367  0.72628  0.14233  1.0000
  H   H737      1.0  0.94086  0.67755  0.08678  1.0000
  H   H738      1.0  0.90569  0.67760  0.30094  1.0000
  C   C620      1.0  0.94957  0.80214  0.20268  1.0000
  C   C621      1.0  0.49094  0.87399  0.11493  1.0000
  C   C622      1.0  0.93534  0.79579  0.16895  1.0000
  C   C623      1.0  0.69909  0.68592  0.11000  1.0000
  C   C624      1.0  0.89776  0.77298  0.20191  1.0000
  H   H739      1.0  0.50190  0.95539  0.19498  1.0000
  Fe  Fe88      1.0  0.97562  0.93713  0.02214  1.0000
  H   H740      1.0  0.58739  0.72006  0.44356  1.0000
  H   H741      1.0  0.49133  0.76029  0.29777  1.0000
  H   H742      1.0  0.60484  0.67651  0.07234  1.0000
  C   C625      1.0  0.91130  0.77858  0.23547  1.0000
  C   C626      1.0  0.67479  0.65436  0.14791  1.0000
  H   H743      1.0  0.89968  0.77623  0.14263  1.0000
  H   H744      1.0  0.48891  0.69089  0.17824  1.0000
  H   H745      1.0  0.91505  0.66493  0.40095  1.0000
  H   H746      1.0  0.87840  0.76124  0.20147  1.0000
  H   H747      1.0  0.57646  0.69489  0.09393  1.0000
  H   H748      1.0  0.93075  0.65063  0.14083  1.0000
  H   H749      1.0  0.58208  0.76415  0.41822  1.0000
  C   C627      1.0  0.57398  0.72326  0.41934  1.0000
  C   C628      1.0  0.96974  0.72357  0.36871  1.0000
  H   H750      1.0  0.95422  0.85324  0.19385  1.0000
  H   H751      1.0  0.49701  0.71774  0.27910  1.0000
  H   H752      1.0  0.49884  0.76812  0.22069  1.0000
  C   C629      1.0  0.54682  0.74344  0.28974  1.0000
  H   H753      1.0  0.63528  0.74103  0.10089  1.0000
  H   H754      1.0  0.94413  0.80145  0.14239  1.0000
  C   C630      1.0  0.73941  0.74130  0.27403  1.0000
  C   C631      1.0  0.69174  0.77172  0.29178  1.0000
  H   H755      1.0  0.75757  0.72999  0.26487  1.0000
  C   C632      1.0  0.72386  0.73553  0.30703  1.0000
  C   C633      1.0  0.70007  0.75166  0.31541  1.0000
  H   H756      1.0  0.77618  0.71105  0.31777  1.0000
  H   H757      1.0  0.75499  0.73758  0.36976  1.0000
  H   H758      1.0  0.68747  0.74866  0.34015  1.0000
  H   H759      1.0  0.92264  0.67192  0.04344  1.0000
  H   H760      1.0  0.67431  0.71642  0.08797  1.0000
  N   N39       1.0  0.73115  0.71353  0.33163  1.0000
  C   C634      1.0  0.75665  0.69862  0.31902  1.0000
  C   C635      1.0  0.73718  0.72313  0.36973  1.0000
  H   H761      1.0  0.71813  0.73233  0.38287  1.0000
  C   C636      1.0  0.54444  0.70634  0.36940  1.0000
  C   C637      1.0  0.82766  0.66472  0.35220  1.0000
  H   H762      1.0  0.72038  0.65460  0.13794  1.0000
  H   H763      1.0  0.56298  0.72786  0.28553  1.0000
  H   H764      1.0  0.74362  0.70716  0.38870  1.0000
  H   H765      1.0  0.75306  0.68969  0.29117  1.0000
  H   H766      1.0  0.76185  0.68246  0.33829  1.0000
  H   H767      1.0  0.62981  0.65913  0.15534  1.0000
  H   H768      1.0  0.71154  0.67801  0.35043  1.0000
  C   C638      1.0  0.62072  0.72577  0.08956  1.0000
  C   C639      1.0  0.60893  0.71236  0.15125  1.0000
  H   H769      1.0  0.95626  0.72449  0.27967  1.0000
  H   H770      1.0  0.59940  0.73529  0.08623  1.0000
  H   H771      1.0  0.68718  0.70425  0.34612  1.0000
  N   N40       1.0  0.61911  0.70302  0.11467  1.0000
  C   C640      1.0  0.94289  0.96487  0.21148  1.0000
  H   H772      1.0  0.55881  0.76138  0.29715  1.0000
  C   C641      1.0  0.59734  0.68497  0.09910  1.0000
  C   C642      1.0  0.57093  0.74810  0.40507  1.0000
  H   H773      1.0  0.53630  0.74697  0.26251  1.0000
  H   H774      1.0  0.70042  0.68856  0.30495  1.0000
  C   C643      1.0  0.64695  0.68956  0.11955  1.0000
  S   S175      1.0  0.83311  0.66325  0.15650  1.0000
  C   C644      1.0  0.69996  0.66385  0.13206  1.0000
  S   S176      1.0  0.93659  0.96340  0.02232  1.0000
  H   H775      1.0  0.56356  0.68311  0.41262  1.0000
  C   C645      1.0  0.94889  0.70400  0.36843  1.0000
  H   H776      1.0  0.55490  0.77164  0.36161  1.0000
  C   C646      1.0  0.48652  0.95404  0.17137  1.0000
  C   C647      1.0  0.95613  0.72423  0.24969  1.0000
  H   H777      1.0  0.90427  0.68635  0.08249  1.0000
  H   H778      1.0  0.89382  0.65907  0.13821  1.0000
  C   C648      1.0  0.81173  0.65618  0.38298  1.0000
  C   C649      1.0  0.50477  0.75765  0.32310  1.0000
  C   C650      1.0  0.50940  0.71326  0.30480  1.0000
  H   H779      1.0  0.97157  0.83526  0.25583  1.0000
  N   N41       1.0  0.97382  0.96357  0.15288  1.0000
  H   H780      1.0  0.89363  0.68110  0.36588  1.0000
  C   C651      1.0  0.67310  0.69879  0.10392  1.0000
  H   H781      1.0  0.60481  0.69640  0.17117  1.0000
  H   H782      1.0  0.51547  0.77663  0.32780  1.0000
  Fe  Fe89      1.0  0.84476  0.65101  0.26099  1.0000
  C   C652      1.0  0.90685  0.66368  0.37196  1.0000
  H   H783      1.0  0.95411  0.94894  0.22419  1.0000
  C   C653      1.0  0.95235  0.68139  0.34628  1.0000
  H   H784      1.0  0.93416  0.65713  0.28487  1.0000
  C   C654      1.0  0.90984  0.78143  0.16871  1.0000
  C   C655      1.0  0.93694  0.79277  0.23606  1.0000
  H   H785      1.0  0.71893  0.69373  0.09885  1.0000
  H   H786      1.0  0.96664  0.74074  0.38557  1.0000
  H   H787      1.0  0.53515  0.68930  0.35685  1.0000
  S   S177      1.0  0.97594  0.89859  0.05394  1.0000
  C   C656      1.0  0.56070  0.70245  0.40163  1.0000
  H   H788      1.0  0.96918  0.64353  0.10110  1.0000
  N   N42       1.0  0.93063  0.66042  0.34475  1.0000
  C   C657      1.0  0.48575  0.75113  0.21600  1.0000
  H   H789      1.0  0.59231  0.66874  0.11822  1.0000
  H   H790      1.0  0.49000  0.75393  0.34683  1.0000
  H   H791      1.0  0.89152  0.64708  0.37118  1.0000
  C   C658      1.0  0.95016  0.97440  0.17562  1.0000
  C   C659      1.0  0.91779  0.65954  0.30707  1.0000
  C   C660      1.0  0.97227  0.84195  0.18172  1.0000
  H   H792      1.0  0.91527  0.96844  0.25943  1.0000
  N   N43       1.0  0.97662  0.81732  0.20210  1.0000
  H   H793      1.0  0.95504  0.97195  0.09922  1.0000
  N   N44       1.0  0.91119  0.64515  0.08669  1.0000
  C   C661      1.0  0.90997  0.64513  0.12777  1.0000
  C   C662      1.0  0.92053  0.97592  0.23214  1.0000
  S   S178      1.0  0.88062  0.64391  0.21988  1.0000
  H   H794      1.0  0.90244  0.64310  0.30416  1.0000
  Fe  Fe90      1.0  0.82927  0.89427  0.65812  1.0000
  S   S179      1.0  0.82838  0.93498  0.63611  1.0000
  S   S180      1.0  0.82229  0.85908  0.62057  1.0000
  Fe  Fe91      1.0  0.85085  0.91226  0.73423  1.0000
  S   S181      1.0  0.85090  0.95407  0.71839  1.0000
  S   S182      1.0  0.86578  0.89670  0.78986  1.0000
  Fe  Fe92      1.0  0.80869  0.94527  0.69102  1.0000
  H   H795      1.0  0.65988  0.74452  0.65999  1.0000
  Fe  Fe93      1.0  0.87068  0.94085  0.66503  1.0000
  C   C663      1.0  0.72156  0.71999  0.62401  1.0000
  S   S183      1.0  0.80641  0.90416  0.71142  1.0000
  S   S184      1.0  0.87370  0.89931  0.68244  1.0000
  H   H796      1.0  0.74704  0.79693  0.70149  1.0000
  S   S185      1.0  0.91019  0.97381  0.91557  1.0000
  H   H797      1.0  0.73981  0.70798  0.63399  1.0000
  Fe  Fe94      1.0  0.72139  0.75038  0.53156  1.0000
  S   S186      1.0  0.75534  0.71997  0.53770  1.0000
  S   S187      1.0  0.71873  0.78469  0.57198  1.0000
  Fe  Fe95      1.0  0.71871  0.69107  0.53476  1.0000
  S   S188      1.0  0.71872  0.65892  0.57890  1.0000
  S   S189      1.0  0.68454  0.72163  0.53120  1.0000
  H   H798      1.0  0.49145  0.92110  0.70320  1.0000
  H   H799      1.0  0.79781  0.77218  0.64213  1.0000
  H   H800      1.0  0.89089  0.84333  0.70084  1.0000
  H   H801      1.0  0.82008  0.73664  0.74572  1.0000
  C   C664      1.0  0.69648  0.94799  0.70865  1.0000
  C   C665      1.0  0.72656  0.95018  0.70654  1.0000
  H   H802      1.0  0.68675  0.92975  0.71638  1.0000
  H   H803      1.0  0.73998  0.93374  0.71289  1.0000
  S   S190      1.0  0.53825  0.97222  0.93605  1.0000
  H   H804      1.0  0.85679  0.81593  0.78224  1.0000
  H   H805      1.0  0.70996  0.83768  0.51979  1.0000
  H   H806      1.0  0.88360  0.83701  0.76449  1.0000
  H   H807      1.0  0.81841  0.94012  0.79324  1.0000
  C   C666      1.0  0.88071  0.91822  0.82321  1.0000
  C   C667      1.0  0.89414  0.90836  0.85516  1.0000
  C   C668      1.0  0.90453  0.92515  0.88311  1.0000
  C   C669      1.0  0.90078  0.95189  0.87971  1.0000
  C   C670      1.0  0.88768  0.96169  0.84758  1.0000
  C   C671      1.0  0.87825  0.94502  0.81918  1.0000
  H   H808      1.0  0.89624  0.88767  0.85858  1.0000
  H   H809      1.0  0.91445  0.91735  0.90786  1.0000
  C   C672      1.0  0.83740  0.77494  0.73701  1.0000
  H   H810      1.0  0.86868  0.95296  0.79450  1.0000
  C   C673      1.0  0.79309  0.83833  0.60863  1.0000
  C   C674      1.0  0.76600  0.84017  0.62534  1.0000
  C   C675      1.0  0.74356  0.82342  0.61413  1.0000
  C   C676      1.0  0.74800  0.80450  0.58649  1.0000
  C   C677      1.0  0.77532  0.80216  0.57073  1.0000
  C   C678      1.0  0.79766  0.81901  0.58170  1.0000
  H   H811      1.0  0.76219  0.85467  0.64640  1.0000
  H   H812      1.0  0.72247  0.82544  0.62645  1.0000
  H   H813      1.0  0.77912  0.78772  0.54948  1.0000
  H   H814      1.0  0.81857  0.81725  0.56877  1.0000
  C   C679      1.0  0.49576  0.91338  0.88195  1.0000
  C   C680      1.0  0.71371  0.73868  0.68455  1.0000
  C   C681      1.0  0.82486  0.79480  0.67841  1.0000
  H   H815      1.0  0.84639  0.86040  0.73394  1.0000
  H   H816      1.0  0.78378  0.92805  0.80513  1.0000
  H   H817      1.0  0.67796  0.68860  0.64028  1.0000
  C   C682      1.0  0.71683  0.72820  0.72080  1.0000
  H   H818      1.0  0.70373  0.94702  0.58363  1.0000
  H   H819      1.0  0.78845  0.94548  0.76251  1.0000
  C   C683      1.0  0.79506  0.94472  0.79221  1.0000
  C   C684      1.0  0.70726  0.96158  0.81892  1.0000
  C   C685      1.0  0.49834  0.96092  0.68778  1.0000
  C   C686      1.0  0.76102  0.93979  0.57519  1.0000
  C   C687      1.0  0.83966  0.79656  0.71279  1.0000
  H   H820      1.0  0.81849  0.83825  0.74700  1.0000
  H   H821      1.0  0.72370  0.77300  0.65161  1.0000
  H   H822      1.0  0.76675  0.95786  0.59056  1.0000
  N   N45       1.0  0.70001  0.72432  0.65362  1.0000
  S   S191      1.0  0.64135  0.96608  0.70441  1.0000
  H   H823      1.0  0.65753  0.65585  0.55912  1.0000
  H   H824      1.0  0.72387  0.95791  0.62300  1.0000
  C   C688      1.0  0.83525  0.84220  0.72570  1.0000
  H   H825      1.0  0.88772  0.80285  0.75781  1.0000
  H   H826      1.0  0.77428  0.90210  0.62415  1.0000
  H   H827      1.0  0.70557  0.68525  0.67386  1.0000
  H   H828      1.0  0.84787  0.77443  0.76376  1.0000
  H   H829      1.0  0.75154  0.77783  0.76432  1.0000
  N   N46       1.0  0.78848  0.96954  0.81098  1.0000
  C   C689      1.0  0.73163  0.90065  0.57432  1.0000
  C   C690      1.0  0.87161  0.81873  0.75831  1.0000
  C   C691      1.0  0.71586  0.85534  0.53430  1.0000
  H   H830      1.0  0.70899  0.70917  0.72798  1.0000
  H   H831      1.0  0.86677  0.83202  0.66634  1.0000
  H   H832      1.0  0.67158  0.70027  0.68626  1.0000
  H   H833      1.0  0.93439  0.93253  0.68870  1.0000
  C   C692      1.0  0.80717  0.75200  0.69294  1.0000
  H   H834      1.0  0.69200  0.94809  0.83093  1.0000
  C   C693      1.0  0.69477  0.87066  0.55069  1.0000
  C   C694      1.0  0.79663  0.96750  0.85075  1.0000
  H   H835      1.0  0.73232  0.73399  0.77668  1.0000
  H   H836      1.0  0.82554  0.81045  0.65867  1.0000
  H   H837      1.0  0.66436  0.72885  0.61568  1.0000
  C   C695      1.0  0.74466  0.86232  0.53748  1.0000
  C   C696      1.0  0.49175  0.91923  0.80512  1.0000
  C   C697      1.0  0.82138  0.75302  0.72700  1.0000
  C   C698      1.0  0.80887  0.77289  0.66870  1.0000
  H   H838      1.0  0.89138  0.80975  0.68757  1.0000
  H   H839      1.0  0.82410  0.84619  0.69901  1.0000
  C   C699      1.0  0.87705  0.82653  0.69310  1.0000
  N   N47       1.0  0.85573  0.82041  0.72256  1.0000
  H   H840      1.0  0.79481  0.73500  0.68526  1.0000
  H   H841      1.0  0.75166  0.94549  0.54795  1.0000
  C   C700      1.0  0.73034  0.74228  0.74914  1.0000
  H   H842      1.0  0.82025  0.96460  0.85429  1.0000
  C   C701      1.0  0.67585  0.73960  0.63810  1.0000
  H   H843      1.0  0.73052  0.73831  0.61284  1.0000
  C   C702      1.0  0.94875  0.94802  0.68068  1.0000
  C   C703      1.0  0.74115  0.76699  0.74227  1.0000
  C   C704      1.0  0.75729  0.97484  0.80738  1.0000
  H   H844      1.0  0.74044  0.90236  0.64797  1.0000
  H   H845      1.0  0.78626  0.95082  0.86481  1.0000
  C   C705      1.0  0.51513  0.92969  0.82447  1.0000
  C   C706      1.0  0.68832  0.69859  0.66434  1.0000
  H   H846      1.0  0.49253  0.97332  0.76857  1.0000
  H   H847      1.0  0.70150  0.93031  0.62775  1.0000
  H   H848      1.0  0.68312  0.75798  0.62513  1.0000
  H   H849      1.0  0.53179  0.94024  0.80979  1.0000
  N   N48       1.0  0.74062  0.92341  0.59658  1.0000
  C   C707      1.0  0.73906  0.97382  0.69674  1.0000
  C   C708      1.0  0.73854  0.77774  0.70701  1.0000
  C   C709      1.0  0.72507  0.76387  0.67855  1.0000
  H   H850      1.0  0.57115  0.96815  0.86915  1.0000
  H   H851      1.0  0.74352  0.94106  0.83918  1.0000
  H   H852      1.0  0.53536  0.93450  0.87784  1.0000
  H   H853      1.0  0.52113  0.96058  0.69372  1.0000
  C   C710      1.0  0.51719  0.92658  0.86277  1.0000
  C   C711      1.0  0.75256  0.88443  0.55750  1.0000
  C   C712      1.0  0.48143  0.93865  0.69337  1.0000
  C   C713      1.0  0.70237  0.89301  0.57045  1.0000
  H   H854      1.0  0.67239  0.86495  0.54840  1.0000
  C   C714      1.0  0.71628  0.94026  0.60806  1.0000
  H   H855      1.0  0.68493  0.90376  0.58279  1.0000
  H   H856      1.0  0.49078  0.92259  0.77553  1.0000
  C   C715      1.0  0.93921  0.96725  0.65646  1.0000
  H   H857      1.0  0.77531  0.88815  0.56065  1.0000
  S   S192      1.0  0.90407  0.96648  0.63811  1.0000
  H   H858      1.0  0.95786  0.94041  0.82379  1.0000
  H   H859      1.0  0.71191  0.70968  0.60004  1.0000
  C   C716      1.0  0.75520  0.91426  0.63064  1.0000
  Fe  Fe96      1.0  0.94386  0.96741  0.96054  1.0000
  C   C717      1.0  0.67888  0.96944  0.70138  1.0000
  C   C718      1.0  0.73682  0.95779  0.82352  1.0000
  H   H860      1.0  0.76106  0.84999  0.52544  1.0000
  H   H861      1.0  0.78184  0.92998  0.56978  1.0000
  H   H862      1.0  0.76288  0.93076  0.64791  1.0000
  H   H863      1.0  0.49737  0.91150  0.91191  1.0000
  H   H864      1.0  0.96637  0.96708  0.88051  1.0000
  C   C719      1.0  0.66122  0.64375  0.58314  1.0000
  C   C720      1.0  0.97716  0.94849  0.69385  1.0000
