data_image0
_chemical_formula_structural       FeSCS3FeS2FeS2FeSFeHS2HFeSNC6H4C5H3C3H2C5H5C6H3CH6C3HC5HNHSCSH2C3HCH2C2H5CNHC2H2CHNCH3SCSC2HCSNCH2SH3C4HSCH2FeHSCHC2H7C2H2C2FeHCH2CHCHCHCH3CNHCHSC2H2CH2C2H2CH6CH2C2HCHCFeH3CHNFeHCHCFeHSHCS2C2FeS2CH2CH2C6H5C2H3CH3NC7H7SH9C3H2CSC3H3SHFeCSNHCHCH3FeCH3C2HCH2CHC2HCHCH5FeSHS3FeS2FeS2FeCFeCS2CFeS2C6H4C3H4C3H3C5H2SHCHC3FeCH4CH2CHCHCHCH4NHCHCHCH3SC3HCHC3H2NCH4NCSHCSCH3C4H2CH3C7H2C3H2CH2CH2C6HNHC2H5SCH3CHCHCHCH2CHC3H2CH2NSH2FeCH3CH2CHCHC3HC3H3S2HFeH6FeS2CHS2H2FeS2HCHC9H4NH7C2HFeH8C2HCHC2SHNCSCH3FeCH2CH2CNH3CHC2FeHSFeS2HSFeSCFeH2FeSCSCNSHFeS2FeSCFeSFeHS2CHC6H4C5H2C4FeHC6H4C2SC2HCH2CHCH7C2H2CHCSCH2CH2SH4CNC8H12C2H2SCH2CHSH2FeC3HC3HSH2FeH2NC2FeHNCHSCH3CH4CH2CH2S4CH2CFeSH2CHCFeSCFeS2FeS2FeSFeS3CHSCHNH3C5HCHC7H7C2SC7H4NC8H14SNC8H3CHCH8CH4CHNC2HC2H2C4HCH3CH2SCH2CH2C2HFeS2FeHFeS2FeSHFeSCSCS2CFeS2CSHFeSFeCS2NHC6H5C3H2C6HC6H4C5SHCHSH4FeHCHFeHS3FeSH3CHCH4CHFeHNCH2C3H3CH3SC2HCHNCHCH2C2SHFeCHC2H2S2H2CFeCHC2HCHC2HCH2C2SHC2FeSCH2CSFeSHFeS2FeS2FeSFeS3CH2CHCSH4C3H2CHC6H7NCH2C6H5CH3CHCNHC2H3CHCH2SH4CH2CSNC6H10CHCHCHCSCHC3HCH2C2HC2HCHCH3CH4CSCHC2HNHCH3C2H3CHC2SHC2FeSCS4FeS2FeS2FeSFeS3HC4H3CHC4HCHC3H3C5H2C6H6FeCFe2CHFeH2CHCHCHCHFeHC2H2N3CHC2H2C2HC3HCH6CHCH2C3HC2HNC9H14C2H3C2HC2H3C2SC3HNH2C3H2CH7CH3NHC3H3CH2CS2HCHC2H3CH3SH3FeSCFeHSCSFeCS2HNHCS2CFeH3C7H4CH2C4H4SHCH3CHCH3C2HCNHCH2CHSCH2FeC2H6CH2CHCH3CSCH2FeSCS4FeS2FeS2FeSFeS3C5H3C2HC2HC2FeC3H2C5H3C6H5CHCH5NC4NC4HNCHCH10CHCNC4H2CHCH4CH2C2H4C2H3C3NH3SCHCHCH4NH2C2HCHCH2CH2FeCH4C2H2C2HCFeH2CH5FeCH3CHCHC2HSHSHFeSCFeHSH2CHSCHSH3CHCHSHC7H6SHC3NCHC2HC3H2FeC4FeHSCHNHCFeSH4C3H11CFeHC2HCSH7
_chemical_formula_sum              "Fe96 S192 C720 H864 N48"
_cell_length_a       63.3159
_cell_length_b       49.7821
_cell_length_c       31.668
_cell_angle_alpha    89.8593
_cell_angle_beta     89.8368
_cell_angle_gamma    90.1743

_space_group_name_H-M_alt    "P 1"
_space_group_IT_number       1

loop_
  _space_group_symop_operation_xyz
  'x, y, z'

loop_
  _atom_site_type_symbol
  _atom_site_label
  _atom_site_symmetry_multiplicity
  _atom_site_fract_x
  _atom_site_fract_y
  _atom_site_fract_z
  _atom_site_occupancy
  Fe  Fe1       1.0  0.30039  0.34827  0.11154  1.0000
  S   S1        1.0  0.26542  0.33750  0.11600  1.0000
  C   C1        1.0  0.26846  0.04793  0.10962  1.0000
  S   S2        1.0  0.15343  0.35227  0.02984  1.0000
  S   S3        1.0  0.11988  0.41514  0.03734  1.0000
  S   S4        1.0  0.13133  0.28578  0.06403  1.0000
  Fe  Fe2       1.0  0.17057  0.10305  0.11164  1.0000
  S   S5        1.0  0.16005  0.10127  0.04448  1.0000
  S   S6        1.0  0.20609  0.10696  0.12336  1.0000
  Fe  Fe3       1.0  0.12486  0.10215  0.14680  1.0000
  S   S7        1.0  0.11216  0.10095  0.08042  1.0000
  S   S8        1.0  0.09556  0.10140  0.19051  1.0000
  Fe  Fe4       1.0  0.13691  0.07027  0.06676  1.0000
  S   S9        1.0  0.12656  0.03741  0.02184  1.0000
  Fe  Fe5       1.0  0.13620  0.13197  0.06354  1.0000
  H   H1        1.0  0.30466  0.01988  0.11780  1.0000
  S   S10       1.0  0.14877  0.06933  0.13364  1.0000
  S   S11       1.0  0.14766  0.13595  0.13026  1.0000
  H   H2        1.0  0.29660  0.15960  0.02185  1.0000
  Fe  Fe6       1.0  0.02114  0.09654  0.39854  1.0000
  S   S12       1.0  0.05547  0.09059  0.37661  1.0000
  N   N1        1.0  0.19846  0.26076  0.04561  1.0000
  C   C2        1.0  0.08496  0.09852  0.24276  1.0000
  C   C3        1.0  0.09752  0.09304  0.27804  1.0000
  C   C4        1.0  0.08824  0.09063  0.31858  1.0000
  C   C5        1.0  0.06631  0.09371  0.32455  1.0000
  C   C6        1.0  0.05376  0.09922  0.28928  1.0000
  C   C7        1.0  0.06303  0.10152  0.24875  1.0000
  H   H3        1.0  0.11440  0.09077  0.27417  1.0000
  H   H4        1.0  0.09817  0.08651  0.34554  1.0000
  H   H5        1.0  0.03689  0.10171  0.29315  1.0000
  H   H6        1.0  0.05310  0.10581  0.22182  1.0000
  C   C8        1.0  0.22516  0.10812  0.08192  1.0000
  C   C9        1.0  0.24626  0.11468  0.09133  1.0000
  C   C10       1.0  0.26189  0.11504  0.05944  1.0000
  C   C11       1.0  0.24927  0.41306  0.10511  1.0000
  C   C12       1.0  0.21988  0.10231  0.04003  1.0000
  H   H7        1.0  0.25056  0.11926  0.12358  1.0000
  H   H8        1.0  0.27799  0.12014  0.06735  1.0000
  H   H9        1.0  0.20390  0.09691  0.03212  1.0000
  C   C13       1.0  0.13020  0.44790  0.03056  1.0000
  C   C14       1.0  0.13290  0.00333  0.03037  1.0000
  C   C15       1.0  0.03643  0.18227  0.36769  1.0000
  H   H10       1.0  0.25665  0.06179  0.09552  1.0000
  H   H11       1.0  0.14835  0.00959  0.09002  1.0000
  C   C16       1.0  0.26433  0.02056  0.04671  1.0000
  C   C17       1.0  0.13044  0.25172  0.04928  1.0000
  C   C18       1.0  0.12958  0.19690  0.02764  1.0000
  C   C19       1.0  0.13275  0.20457  0.06958  1.0000
  C   C20       1.0  0.13310  0.23192  0.08036  1.0000
  H   H12       1.0  0.13472  0.18947  0.09380  1.0000
  H   H13       1.0  0.13536  0.23773  0.11293  1.0000
  H   H14       1.0  0.18873  0.29620  0.07970  1.0000
  H   H15       1.0  0.30132  0.18298  0.06415  1.0000
  H   H16       1.0  0.26880  0.27357  0.10059  1.0000
  C   C21       1.0  0.26107  0.40909  0.06852  1.0000
  C   C22       1.0  0.24834  0.34066  0.07191  1.0000
  C   C23       1.0  0.22639  0.34062  0.07851  1.0000
  C   C24       1.0  0.21234  0.34281  0.04425  1.0000
  C   C25       1.0  0.23541  0.10310  0.00808  1.0000
  C   C26       1.0  0.25604  0.34245  0.03052  1.0000
  H   H17       1.0  0.22025  0.33897  0.11033  1.0000
  H   H18       1.0  0.19558  0.34247  0.04986  1.0000
  H   H19       1.0  0.27283  0.34214  0.02471  1.0000
  C   C27       1.0  0.18808  0.44773  0.07001  1.0000
  H   H20       1.0  0.30526  0.04125  0.03248  1.0000
  H   H21       1.0  0.10451  0.04371  0.20196  1.0000
  H   H22       1.0  0.11286  0.03355  0.10783  1.0000
  H   H23       1.0  0.21706  0.22968  0.10683  1.0000
  H   H24       1.0  0.08573  0.03641  0.09342  1.0000
  H   H25       1.0  0.02401  0.20662  0.44149  1.0000
  C   C28       1.0  0.02936  0.20797  0.35437  1.0000
  C   C29       1.0  0.14347  0.99499  0.06677  1.0000
  C   C30       1.0  0.12753  0.24409  0.00723  1.0000
  H   H26       1.0  0.19474  0.46112  0.04513  1.0000
  C   C31       1.0  0.20796  0.21824  0.08430  1.0000
  C   C32       1.0  0.22094  0.26888  0.04123  1.0000
  C   C33       1.0  0.21655  0.41580  0.06358  1.0000
  C   C34       1.0  0.22004  0.34493  0.00290  1.0000
  C   C35       1.0  0.26550  0.02407  0.00214  1.0000
  H   H27       1.0  0.05487  0.14712  0.35340  1.0000
  N   N2        1.0  0.01473  0.22366  0.38130  1.0000
  H   H28       1.0  0.21903  0.41994  0.13210  1.0000
  S   S13       1.0  0.32135  0.42937  0.04077  1.0000
  C   C36       1.0  0.09313  0.98990  0.13690  1.0000
  S   S14       1.0  0.31518  0.35564  0.04867  1.0000
  H   H29       1.0  0.01344  0.23933  0.44500  1.0000
  H   H30       1.0  0.10250  0.00929  0.21740  1.0000
  C   C37       1.0  0.19497  0.17466  0.06255  1.0000
  C   C38       1.0  0.04976  0.20121  0.28901  1.0000
  C   C39       1.0  0.28380  0.22576  0.02792  1.0000
  H   H31       1.0  0.19383  0.15312  0.06743  1.0000
  C   C40       1.0  0.18423  0.41174  0.02023  1.0000
  H   H32       1.0  0.16667  0.41178  0.02074  1.0000
  H   H33       1.0  0.11630  0.46219  0.08849  1.0000
  C   C41       1.0  0.25652  0.10927  0.01750  1.0000
  C   C42       1.0  0.29462  0.05167  0.05517  1.0000
  H   H34       1.0  0.21495  0.18079  0.11617  1.0000
  H   H35       1.0  0.03143  0.17371  0.39751  1.0000
  H   H36       1.0  0.30524  0.06155  0.07840  1.0000
  H   H37       1.0  0.09619  0.05811  0.13265  1.0000
  H   H38       1.0  0.19417  0.45462  0.10104  1.0000
  C   C43       1.0  0.27682  0.26461  0.07376  1.0000
  N   N3        1.0  0.19331  0.41923  0.06182  1.0000
  H   H39       1.0  0.27766  0.03606  0.98708  1.0000
  C   C44       1.0  0.06968  0.02259  0.16907  1.0000
  C   C45       1.0  0.18928  0.27397  0.08335  1.0000
  H   H40       1.0  0.28269  0.99716  0.11508  1.0000
  H   H41       1.0  0.17067  0.45095  0.07044  1.0000
  C   C46       1.0  0.30221  0.26882  0.01734  1.0000
  H   H42       1.0  0.31387  0.28082  0.00052  1.0000
  N   N4        1.0  0.27974  0.03275  0.07614  1.0000
  C   C47       1.0  0.14285  0.45475  0.99586  1.0000
  H   H43       1.0  0.26034  0.40537  0.00112  1.0000
  H   H44       1.0  0.24571  0.00067  0.09589  1.0000
  H   H45       1.0  0.22995  0.26618  0.07094  1.0000
  S   S15       1.0  0.10680  0.34414  0.98877  1.0000
  C   C48       1.0  0.19706  0.23121  0.05080  1.0000
  S   S16       1.0  0.01478  0.10175  0.46851  1.0000
  C   C49       1.0  0.22739  0.41679  0.10279  1.0000
  C   C50       1.0  0.12621  0.46729  0.06172  1.0000
  H   H46       1.0  0.17554  0.22255  0.99810  1.0000
  C   C51       1.0  0.27317  0.23776  0.06276  1.0000
  S   S17       1.0  0.99921  0.13008  0.38073  1.0000
  N   N5        1.0  0.28037  0.19737  0.01559  1.0000
  C   C52       1.0  0.18258  0.40236  0.09431  1.0000
  H   H47       1.0  0.18902  0.39112  0.01095  1.0000
  H   H48       1.0  0.26225  0.22669  0.08244  1.0000
  S   S18       1.0  0.32704  0.32238  0.13493  1.0000
  H   H49       1.0  0.12284  0.02025  0.18058  1.0000
  H   H50       1.0  0.18784  0.38112  0.09231  1.0000
  H   H51       1.0  0.07489  0.02195  0.41895  1.0000
  C   C53       1.0  0.12704  0.21671  0.99647  1.0000
  C   C54       1.0  0.22918  0.41229  0.02672  1.0000
  C   C55       1.0  0.25108  0.40898  0.02943  1.0000
  C   C56       1.0  0.23396  0.99719  0.99198  1.0000
  H   H52       1.0  0.18539  0.40949  0.12698  1.0000
  S   S19       1.0  0.12895  0.16278  0.01313  1.0000
  C   C57       1.0  0.25021  0.47982  0.02880  1.0000
  H   H53       1.0  0.03183  0.23615  0.30092  1.0000
  H   H54       1.0  0.10225  0.11846  0.99146  1.0000
  Fe  Fe7       1.0  0.13266  0.31757  0.01313  1.0000
  H   H55       1.0  0.02571  0.26293  0.36238  1.0000
  S   S20       1.0  0.31400  0.38547  0.14126  1.0000
  C   C58       1.0  0.24197  0.34459  0.99627  1.0000
  H   H56       1.0  0.30120  0.99944  0.07198  1.0000
  C   C59       1.0  0.18408  0.18671  0.02945  1.0000
  C   C60       1.0  0.09676  0.03718  0.12058  1.0000
  H   H57       1.0  0.24736  0.46641  0.05519  1.0000
  H   H58       1.0  0.27796  0.40557  0.07045  1.0000
  H   H59       1.0  0.17274  0.26705  0.08891  1.0000
  H   H60       1.0  0.16504  0.40246  0.09054  1.0000
  H   H61       1.0  0.03967  0.23478  0.42410  1.0000
  H   H62       1.0  0.25713  0.41248  0.13549  1.0000
  H   H63       1.0  0.07121  0.06328  0.45121  1.0000
  C   C61       1.0  0.26097  0.18543  0.03456  1.0000
  C   C62       1.0  0.18493  0.21456  0.02359  1.0000
  H   H64       1.0  0.22249  0.41122  0.99542  1.0000
  H   H65       1.0  0.28613  0.06797  0.03831  1.0000
  C   C63       1.0  0.20688  0.19037  0.08995  1.0000
  C   C64       1.0  0.29870  0.18127  0.02948  1.0000
  Fe  Fe8       1.0  0.12937  0.37860  0.99909  1.0000
  H   H66       1.0  0.19833  0.26975  0.11259  1.0000
  C   C65       1.0  0.04977  0.16672  0.34250  1.0000
  H   H67       1.0  0.27944  0.06026  0.12909  1.0000
  H   H68       1.0  0.25992  0.03468  0.13219  1.0000
  C   C66       1.0  0.24750  0.00443  0.06245  1.0000
  H   H69       1.0  0.17443  0.17443  0.00879  1.0000
  C   C67       1.0  0.29249  0.01131  0.09617  1.0000
  H   H70       1.0  0.28009  0.46173  0.01315  1.0000
  C   C68       1.0  0.01074  0.25128  0.36537  1.0000
  H   H71       1.0  0.26253  0.18246  0.06926  1.0000
  C   C69       1.0  0.05639  0.17610  0.30320  1.0000
  H   H72       1.0  0.02798  0.01154  0.44386  1.0000
  H   H73       1.0  0.06986  0.99604  0.08699  1.0000
  H   H74       1.0  0.06660  0.16376  0.28366  1.0000
  C   C70       1.0  0.12677  0.98415  0.00030  1.0000
  N   N6        1.0  0.09153  0.01747  0.15415  1.0000
  H   H75       1.0  0.22894  0.25732  0.01578  1.0000
  C   C71       1.0  0.03604  0.03107  0.44966  1.0000
  H   H76       1.0  0.06820  0.04304  0.18325  1.0000
  S   S21       1.0  0.32306  0.11259  0.04976  1.0000
  C   C72       1.0  0.02342  0.22621  0.42464  1.0000
  C   C73       1.0  0.29113  0.28014  0.05083  1.0000
  H   H77       1.0  0.31359  0.18798  0.01391  1.0000
  H   H78       1.0  0.05495  0.20838  0.25829  1.0000
  C   C74       1.0  0.10601  0.02270  0.19010  1.0000
  H   H79       1.0  0.29398  0.30085  0.05967  1.0000
  H   H80       1.0  0.18870  0.29332  0.00462  1.0000
  C   C75       1.0  0.03642  0.21702  0.31402  1.0000
  C   C76       1.0  0.23246  0.99319  0.03541  1.0000
  H   H81       1.0  0.18893  0.42594  0.99470  1.0000
  H   H82       1.0  0.21938  0.98160  0.04818  1.0000
  C   C77       1.0  0.29895  0.24191  0.00646  1.0000
  H   H83       1.0  0.24683  0.19794  0.02789  1.0000
  H   H84       1.0  0.03933  0.04075  0.41853  1.0000
  H   H85       1.0  0.25758  0.16513  0.02156  1.0000
  H   H86       1.0  0.06486  0.00766  0.19350  1.0000
  H   H87       1.0  0.05799  0.02165  0.14302  1.0000
  H   H88       1.0  0.22263  0.29047  0.03288  1.0000
  C   C78       1.0  0.07047  0.01130  0.44876  1.0000
  H   H89       1.0  0.24743  0.47666  0.15121  1.0000
  H   H90       1.0  0.16974  0.26719  0.01039  1.0000
  C   C79       1.0  0.08074  0.98219  0.10159  1.0000
  C   C80       1.0  0.18703  0.27109  0.00801  1.0000
  H   H91       1.0  0.02443  0.04394  0.46632  1.0000
  C   C81       1.0  0.06552  0.05417  0.48137  1.0000
  H   H92       1.0  0.09969  0.08245  0.99215  1.0000
  C   C82       1.0  0.32997  0.47884  0.00767  1.0000
  Fe  Fe9       1.0  0.32992  0.39200  0.07852  1.0000
  H   H93       1.0  0.00257  0.25105  0.33430  1.0000
  H   H94       1.0  0.06329  0.99190  0.43880  1.0000
  H   H95       1.0  0.31713  0.47454  0.98639  1.0000
  C   C83       1.0  0.26866  0.47718  0.00517  1.0000
  H   H96       1.0  0.08535  0.00728  0.46628  1.0000
  N   N7        1.0  0.05557  0.02745  0.47459  1.0000
  Fe  Fe10      1.0  0.31105  0.10999  0.98409  1.0000
  H   H97       1.0  0.00023  0.26273  0.38715  1.0000
  C   C84       1.0  0.15183  0.48058  0.99299  1.0000
  H   H98       1.0  0.02382  0.19368  0.52435  1.0000
  C   C85       1.0  0.07712  0.05182  0.86589  1.0000
  Fe  Fe11      1.0  0.12275  0.34003  0.92530  1.0000
  H   H99       1.0  0.12535  0.25925  0.98311  1.0000
  S   S22       1.0  0.10227  0.32429  0.87073  1.0000
  H   H100      1.0  0.11441  0.14175  0.92453  1.0000
  C   C86       1.0  0.10517  0.28021  0.75060  1.0000
  S   S23       1.0  0.14407  0.37633  0.93430  1.0000
  S   S24       1.0  0.14751  0.31118  0.94987  1.0000
  C   C87       1.0  0.03804  0.02923  0.54594  1.0000
  C   C88       1.0  0.01203  0.20917  0.52808  1.0000
  Fe  Fe12      1.0  0.01731  0.36225  0.68361  1.0000
  S   S25       1.0  0.04525  0.37541  0.72462  1.0000
  S   S26       1.0  0.01789  0.36185  0.61208  1.0000
  C   C89       1.0  0.05232  0.36519  0.90467  1.0000
  H   H101      1.0  0.02550  0.40303  0.83469  1.0000
  H   H102      1.0  0.13848  0.11696  0.96070  1.0000
  C   C90       1.0  0.11524  0.05031  0.90990  1.0000
  H   H103      1.0  0.11044  0.26372  0.77030  1.0000
  H   H104      1.0  0.22216  0.98860  0.97117  1.0000
  C   C91       1.0  0.08532  0.33983  0.83310  1.0000
  C   C92       1.0  0.08803  0.36647  0.81994  1.0000
  C   C93       1.0  0.07538  0.37707  0.78724  1.0000
  C   C94       1.0  0.05972  0.36136  0.76758  1.0000
  C   C95       1.0  0.05668  0.33492  0.78147  1.0000
  C   C96       1.0  0.06950  0.32420  0.81373  1.0000
  H   H105      1.0  0.10021  0.37871  0.83421  1.0000
  H   H106      1.0  0.07793  0.39754  0.77680  1.0000
  H   H107      1.0  0.04488  0.32248  0.76673  1.0000
  H   H108      1.0  0.06738  0.30352  0.82340  1.0000
  H   H109      1.0  0.01159  0.32323  0.88433  1.0000
  C   C97       1.0  0.00516  0.46237  0.55057  1.0000
  C   C98       1.0  0.03218  0.01762  0.58445  1.0000
  H   H110      1.0  0.26596  0.20838  0.95647  1.0000
  H   H111      1.0  0.08767  0.28171  0.61431  1.0000
  H   H112      1.0  0.08407  0.25573  0.71542  1.0000
  C   C99       1.0  0.08904  0.02836  0.86632  1.0000
  H   H113      1.0  0.23102  0.09864  0.97583  1.0000
  H   H114      1.0  0.99903  0.31859  0.81714  1.0000
  H   H115      1.0  0.07397  0.09198  0.88730  1.0000
  N   N8        1.0  0.06541  0.29256  0.66266  1.0000
  C   C100      1.0  0.04656  0.28054  0.68341  1.0000
  C   C101      1.0  0.05841  0.31734  0.64062  1.0000
  C   C102      1.0  0.07321  0.27368  0.63004  1.0000
  C   C103      1.0  0.08213  0.29747  0.69441  1.0000
  C   C104      1.0  0.08994  0.27595  0.71936  1.0000
  C   C105      1.0  0.09096  0.32335  0.70190  1.0000
  C   C106      1.0  0.10634  0.32729  0.73291  1.0000
  H   H116      1.0  0.04068  0.29366  0.70921  1.0000
  H   H117      1.0  0.03331  0.27768  0.66073  1.0000
  H   H118      1.0  0.04974  0.26045  0.69716  1.0000
  H   H119      1.0  0.05178  0.33218  0.66329  1.0000
  H   H120      1.0  0.04577  0.31304  0.61716  1.0000
  H   H121      1.0  0.07155  0.32702  0.62277  1.0000
  H   H122      1.0  0.07715  0.25368  0.64345  1.0000
  S   S27       1.0  0.20287  0.34778  0.95886  1.0000
  H   H123      1.0  0.07924  0.05268  0.50313  1.0000
  H   H124      1.0  0.01063  0.34082  0.77875  1.0000
  H   H125      1.0  0.08579  0.34117  0.68538  1.0000
  H   H126      1.0  0.11227  0.34735  0.73924  1.0000
  H   H127      1.0  0.29340  0.19925  0.95206  1.0000
  H   H128      1.0  0.08342  0.01057  0.85004  1.0000
  H   H129      1.0  0.14360  0.09455  0.91760  1.0000
  H   H130      1.0  0.12450  0.30930  0.78275  1.0000
  H   H131      1.0  0.11854  0.99048  0.97213  1.0000
  C   C107      1.0  0.13322  0.09794  0.94547  1.0000
  C   C108      1.0  0.11327  0.30585  0.75747  1.0000
  C   C109      1.0  0.01710  0.23319  0.55005  1.0000
  H   H132      1.0  0.04414  0.32552  0.92551  1.0000
  H   H133      1.0  0.03280  0.23570  0.56280  1.0000
  C   C110      1.0  0.02842  0.38583  0.85460  1.0000
  S   S28       1.0  0.27528  0.11070  0.97559  1.0000
  C   C111      1.0  0.10798  0.02756  0.88847  1.0000
  C   C112      1.0  0.03946  0.34248  0.90615  1.0000
  C   C113      1.0  0.01486  0.36298  0.85555  1.0000
  H   H134      1.0  0.06214  0.05217  0.84932  1.0000
  H   H135      1.0  0.12458  0.21091  0.96397  1.0000
  H   H136      1.0  0.05713  0.40419  0.87733  1.0000
  S   S29       1.0  0.00982  0.28398  0.58408  1.0000
  H   H137      1.0  0.25147  0.01591  0.94158  1.0000
  Fe  Fe13      1.0  0.16702  0.34759  0.96537  1.0000
  C   C114      1.0  0.05538  0.98786  0.52592  1.0000
  S   S30       1.0  0.99959  0.32336  0.68837  1.0000
  N   N9        1.0  0.11059  0.09887  0.93319  1.0000
  H   H138      1.0  0.06107  0.27013  0.60513  1.0000
  C   C115      1.0  0.10762  0.12387  0.90811  1.0000
  H   H139      1.0  0.14564  0.44018  0.97120  1.0000
  C   C116      1.0  0.27839  0.19479  0.96897  1.0000
  H   H140      1.0  0.03227  0.04925  0.53946  1.0000
  H   H141      1.0  0.27431  0.17382  0.95942  1.0000
  H   H142      1.0  0.24816  0.34609  0.96445  1.0000
  Fe  Fe14      1.0  0.99822  0.32350  0.61694  1.0000
  C   C117      1.0  0.04677  0.38682  0.87908  1.0000
  H   H143      1.0  0.12971  0.04794  0.92750  1.0000
  H   H144      1.0  0.11542  0.12228  0.87668  1.0000
  H   H145      1.0  0.06691  0.36572  0.92255  1.0000
  C   C118      1.0  0.05005  0.01485  0.51562  1.0000
  C   C119      1.0  0.25047  0.01252  0.97539  1.0000
  H   H146      1.0  0.09075  0.12897  0.90335  1.0000
  C   C120      1.0  0.08419  0.07467  0.88734  1.0000
  H   H147      1.0  0.01700  0.45077  0.56700  1.0000
  H   H148      1.0  0.05432  0.06909  0.49463  1.0000
  C   C121      1.0  0.10373  0.07482  0.90931  1.0000
  H   H149      1.0  0.11699  0.00906  0.88968  1.0000
  C   C122      1.0  0.03766  0.99120  0.59360  1.0000
  C   C123      1.0  0.02095  0.34136  0.88219  1.0000
  H   H150      1.0  0.02249  0.02885  0.60647  1.0000
  C   C124      1.0  0.00209  0.25379  0.55610  1.0000
  H   H151      1.0  0.00409  0.38924  0.78104  1.0000
  C   C125      1.0  0.09770  0.10070  0.97213  1.0000
  H   H152      1.0  0.08058  0.10261  0.96511  1.0000
  H   H153      1.0  0.03246  0.98196  0.62290  1.0000
  H   H154      1.0  0.19315  0.26219  0.97822  1.0000
  H   H155      1.0  0.13633  0.08203  0.96929  1.0000
  H   H156      1.0  0.30883  0.23381  0.98174  1.0000
  Fe  Fe15      1.0  0.30936  0.84921  0.11919  1.0000
  S   S31       1.0  0.27360  0.84554  0.12613  1.0000
  H   H157      1.0  0.22948  0.56182  0.02705  1.0000
  S   S32       1.0  0.16220  0.84561  0.03334  1.0000
  S   S33       1.0  0.14491  0.91397  0.05525  1.0000
  S   S34       1.0  0.12645  0.78465  0.04912  1.0000
  Fe  Fe16      1.0  0.18041  0.60771  0.10964  1.0000
  S   S35       1.0  0.17027  0.60334  0.04300  1.0000
  S   S36       1.0  0.21564  0.61724  0.11813  1.0000
  Fe  Fe17      1.0  0.13494  0.59499  0.14242  1.0000
  S   S37       1.0  0.12306  0.59030  0.07521  1.0000
  S   S38       1.0  0.10963  0.58294  0.19216  1.0000
  Fe  Fe18      1.0  0.15272  0.56660  0.06381  1.0000
  C   C126      1.0  0.31456  0.51583  0.10675  1.0000
  Fe  Fe19      1.0  0.14210  0.62762  0.06131  1.0000
  C   C127      1.0  0.26688  0.71373  0.05324  1.0000
  S   S39       1.0  0.16414  0.56944  0.13065  1.0000
  S   S40       1.0  0.15263  0.63382  0.12837  1.0000
  C   C128      1.0  0.99819  0.78916  0.47642  1.0000
  Fe  Fe20      1.0  0.02503  0.61036  0.38642  1.0000
  S   S41       1.0  0.05824  0.61884  0.35862  1.0000
  S   S42       1.0  0.02023  0.60830  0.45742  1.0000
  C   C129      1.0  0.09462  0.59541  0.23616  1.0000
  C   C130      1.0  0.10223  0.61542  0.26324  1.0000
  C   C131      1.0  0.09076  0.62249  0.30003  1.0000
  C   C132      1.0  0.07133  0.61007  0.31019  1.0000
  C   C133      1.0  0.06350  0.59046  0.28267  1.0000
  C   C134      1.0  0.07511  0.58313  0.24619  1.0000
  H   H158      1.0  0.11723  0.62497  0.25645  1.0000
  H   H159      1.0  0.09708  0.63761  0.32099  1.0000
  H   H160      1.0  0.04870  0.58055  0.28987  1.0000
  H   H161      1.0  0.06905  0.56753  0.22580  1.0000
  C   C135      1.0  0.23403  0.61821  0.07539  1.0000
  C   C136      1.0  0.25584  0.61851  0.08381  1.0000
  C   C137      1.0  0.27079  0.61657  0.05070  1.0000
  H   H162      1.0  0.27645  0.95441  0.98564  1.0000
  H   H163      1.0  0.29526  0.52385  0.03183  1.0000
  H   H164      1.0  0.26120  0.61938  0.11620  1.0000
  H   H165      1.0  0.28747  0.61609  0.05773  1.0000
  C   C138      1.0  0.24135  0.69035  0.09716  1.0000
  C   C139      1.0  0.14115  0.94830  0.04355  1.0000
  C   C140      1.0  0.14800  0.49987  0.02442  1.0000
  H   H166      1.0  0.18831  0.80380  0.08946  1.0000
  H   H167      1.0  0.06459  0.51721  0.46802  1.0000
  H   H168      1.0  0.13194  0.50793  0.08300  1.0000
  C   C141      1.0  0.10791  0.55471  0.33227  1.0000
  C   C142      1.0  0.13111  0.75021  0.03920  1.0000
  C   C143      1.0  0.13536  0.69456  0.02415  1.0000
  C   C144      1.0  0.12946  0.70374  0.06415  1.0000
  C   C145      1.0  0.12722  0.73146  0.07152  1.0000
  H   H169      1.0  0.12593  0.68942  0.08898  1.0000
  H   H170      1.0  0.12203  0.73834  0.10222  1.0000
  S   S43       1.0  0.16054  0.53152  0.02055  1.0000
  H   H171      1.0  0.26565  0.78460  0.08830  1.0000
  C   C146      1.0  0.27660  0.52815  0.10761  1.0000
  H   H172      1.0  0.28061  0.76416  0.01873  1.0000
  C   C147      1.0  0.25708  0.84382  0.08100  1.0000
  C   C148      1.0  0.23553  0.84993  0.08503  1.0000
  C   C149      1.0  0.22193  0.84842  0.04997  1.0000
  Fe  Fe21      1.0  0.13730  0.81875  0.00675  1.0000
  C   C150      1.0  0.26485  0.83590  0.04153  1.0000
  H   H173      1.0  0.22935  0.85617  0.11535  1.0000
  H   H174      1.0  0.20553  0.85372  0.05351  1.0000
  H   H175      1.0  0.28131  0.83079  0.03789  1.0000
  H   H176      1.0  0.11738  0.97421  0.17999  1.0000
  C   C151      1.0  0.03646  0.78009  0.43480  1.0000
  H   H177      1.0  0.31616  0.54745  0.04071  1.0000
  H   H178      1.0  0.22652  0.55462  0.11149  1.0000
  C   C152      1.0  0.19277  0.73735  0.05952  1.0000
  H   H179      1.0  0.21876  0.51011  0.14295  1.0000
  C   C153      1.0  0.28123  0.77851  0.10116  1.0000
  H   H180      1.0  0.09761  0.56382  0.39443  1.0000
  C   C154      1.0  0.18567  0.78171  0.09225  1.0000
  H   H181      1.0  0.20963  0.92931  0.08845  1.0000
  C   C155      1.0  0.25178  0.69342  0.05867  1.0000
  H   H182      1.0  0.30616  0.77529  0.03567  1.0000
  H   H183      1.0  0.08821  0.53298  0.44908  1.0000
  H   H184      1.0  0.30004  0.95070  0.01672  1.0000
  H   H185      1.0  0.20672  0.54035  0.03376  1.0000
  N   N10       1.0  0.19673  0.76667  0.05827  1.0000
  H   H186      1.0  0.31461  0.51090  0.14104  1.0000
  C   C156      1.0  0.18958  0.77807  0.01743  1.0000
  H   H187      1.0  0.16823  0.77850  0.09069  1.0000
  C   C157      1.0  0.23904  0.53984  0.11469  1.0000
  H   H188      1.0  0.22102  0.50022  0.03686  1.0000
  C   C158      1.0  0.27155  0.50253  0.12502  1.0000
  H   H189      1.0  0.30260  0.74103  0.02308  1.0000
  H   H190      1.0  0.15529  0.96110  0.10199  1.0000
  H   H191      1.0  0.28179  0.88107  0.99824  1.0000
  S   S44       1.0  0.13580  0.65992  0.01207  1.0000
  C   C159      1.0  0.25121  0.83414  0.00657  1.0000
  C   C160      1.0  0.02105  0.76007  0.43572  1.0000
  C   C161      1.0  0.25323  0.91741  0.02604  1.0000
  H   H192      1.0  0.17094  0.68739  0.12062  1.0000
  C   C162      1.0  0.18696  0.68082  0.06179  1.0000
  H   H193      1.0  0.26515  0.73943  0.15323  1.0000
  C   C163      1.0  0.08792  0.52157  0.29391  1.0000
  C   C164      1.0  0.22746  0.61829  0.03326  1.0000
  C   C165      1.0  0.22968  0.84037  0.01053  1.0000
  H   H194      1.0  0.28331  0.48713  0.12975  1.0000
  H   H195      1.0  0.04753  0.56739  0.38739  1.0000
  N   N11       1.0  0.06303  0.53066  0.40338  1.0000
  C   C166      1.0  0.03283  0.80476  0.45460  1.0000
  H   H196      1.0  0.26215  0.56571  0.08785  1.0000
  H   H197      1.0  0.31414  0.72501  0.09158  1.0000
  H   H198      1.0  0.19123  0.91260  0.02508  1.0000
  H   H199      1.0  0.30434  0.73980  0.13938  1.0000
  N   N12       1.0  0.28849  0.75274  0.08255  1.0000
  C   C167      1.0  0.09654  0.93802  0.10042  1.0000
  S   S45       1.0  0.00423  0.53387  0.48326  1.0000
  H   H200      1.0  0.19124  0.80028  0.01674  1.0000
  C   C168      1.0  0.20834  0.91437  0.02514  1.0000
  S   S46       1.0  0.00404  0.57464  0.37400  1.0000
  C   C169      1.0  0.29455  0.75843  0.03802  1.0000
  H   H201      1.0  0.28006  0.77794  0.13616  1.0000
  H   H202      1.0  0.12045  0.56960  0.33292  1.0000
  H   H203      1.0  0.05140  0.77628  0.41914  1.0000
  C   C170      1.0  0.26404  0.61457  0.00874  1.0000
  C   C171      1.0  0.18209  0.72454  0.09362  1.0000
  C   C172      1.0  0.13507  0.49319  0.05871  1.0000
  C   C173      1.0  0.23468  0.51484  0.13254  1.0000
  H   H204      1.0  0.22888  0.76295  0.03612  1.0000
  H   H205      1.0  0.08169  0.49961  0.43193  1.0000
  C   C174      1.0  0.17942  0.69668  0.09465  1.0000
  H   H206      1.0  0.09845  0.91853  0.08563  1.0000
  H   H207      1.0  0.27464  0.71454  0.02287  1.0000
  H   H208      1.0  0.30291  0.91122  0.06801  1.0000
  C   C175      1.0  0.01175  0.85834  0.46626  1.0000
  C   C176      1.0  0.24616  0.70734  0.13063  1.0000
  C   C177      1.0  0.30760  0.74382  0.10541  1.0000
  C   C178      1.0  0.13099  0.95670  0.00672  1.0000
  C   C179      1.0  0.27198  0.73171  0.08665  1.0000
  C   C180      1.0  0.10462  0.53979  0.29576  1.0000
  C   C181      1.0  0.26140  0.72753  0.12576  1.0000
  H   H209      1.0  0.08419  0.71890  0.02721  1.0000
  H   H210      1.0  0.04936  0.49184  0.38927  1.0000
  C   C182      1.0  0.19748  0.69271  0.02790  1.0000
  C   C183      1.0  0.13959  0.71334  0.99200  1.0000
  C   C184      1.0  0.30421  0.56127  0.11948  1.0000
  H   H211      1.0  0.28190  0.92756  0.09333  1.0000
  H   H212      1.0  0.23833  0.70436  0.16081  1.0000
  C   C185      1.0  0.25958  0.54624  0.10181  1.0000
  H   H213      1.0  0.06707  0.57131  0.42723  1.0000
  H   H214      1.0  0.21092  0.61958  0.02585  1.0000
  C   C186      1.0  0.05472  0.55742  0.41522  1.0000
  H   H215      1.0  0.04533  0.81953  0.45338  1.0000
  H   H216      1.0  0.28946  0.55876  0.04028  1.0000
  C   C187      1.0  0.07436  0.51822  0.32853  1.0000
  C   C188      1.0  0.07494  0.51962  0.43966  1.0000
  C   C189      1.0  0.25086  0.49613  0.13733  1.0000
  C   C190      1.0  0.21568  0.55278  0.01067  1.0000
  C   C191      1.0  0.29978  0.54188  0.05038  1.0000
  C   C192      1.0  0.04451  0.51286  0.39593  1.0000
  H   H217      1.0  0.29249  0.79524  0.09444  1.0000
  N   N13       1.0  0.29842  0.53640  0.09636  1.0000
  H   H218      1.0  0.17528  0.73552  0.11961  1.0000
  C   C193      1.0  0.21878  0.92370  0.06086  1.0000
  C   C194      1.0  0.21971  0.77159  0.06279  1.0000
  H   H219      1.0  0.03393  0.51179  0.42411  1.0000
  H   H220      1.0  0.03461  0.52049  0.36948  1.0000
  H   H221      1.0  0.19882  0.77079  0.98994  1.0000
  H   H222      1.0  0.06154  0.50416  0.32452  1.0000
  H   H223      1.0  0.27931  0.89273  0.07913  1.0000
  S   S47       1.0  0.32211  0.85505  0.05448  1.0000
  C   C195      1.0  0.09457  0.55142  0.36716  1.0000
  H   H224      1.0  0.18442  0.65931  0.06240  1.0000
  H   H225      1.0  0.24838  0.67955  0.03312  1.0000
  H   H226      1.0  0.17265  0.77338  0.01185  1.0000
  C   C196      1.0  0.07723  0.53326  0.36627  1.0000
  H   H227      1.0  0.29443  0.57877  0.11010  1.0000
  C   C197      1.0  0.28538  0.91255  0.06850  1.0000
  H   H228      1.0  0.11456  0.54309  0.26823  1.0000
  C   C198      1.0  0.00194  0.76469  0.45618  1.0000
  H   H229      1.0  0.19135  0.77590  0.12417  1.0000
  C   C199      1.0  0.23534  0.49942  0.01829  1.0000
  H   H230      1.0  0.07346  0.95151  0.05579  1.0000
  H   H231      1.0  0.24800  0.93339  0.08957  1.0000
  C   C200      1.0  0.24234  0.61641  0.00026  1.0000
  H   H232      1.0  0.22574  0.76256  0.09257  1.0000
  C   C201      1.0  0.28252  0.94801  0.01704  1.0000
  C   C202      1.0  0.14749  0.96754  0.07337  1.0000
  C   C203      1.0  0.24085  0.92560  0.06126  1.0000
  H   H233      1.0  0.32029  0.75935  0.10413  1.0000
  H   H234      1.0  0.11997  0.93025  0.14745  1.0000
  C   C204      1.0  0.20059  0.72053  0.02688  1.0000
  H   H235      1.0  0.22978  0.67443  0.10137  1.0000
  H   H236      1.0  0.30459  0.90251  0.99801  1.0000
  N   N14       1.0  0.27661  0.91985  0.02650  1.0000
  S   S48       1.0  0.32940  0.88205  0.14774  1.0000
  H   H237      1.0  0.31215  0.49702  0.08840  1.0000
  H   H238      1.0  0.30236  0.55848  0.15419  1.0000
  Fe  Fe22      1.0  0.14361  0.88014  0.00735  1.0000
  C   C205      1.0  0.10868  0.94473  0.13544  1.0000
  H   H239      1.0  0.27597  0.96197  0.04093  1.0000
  H   H240      1.0  0.32092  0.56731  0.11324  1.0000
  H   H241      1.0  0.22339  0.79343  0.06346  1.0000
  C   C206      1.0  0.08256  0.95669  0.08356  1.0000
  H   H242      1.0  0.08515  0.51060  0.26490  1.0000
  H   H243      1.0  0.04251  0.55605  0.44054  1.0000
  C   C207      1.0  0.10712  0.97025  0.15358  1.0000
  H   H244      1.0  0.02766  0.85980  0.45156  1.0000
  C   C208      1.0  0.24200  0.90844  0.98984  1.0000
  H   H245      1.0  0.08669  0.76219  0.99295  1.0000
  C   C209      1.0  0.01360  0.81003  0.47628  1.0000
  C   C210      1.0  0.21992  0.90694  0.98965  1.0000
  C   C211      1.0  0.28705  0.90231  0.99475  1.0000
  H   H246      1.0  0.08669  0.67689  0.98630  1.0000
  C   C212      1.0  0.23874  0.51747  0.98412  1.0000
  C   C213      1.0  0.13765  0.74108  0.99954  1.0000
  C   C214      1.0  0.08560  0.71985  0.99308  1.0000
  H   H247      1.0  0.02403  0.74072  0.42118  1.0000
  H   H248      1.0  0.20915  0.72873  0.00026  1.0000
  H   H249      1.0  0.20459  0.56930  0.00240  1.0000
  S   S49       1.0  0.99885  0.64044  0.37903  1.0000
  S   S50       1.0  0.11666  0.85334  0.98672  1.0000
  H   H250      1.0  0.33082  0.52296  0.09897  1.0000
  Fe  Fe23      1.0  0.99781  0.57343  0.44467  1.0000
  H   H251      1.0  0.20311  0.68021  0.00227  1.0000
  H   H252      1.0  0.00857  0.87823  0.48116  1.0000
  H   H253      1.0  0.00006  0.85545  0.44044  1.0000
  H   H254      1.0  0.12594  0.94200  0.98372  1.0000
  H   H255      1.0  0.28410  0.90905  0.96181  1.0000
  H   H256      1.0  0.09591  0.81514  0.91661  1.0000
  Fe  Fe24      1.0  0.13432  0.85054  0.92478  1.0000
  S   S51       1.0  0.00482  0.78120  0.59474  1.0000
  S   S52       1.0  0.12012  0.84827  0.85795  1.0000
  C   C215      1.0  0.08934  0.69716  0.92638  1.0000
  H   H257      1.0  0.05984  0.77609  0.89173  1.0000
  S   S53       1.0  0.16015  0.87975  0.94436  1.0000
  S   S54       1.0  0.15362  0.81440  0.94444  1.0000
  H   H258      1.0  0.09050  0.67858  0.90872  1.0000
  H   H259      1.0  0.14047  0.75527  0.97430  1.0000
  Fe  Fe25      1.0  0.00980  0.85367  0.71118  1.0000
  S   S55       1.0  0.02807  0.85905  0.77374  1.0000
  S   S56       1.0  0.01832  0.85236  0.64171  1.0000
  H   H260      1.0  0.21174  0.89915  0.96217  1.0000
  C   C216      1.0  0.07541  0.77640  0.87534  1.0000
  H   H261      1.0  0.03023  0.74069  0.55304  1.0000
  C   C217      1.0  0.27234  0.49426  0.97101  1.0000
  C   C218      1.0  0.00925  0.71128  0.52500  1.0000
  C   C219      1.0  0.09332  0.79604  0.93432  1.0000
  C   C220      1.0  0.09425  0.85091  0.83554  1.0000
  C   C221      1.0  0.07652  0.85824  0.85934  1.0000
  C   C222      1.0  0.05650  0.86042  0.83988  1.0000
  C   C223      1.0  0.05379  0.85520  0.79645  1.0000
  C   C224      1.0  0.07147  0.84745  0.77284  1.0000
  C   C225      1.0  0.09151  0.84540  0.79225  1.0000
  H   H262      1.0  0.07827  0.86271  0.89255  1.0000
  H   H263      1.0  0.04301  0.86649  0.85854  1.0000
  H   H264      1.0  0.06976  0.84332  0.73951  1.0000
  H   H265      1.0  0.10504  0.83970  0.77340  1.0000
  N   N15       1.0  0.09294  0.77244  0.90571  1.0000
  H   H266      1.0  0.10634  0.79446  0.95778  1.0000
  H   H267      1.0  0.24443  0.56785  0.95131  1.0000
  H   H268      1.0  0.19090  0.53755  0.94704  1.0000
  H   H269      1.0  0.11638  0.79201  0.86641  1.0000
  H   H270      1.0  0.07683  0.79604  0.85845  1.0000
  H   H271      1.0  0.21770  0.57322  0.93488  1.0000
  H   H272      1.0  0.07505  0.76064  0.85056  1.0000
  C   C226      1.0  0.22977  0.55739  0.94077  1.0000
  C   C227      1.0  0.09014  0.74654  0.92823  1.0000
  H   H273      1.0  0.04297  0.84139  0.51651  1.0000
  Fe  Fe26      1.0  0.31776  0.60915  0.97085  1.0000
  H   H274      1.0  0.02678  0.82344  0.55340  1.0000
  H   H275      1.0  0.23283  0.54791  0.90959  1.0000
  H   H276      1.0  0.16152  0.48571  0.96598  1.0000
  H   H277      1.0  0.23693  0.61606  0.96789  1.0000
  H   H278      1.0  0.20801  0.51182  0.92630  1.0000
  H   H279      1.0  0.09260  0.72167  0.87169  1.0000
  H   H280      1.0  0.02434  0.85928  0.54799  1.0000
  H   H281      1.0  0.14393  0.70633  0.96086  1.0000
  C   C228      1.0  0.08715  0.74475  0.97273  1.0000
  C   C229      1.0  0.11322  0.77232  0.88203  1.0000
  H   H282      1.0  0.05294  0.95555  0.57139  1.0000
  C   C230      1.0  0.09071  0.72194  0.90560  1.0000
  H   H283      1.0  0.07810  0.79841  0.95155  1.0000
  C   C231      1.0  0.01088  0.48691  0.53030  1.0000
  C   C232      1.0  0.01392  0.73487  0.54850  1.0000
  S   S57       1.0  0.28172  0.60806  0.96621  1.0000
  H   H284      1.0  0.02709  0.49373  0.53168  1.0000
  N   N16       1.0  0.22244  0.53750  0.97275  1.0000
  C   C233      1.0  0.02683  0.84027  0.53011  1.0000
  S   S58       1.0  0.21304  0.83731  0.96577  1.0000
  C   C234      1.0  0.08698  0.69613  0.97007  1.0000
  H   H285      1.0  0.12671  0.76807  0.90342  1.0000
  H   H286      1.0  0.26171  0.52679  0.93385  1.0000
  H   H287      1.0  0.11349  0.75718  0.85639  1.0000
  Fe  Fe27      1.0  0.17746  0.84384  0.97004  1.0000
  C   C235      1.0  0.20384  0.52329  0.95524  1.0000
  H   H288      1.0  0.19694  0.50882  0.97830  1.0000
  H   H289      1.0  0.02194  0.69937  0.51194  1.0000
  C   C236      1.0  0.25776  0.51425  0.96062  1.0000
  H   H290      1.0  0.24988  0.90194  0.96142  1.0000
  H   H291      1.0  0.25738  0.82789  0.97625  1.0000
  C   C237      1.0  0.99781  0.75096  0.56615  1.0000
  N   N17       1.0  0.01032  0.83619  0.49757  1.0000
  H   H292      1.0  0.06403  0.97507  0.50461  1.0000
  H   H293      1.0  0.28660  0.49200  0.95229  1.0000
  H   H294      1.0  0.99915  0.93897  0.49472  1.0000
  C   C238      1.0  0.04918  0.97633  0.56438  1.0000
  H   H295      1.0  0.34298  0.27097  0.10442  1.0000
  C   C239      1.0  0.62646  0.00390  0.04030  1.0000
  C   C240      1.0  0.42190  0.42823  0.29233  1.0000
  Fe  Fe28      1.0  0.34273  0.33236  0.07334  1.0000
  H   H296      1.0  0.44199  0.45416  0.42239  1.0000
  S   S59       1.0  0.35792  0.30108  0.03118  1.0000
  Fe  Fe29      1.0  0.34267  0.36047  0.15806  1.0000
  S   S60       1.0  0.35725  0.36046  0.22464  1.0000
  S   S61       1.0  0.35960  0.36949  0.09681  1.0000
  H   H297      1.0  0.36278  0.42404  0.32406  1.0000
  S   S62       1.0  0.35069  0.17619  0.06867  1.0000
  Fe  Fe30      1.0  0.64141  0.38259  0.04050  1.0000
  S   S63       1.0  0.65202  0.38674  0.10755  1.0000
  C   C241      1.0  0.58814  0.46782  0.03836  1.0000
  Fe  Fe31      1.0  0.63784  0.32124  0.04717  1.0000
  H   H298      1.0  0.34921  0.99934  0.13447  1.0000
  H   H299      1.0  0.56475  0.41564  0.14347  1.0000
  Fe  Fe32      1.0  0.62651  0.35622  0.12385  1.0000
  S   S64       1.0  0.59690  0.36307  0.16539  1.0000
  C   C242      1.0  0.34685  0.01185  0.06943  1.0000
  S   S65       1.0  0.61491  0.35466  0.05657  1.0000
  C   C243      1.0  0.43094  0.40443  0.39573  1.0000
  N   N18       1.0  0.58601  0.43988  0.10595  1.0000
  S   S66       1.0  0.63393  0.16495  0.05809  1.0000
  H   H300      1.0  0.37857  0.30557  0.11673  1.0000
  Fe  Fe33      1.0  0.47229  0.35254  0.35556  1.0000
  S   S67       1.0  0.49477  0.31764  0.36356  1.0000
  S   S68       1.0  0.45222  0.35883  0.29553  1.0000
  Fe  Fe34      1.0  0.49026  0.38303  0.43356  1.0000
  S   S69       1.0  0.51429  0.35022  0.44569  1.0000
  C   C244      1.0  0.35819  0.24786  0.00818  1.0000
  Fe  Fe35      1.0  0.51960  0.34949  0.37446  1.0000
  S   S70       1.0  0.55320  0.34447  0.34707  1.0000
  Fe  Fe36      1.0  0.48838  0.31976  0.43401  1.0000
  H   H301      1.0  0.45760  0.44898  0.33452  1.0000
  S   S71       1.0  0.49756  0.38429  0.36363  1.0000
  S   S72       1.0  0.46397  0.35254  0.42470  1.0000
  C   C245      1.0  0.40621  0.42680  0.26140  1.0000
  H   H302      1.0  0.43319  0.38621  0.37581  1.0000
  C   C246      1.0  0.58509  0.35710  0.21606  1.0000
  C   C247      1.0  0.56380  0.36431  0.22243  1.0000
  C   C248      1.0  0.55369  0.36029  0.26188  1.0000
  C   C249      1.0  0.56479  0.34912  0.29583  1.0000
  C   C250      1.0  0.58603  0.34168  0.28926  1.0000
  C   C251      1.0  0.59609  0.34549  0.24971  1.0000
  H   H303      1.0  0.55500  0.37316  0.19673  1.0000
  H   H304      1.0  0.53739  0.36614  0.26628  1.0000
  H   H305      1.0  0.59483  0.33312  0.31522  1.0000
  H   H306      1.0  0.61246  0.33986  0.24568  1.0000
  C   C252      1.0  0.63131  0.25331  0.01974  1.0000
  C   C253      1.0  0.63396  0.19876  0.04214  1.0000
  C   C254      1.0  0.63822  0.21883  0.07204  1.0000
  C   C255      1.0  0.63707  0.24610  0.06079  1.0000
  C   C256      1.0  0.34521  0.22924  0.08722  1.0000
  H   H307      1.0  0.64023  0.26146  0.08397  1.0000
  H   H308      1.0  0.57811  0.41410  0.05342  1.0000
  C   C257      1.0  0.39770  0.23706  0.16689  1.0000
  C   C258      1.0  0.35336  0.46454  0.06353  1.0000
  C   C259      1.0  0.40046  0.25899  0.09870  1.0000
  C   C260      1.0  0.64166  0.45714  0.04735  1.0000
  Fe  Fe37      1.0  0.34498  0.07920  0.03229  1.0000
  H   H309      1.0  0.64271  0.44212  0.07183  1.0000
  C   C261      1.0  0.38381  0.35973  0.24353  1.0000
  C   C262      1.0  0.40119  0.36444  0.21712  1.0000
  C   C263      1.0  0.42191  0.36387  0.23366  1.0000
  C   C264      1.0  0.42562  0.35867  0.27679  1.0000
  C   C265      1.0  0.40823  0.35394  0.30320  1.0000
  C   C266      1.0  0.38750  0.35455  0.28666  1.0000
  H   H310      1.0  0.39869  0.36888  0.18406  1.0000
  H   H311      1.0  0.43518  0.36779  0.21295  1.0000
  H   H312      1.0  0.41071  0.34984  0.33637  1.0000
  H   H313      1.0  0.37420  0.35098  0.30748  1.0000
  C   C267      1.0  0.35364  0.26642  0.04031  1.0000
  C   C268      1.0  0.34663  0.25699  0.07953  1.0000
  S   S73       1.0  0.63874  0.41520  0.99131  1.0000
  C   C269      1.0  0.35025  0.21067  0.05551  1.0000
  C   C270      1.0  0.58522  0.19412  0.11370  1.0000
  H   H314      1.0  0.35836  0.44953  0.08614  1.0000
  C   C271      1.0  0.63944  0.99628  0.00667  1.0000
  H   H315      1.0  0.38964  0.42737  0.37906  1.0000
  H   H316      1.0  0.38601  0.27767  0.22407  1.0000
  C   C272      1.0  0.34474  0.00314  0.02774  1.0000
  H   H317      1.0  0.56130  0.45099  0.14983  1.0000
  C   C273      1.0  0.59039  0.41655  0.07817  1.0000
  H   H318      1.0  0.58673  0.20530  0.04830  1.0000
  H   H319      1.0  0.50902  0.10450  0.42774  1.0000
  H   H320      1.0  0.36565  0.29116  0.16184  1.0000
  H   H321      1.0  0.39535  0.19378  0.16499  1.0000
  H   H322      1.0  0.59067  0.45053  0.01844  1.0000
  H   H323      1.0  0.41468  0.27637  0.22144  1.0000
  H   H324      1.0  0.39638  0.23675  0.20086  1.0000
  C   C274      1.0  0.39944  0.26137  0.14334  1.0000
  C   C275      1.0  0.58581  0.46586  0.08301  1.0000
  H   H325      1.0  0.41927  0.32364  0.16522  1.0000
  H   H326      1.0  0.37904  0.32284  0.16617  1.0000
  C   C276      1.0  0.56518  0.43524  0.12626  1.0000
  H   H327      1.0  0.44296  0.40407  0.42135  1.0000
  C   C277      1.0  0.41666  0.42861  0.33604  1.0000
  S   S74       1.0  0.62798  0.28708  0.00505  1.0000
  C   C278      1.0  0.39720  0.21209  0.14670  1.0000
  H   H328      1.0  0.43294  0.29292  0.15397  1.0000
  H   H329      1.0  0.60420  0.42031  0.15487  1.0000
  C   C279      1.0  0.38499  0.42531  0.27285  1.0000
  H   H330      1.0  0.51267  0.06265  0.47018  1.0000
  H   H331      1.0  0.64502  0.01119  0.98438  1.0000
  S   S75       1.0  0.64840  0.32064  0.11476  1.0000
  H   H332      1.0  0.41056  0.42578  0.22831  1.0000
  H   H333      1.0  0.41704  0.30912  0.11438  1.0000
  H   H334      1.0  0.64202  0.21326  0.10417  1.0000
  H   H335      1.0  0.40058  0.23266  0.04479  1.0000
  C   C280      1.0  0.41797  0.30407  0.14852  1.0000
  N   N19       1.0  0.58657  0.27914  0.14076  1.0000
  C   C281      1.0  0.58812  0.29657  0.10271  1.0000
  C   C282      1.0  0.56746  0.28740  0.16462  1.0000
  C   C283      1.0  0.60545  0.28447  0.16716  1.0000
  C   C284      1.0  0.58541  0.25012  0.13073  1.0000
  C   C285      1.0  0.58433  0.23080  0.16374  1.0000
  C   C286      1.0  0.58585  0.24012  0.08866  1.0000
  C   C287      1.0  0.58435  0.20323  0.15523  1.0000
  C   C288      1.0  0.62896  0.20599  0.00075  1.0000
  H   H336      1.0  0.58403  0.18881  0.18093  1.0000
  H   H337      1.0  0.57420  0.29410  0.08171  1.0000
  H   H338      1.0  0.58875  0.31821  0.11124  1.0000
  H   H339      1.0  0.60271  0.29230  0.08417  1.0000
  H   H340      1.0  0.55284  0.28288  0.14650  1.0000
  H   H341      1.0  0.56761  0.30937  0.17152  1.0000
  H   H342      1.0  0.56613  0.27717  0.19575  1.0000
  H   H343      1.0  0.62003  0.27688  0.15153  1.0000
  H   H344      1.0  0.60766  0.30634  0.17312  1.0000
  H   H345      1.0  0.60436  0.27485  0.19878  1.0000
  H   H346      1.0  0.58386  0.23688  0.19647  1.0000
  H   H347      1.0  0.46656  0.43096  0.37996  1.0000
  C   C289      1.0  0.49712  0.10888  0.45270  1.0000
  C   C290      1.0  0.58567  0.21252  0.08055  1.0000
  H   H348      1.0  0.57339  0.03061  0.98987  1.0000
  H   H349      1.0  0.60612  0.41838  0.06256  1.0000
  S   S76       1.0  0.37059  0.10797  0.01236  1.0000
  C   C291      1.0  0.37931  0.42573  0.31534  1.0000
  H   H350      1.0  0.59047  0.39741  0.09627  1.0000
  H   H351      1.0  0.45877  0.41263  0.33418  1.0000
  C   C292      1.0  0.60246  0.44029  0.13931  1.0000
  H   H352      1.0  0.55231  0.43505  0.10237  1.0000
  S   S77       1.0  0.34794  0.04639  0.08208  1.0000
  H   H353      1.0  0.58701  0.25307  0.06130  1.0000
  H   H354      1.0  0.48654  0.12496  0.44051  1.0000
  Fe  Fe38      1.0  0.63218  0.07084  0.00682  1.0000
  C   C293      1.0  0.40039  0.28723  0.21029  1.0000
  C   C294      1.0  0.40028  0.23392  0.07898  1.0000
  C   C295      1.0  0.35625  0.22003  0.01555  1.0000
  H   H355      1.0  0.58592  0.17277  0.10708  1.0000
  C   C296      1.0  0.33629  0.45924  0.03693  1.0000
  C   C297      1.0  0.39484  0.42751  0.34655  1.0000
  C   C298      1.0  0.34756  0.99271  0.10213  1.0000
  H   H356      1.0  0.60901  0.99011  0.09479  1.0000
  S   S78       1.0  0.61742  0.03718  0.04505  1.0000
  H   H357      1.0  0.61810  0.44597  0.12604  1.0000
  H   H358      1.0  0.39749  0.19117  0.08733  1.0000
  Fe  Fe39      1.0  0.63631  0.13174  0.00970  1.0000
  H   H359      1.0  0.34063  0.22211  0.11824  1.0000
  H   H360      1.0  0.40069  0.27654  0.07848  1.0000
  N   N20       1.0  0.43280  0.42916  0.36983  1.0000
  C   C299      1.0  0.42953  0.45280  0.39753  1.0000
  C   C300      1.0  0.39853  0.21052  0.10289  1.0000
  Fe  Fe40      1.0  0.34717  0.14113  0.02361  1.0000
  H   H361      1.0  0.40112  0.30768  0.22435  1.0000
  N   N21       1.0  0.39946  0.28822  0.16339  1.0000
  C   C301      1.0  0.37989  0.30258  0.15147  1.0000
  H   H362      1.0  0.37297  0.42305  0.24876  1.0000
  S   S79       1.0  0.65624  0.09837  0.03539  1.0000
  C   C302      1.0  0.45484  0.43055  0.35369  1.0000
  H   H363      1.0  0.59881  0.45466  0.16506  1.0000
  H   H364      1.0  0.43802  0.42818  0.28110  1.0000
  H   H365      1.0  0.53154  0.14187  0.46409  1.0000
  C   C303      1.0  0.64035  0.44930  0.00516  1.0000
  H   H366      1.0  0.41420  0.45201  0.41459  1.0000
  H   H367      1.0  0.41534  0.40250  0.41149  1.0000
  H   H368      1.0  0.51952  0.45071  0.48363  1.0000
  H   H369      1.0  0.48675  0.09098  0.45717  1.0000
  C   C304      1.0  0.61913  0.98429  0.06880  1.0000
  H   H370      1.0  0.36032  0.20588  0.99099  1.0000
  H   H371      1.0  0.34431  0.01765  0.00227  1.0000
  C   C305      1.0  0.62745  0.23324  0.98971  1.0000
  H   H372      1.0  0.43003  0.47180  0.37892  1.0000
  H   H373      1.0  0.50640  0.15829  0.47125  1.0000
  S   S80       1.0  0.47829  0.28492  0.47968  1.0000
  S   S81       1.0  0.66324  0.34899  0.02439  1.0000
  S   S82       1.0  0.47954  0.41931  0.47530  1.0000
  S   S83       1.0  0.61055  0.10419  0.98646  1.0000
  C   C306      1.0  0.53732  0.05118  0.51105  1.0000
  H   H374      1.0  0.52283  0.15337  0.51505  1.0000
  H   H375      1.0  0.50212  0.43357  0.66605  1.0000
  C   C307      1.0  0.55882  0.03834  0.86628  1.0000
  Fe  Fe41      1.0  0.35623  0.10524  0.94704  1.0000
  S   S84       1.0  0.38017  0.09359  0.89508  1.0000
  H   H376      1.0  0.40498  0.16805  0.88267  1.0000
  H   H377      1.0  0.54363  0.00999  0.77357  1.0000
  C   C308      1.0  0.48831  0.99159  0.58930  1.0000
  H   H378      1.0  0.49776  0.12598  0.55604  1.0000
  C   C309      1.0  0.59753  0.04275  0.92164  1.0000
  Fe  Fe42      1.0  0.62874  0.10305  0.92529  1.0000
  S   S85       1.0  0.61480  0.10116  0.85827  1.0000
  C   C310      1.0  0.51760  0.14359  0.48535  1.0000
  Fe  Fe43      1.0  0.45854  0.11596  0.69032  1.0000
  S   S86       1.0  0.48517  0.14538  0.70033  1.0000
  S   S87       1.0  0.42684  0.12729  0.72178  1.0000
  Fe  Fe44      1.0  0.48592  0.08034  0.63031  1.0000
  S   S88       1.0  0.51422  0.10779  0.64019  1.0000
  S   S89       1.0  0.48719  0.04798  0.57635  1.0000
  Fe  Fe45      1.0  0.50545  0.10860  0.70959  1.0000
  S   S90       1.0  0.52249  0.10746  0.77436  1.0000
  Fe  Fe46      1.0  0.49177  0.14288  0.63045  1.0000
  S   S91       1.0  0.50329  0.17797  0.58647  1.0000
  S   S92       1.0  0.47845  0.07905  0.70070  1.0000
  S   S93       1.0  0.46379  0.11557  0.61938  1.0000
  C   C311      1.0  0.55125  0.08486  0.55795  1.0000
  H   H379      1.0  0.60930  0.03839  0.89636  1.0000
  S   S94       1.0  0.33413  0.14056  0.95755  1.0000
  C   C312      1.0  0.48847  0.01303  0.56043  1.0000
  H   H380      1.0  0.50651  0.31760  0.53323  1.0000
  N   N22       1.0  0.50753  0.11694  0.49274  1.0000
  H   H381      1.0  0.48968  0.02269  0.49412  1.0000
  H   H382      1.0  0.45403  0.24810  0.53170  1.0000
  H   H383      1.0  0.59934  0.99969  0.97274  1.0000
  C   C313      1.0  0.47140  0.46393  0.52606  1.0000
  C   C314      1.0  0.47014  0.24095  0.53213  1.0000
  C   C315      1.0  0.47509  0.21753  0.55586  1.0000
  C   C316      1.0  0.49583  0.20769  0.55706  1.0000
  C   C317      1.0  0.51138  0.22183  0.53380  1.0000
  H   H384      1.0  0.53731  0.12350  0.55541  1.0000
  C   C318      1.0  0.55117  0.05857  0.54307  1.0000
  H   H385      1.0  0.46282  0.20714  0.57330  1.0000
  C   C319      1.0  0.54901  0.03558  0.82702  1.0000
  C   C320      1.0  0.58903  0.10398  0.83555  1.0000
  C   C321      1.0  0.58669  0.10099  0.79155  1.0000
  C   C322      1.0  0.56664  0.10254  0.77208  1.0000
  C   C323      1.0  0.54851  0.10694  0.79644  1.0000
  C   C324      1.0  0.55085  0.10987  0.84051  1.0000
  C   C325      1.0  0.57093  0.10865  0.85990  1.0000
  H   H386      1.0  0.60054  0.09742  0.77229  1.0000
  H   H387      1.0  0.56522  0.10005  0.73829  1.0000
  H   H388      1.0  0.53705  0.11301  0.85993  1.0000
  H   H389      1.0  0.57238  0.11118  0.89367  1.0000
  H   H390      1.0  0.43107  0.11464  0.97461  1.0000
  H   H391      1.0  0.46920  0.33391  0.51847  1.0000
  H   H392      1.0  0.53677  0.03044  0.50065  1.0000
  C   C326      1.0  0.57103  0.01730  0.88404  1.0000
  C   C327      1.0  0.59252  0.99654  0.94081  1.0000
  S   S95       1.0  0.64930  0.06806  0.94482  1.0000
  C   C328      1.0  0.48961  0.00657  0.51702  1.0000
  C   C329      1.0  0.39258  0.10338  0.84644  1.0000
  C   C330      1.0  0.38667  0.12632  0.82371  1.0000
  C   C331      1.0  0.39723  0.13323  0.78570  1.0000
  C   C332      1.0  0.41386  0.11739  0.76974  1.0000
  C   C333      1.0  0.41957  0.09430  0.79218  1.0000
  C   C334      1.0  0.40907  0.08743  0.83022  1.0000
  H   H393      1.0  0.37396  0.13874  0.83538  1.0000
  H   H394      1.0  0.39250  0.15102  0.76854  1.0000
  H   H395      1.0  0.43186  0.08149  0.77979  1.0000
  H   H396      1.0  0.41364  0.06947  0.84711  1.0000
  N   N23       1.0  0.47060  0.12859  0.85159  1.0000
  C   C335      1.0  0.47296  0.09925  0.84466  1.0000
  C   C336      1.0  0.46932  0.14158  0.80942  1.0000
  C   C337      1.0  0.48989  0.13892  0.87250  1.0000
  C   C338      1.0  0.45198  0.13378  0.87877  1.0000
  C   C339      1.0  0.45021  0.12125  0.91897  1.0000
  C   C340      1.0  0.43527  0.15120  0.86664  1.0000
  C   C341      1.0  0.43255  0.12524  0.94480  1.0000
  C   C342      1.0  0.41788  0.15542  0.89311  1.0000
  H   H397      1.0  0.36359  0.25504  0.97772  1.0000
  H   H398      1.0  0.45805  0.09036  0.83259  1.0000
  H   H399      1.0  0.48554  0.09471  0.82111  1.0000
  H   H400      1.0  0.47727  0.08822  0.87383  1.0000
  H   H401      1.0  0.48347  0.13704  0.78983  1.0000
  H   H402      1.0  0.46855  0.16384  0.81170  1.0000
  H   H403      1.0  0.45542  0.13424  0.79135  1.0000
  H   H404      1.0  0.49314  0.12844  0.90277  1.0000
  H   H405      1.0  0.50410  0.13624  0.85206  1.0000
  H   H406      1.0  0.48844  0.16077  0.87933  1.0000
  H   H407      1.0  0.46230  0.10785  0.93039  1.0000
  H   H408      1.0  0.43488  0.16118  0.83633  1.0000
  H   H409      1.0  0.45948  0.36168  0.54878  1.0000
  H   H410      1.0  0.40239  0.14459  0.95123  1.0000
  S   S96       1.0  0.65301  0.13362  0.94702  1.0000
  N   N24       1.0  0.48841  0.34464  0.57228  1.0000
  C   C343      1.0  0.55111  0.01189  0.80420  1.0000
  C   C344      1.0  0.50878  0.33510  0.55473  1.0000
  C   C345      1.0  0.47854  0.32174  0.59532  1.0000
  C   C346      1.0  0.49227  0.36862  0.59880  1.0000
  C   C347      1.0  0.49977  0.39286  0.58019  1.0000
  C   C348      1.0  0.48894  0.36876  0.64324  1.0000
  C   C349      1.0  0.50311  0.41598  0.60423  1.0000
  C   C350      1.0  0.49252  0.39198  0.66709  1.0000
  H   H411      1.0  0.48160  0.36574  0.51395  1.0000
  H   H412      1.0  0.62303  0.23879  0.95788  1.0000
  H   H413      1.0  0.63873  0.46290  0.94056  1.0000
  C   C351      1.0  0.47409  0.35183  0.53697  1.0000
  H   H414      1.0  0.51707  0.35094  0.53627  1.0000
  C   C352      1.0  0.49948  0.41556  0.64759  1.0000
  H   H415      1.0  0.51972  0.32872  0.58028  1.0000
  H   H416      1.0  0.48901  0.31389  0.62064  1.0000
  H   H417      1.0  0.46304  0.32745  0.60922  1.0000
  H   H418      1.0  0.47554  0.30436  0.57385  1.0000
  H   H419      1.0  0.50301  0.39426  0.54669  1.0000
  H   H420      1.0  0.48354  0.35123  0.66029  1.0000
  H   H421      1.0  0.59036  0.06249  0.91368  1.0000
  H   H422      1.0  0.48250  0.10049  0.53111  1.0000
  C   C353      1.0  0.56591  0.02875  0.95809  1.0000
  H   H423      1.0  0.60598  0.99089  0.91999  1.0000
  H   H424      1.0  0.48985  0.39173  0.70092  1.0000
  H   H425      1.0  0.60625  0.04555  0.95180  1.0000
  H   H426      1.0  0.52751  0.21473  0.53432  1.0000
  C   C354      1.0  0.48684  0.44999  0.50246  1.0000
  H   H427      1.0  0.50847  0.43438  0.58901  1.0000
  N   N25       1.0  0.58157  0.02102  0.92533  1.0000
  C   C355      1.0  0.53739  0.10383  0.54101  1.0000
  C   C356      1.0  0.50731  0.46086  0.50137  1.0000
  H   H428      1.0  0.45551  0.45596  0.52765  1.0000
  C   C357      1.0  0.56305  0.99084  0.82053  1.0000
  C   C358      1.0  0.52348  0.07004  0.49368  1.0000
  H   H429      1.0  0.47908  0.13542  0.51669  1.0000
  H   H430      1.0  0.51869  0.25560  0.49257  1.0000
  C   C359      1.0  0.49092  0.11986  0.52532  1.0000
  C   C360      1.0  0.50642  0.24521  0.51000  1.0000
  C   C361      1.0  0.52316  0.09709  0.50804  1.0000
  C   C362      1.0  0.57295  0.99338  0.85980  1.0000
  H   H431      1.0  0.48741  0.99586  0.62273  1.0000
  C   C363      1.0  0.48569  0.25507  0.50884  1.0000
  H   H432      1.0  0.53995  0.05207  0.81388  1.0000
  H   H433      1.0  0.55861  0.04860  0.95166  1.0000
  H   H434      1.0  0.56149  0.04372  0.55713  1.0000
  C   C364      1.0  0.41639  0.14224  0.93182  1.0000
  H   H435      1.0  0.56160  0.09040  0.58376  1.0000
  H   H436      1.0  0.55708  0.05731  0.88230  1.0000
  S   S97       1.0  0.33156  0.07458  0.96730  1.0000
  C   C365      1.0  0.63963  0.46891  0.97333  1.0000
  H   H437      1.0  0.55302  0.01356  0.96053  1.0000
  H   H438      1.0  0.62558  0.19062  0.97759  1.0000
  C   C366      1.0  0.48039  0.88443  0.22380  1.0000
  H   H439      1.0  0.58129  0.49043  0.13935  1.0000
  H   H440      1.0  0.56339  0.72584  0.43101  1.0000
  C   C367      1.0  0.34764  0.71217  0.01505  1.0000
  C   C368      1.0  0.35711  0.50936  0.03257  1.0000
  H   H441      1.0  0.47547  0.86665  0.20509  1.0000
  Fe  Fe47      1.0  0.35436  0.84989  0.15790  1.0000
  S   S98       1.0  0.37216  0.83797  0.21860  1.0000
  S   S99       1.0  0.36967  0.85584  0.09378  1.0000
  Fe  Fe48      1.0  0.63557  0.63175  0.98863  1.0000
  H   H442      1.0  0.46700  0.88856  0.24580  1.0000
  Fe  Fe49      1.0  0.63899  0.88006  0.06292  1.0000
  S   S100      1.0  0.65008  0.87610  0.13024  1.0000
  S   S101      1.0  0.64253  0.91548  0.01829  1.0000
  Fe  Fe50      1.0  0.63715  0.81835  0.05069  1.0000
  S   S102      1.0  0.64817  0.81060  0.11676  1.0000
  H   H443      1.0  0.51277  0.85181  0.29194  1.0000
  Fe  Fe51      1.0  0.62505  0.84329  0.13575  1.0000
  S   S103      1.0  0.59956  0.83199  0.18548  1.0000
  C   C369      1.0  0.36264  0.72358  0.08284  1.0000
  S   S104      1.0  0.61298  0.84925  0.06887  1.0000
  C   C370      1.0  0.64118  0.48452  0.05782  1.0000
  S   S105      1.0  0.63801  0.53807  0.04066  1.0000
  S   S106      1.0  0.62029  0.66442  0.02745  1.0000
  C   C371      1.0  0.36379  0.48952  0.06119  1.0000
  Fe  Fe52      1.0  0.47108  0.86523  0.38442  1.0000
  S   S107      1.0  0.49452  0.83115  0.37899  1.0000
  S   S108      1.0  0.44856  0.88135  0.33329  1.0000
  C   C372      1.0  0.41463  0.89910  0.41585  1.0000
  S   S109      1.0  0.51843  0.85760  0.46165  1.0000
  H   H444      1.0  0.45980  0.95629  0.43084  1.0000
  Fe  Fe53      1.0  0.51938  0.86273  0.39044  1.0000
  S   S110      1.0  0.54922  0.87192  0.35088  1.0000
  Fe  Fe54      1.0  0.49194  0.82764  0.45060  1.0000
  C   C373      1.0  0.40567  0.87343  0.41436  1.0000
  S   S111      1.0  0.49626  0.89688  0.39319  1.0000
  S   S112      1.0  0.46673  0.86006  0.45508  1.0000
  N   N26       1.0  0.43137  0.93761  0.45488  1.0000
  H   H445      1.0  0.56726  0.90065  0.18979  1.0000
  C   C374      1.0  0.58588  0.84362  0.23157  1.0000
  C   C375      1.0  0.56858  0.82859  0.24708  1.0000
  C   C376      1.0  0.55705  0.83692  0.28306  1.0000
  C   C377      1.0  0.56269  0.86049  0.30440  1.0000
  C   C378      1.0  0.58008  0.87540  0.28910  1.0000
  C   C379      1.0  0.59156  0.86713  0.25299  1.0000
  H   H446      1.0  0.56404  0.81031  0.23104  1.0000
  H   H447      1.0  0.54415  0.82474  0.29474  1.0000
  H   H448      1.0  0.58476  0.89354  0.30539  1.0000
  H   H449      1.0  0.60482  0.87893  0.24179  1.0000
  H   H450      1.0  0.56481  0.86431  0.13728  1.0000
  C   C380      1.0  0.62659  0.69858  0.01993  1.0000
  C   C381      1.0  0.61994  0.71732  0.05016  1.0000
  C   C382      1.0  0.62366  0.74490  0.04413  1.0000
  H   H451      1.0  0.61175  0.71049  0.07827  1.0000
  H   H452      1.0  0.61834  0.75925  0.06746  1.0000
  C   C383      1.0  0.63684  0.94940  0.02892  1.0000
  C   C384      1.0  0.51809  0.87642  0.21667  1.0000
  C   C385      1.0  0.63996  0.50415  0.02604  1.0000
  C   C386      1.0  0.34382  0.97551  0.01880  1.0000
  C   C387      1.0  0.62451  0.95710  0.06345  1.0000
  C   C388      1.0  0.34571  0.73958  0.00560  1.0000
  H   H453      1.0  0.49195  0.97530  0.46944  1.0000
  C   C389      1.0  0.39412  0.85010  0.24859  1.0000
  C   C390      1.0  0.40292  0.87566  0.24246  1.0000
  C   C391      1.0  0.41959  0.88471  0.26851  1.0000
  C   C392      1.0  0.42796  0.86828  0.30064  1.0000
  C   C393      1.0  0.41945  0.84255  0.30630  1.0000
  C   C394      1.0  0.40256  0.83367  0.28071  1.0000
  H   H454      1.0  0.39660  0.88865  0.21817  1.0000
  H   H455      1.0  0.42590  0.90471  0.26381  1.0000
  H   H456      1.0  0.42562  0.82961  0.33078  1.0000
  H   H457      1.0  0.39590  0.81389  0.28589  1.0000
  C   C395      1.0  0.35219  0.75909  0.03465  1.0000
  C   C396      1.0  0.36047  0.75108  0.07354  1.0000
  C   C397      1.0  0.53380  0.85171  0.15728  1.0000
  C   C398      1.0  0.35649  0.70405  0.05338  1.0000
  C   C399      1.0  0.54627  0.78250  0.47906  1.0000
  S   S113      1.0  0.36136  0.66991  0.06418  1.0000
  H   H458      1.0  0.51754  0.90016  0.29665  1.0000
  C   C400      1.0  0.34489  0.95634  0.05138  1.0000
  H   H459      1.0  0.46245  0.92179  0.44575  1.0000
  S   S114      1.0  0.65988  0.60566  0.01901  1.0000
  H   H460      1.0  0.40139  0.95746  0.44956  1.0000
  H   H461      1.0  0.36951  0.71743  0.11258  1.0000
  H   H462      1.0  0.39647  0.72019  0.02305  1.0000
  H   H463      1.0  0.56716  0.74525  0.36744  1.0000
  Fe  Fe55      1.0  0.49340  0.89018  0.46312  1.0000
  H   H464      1.0  0.50378  0.84244  0.18379  1.0000
  C   C401      1.0  0.58619  0.51634  0.04108  1.0000
  H   H465      1.0  0.56501  0.81990  0.43880  1.0000
  Fe  Fe56      1.0  0.35584  0.57765  0.00013  1.0000
  H   H466      1.0  0.34736  0.95044  0.11852  1.0000
  S   S115      1.0  0.37813  0.61187  0.98736  1.0000
  S   S116      1.0  0.36941  0.54120  0.03323  1.0000
  S   S117      1.0  0.63717  0.78836  0.99708  1.0000
  Fe  Fe57      1.0  0.35321  0.63833  0.01546  1.0000
  S   S118      1.0  0.33253  0.81670  0.13516  1.0000
  H   H467      1.0  0.58683  0.84092  0.38532  1.0000
  H   H468      1.0  0.41673  0.90949  0.38611  1.0000
  H   H469      1.0  0.34266  0.96894  0.98633  1.0000
  C   C402      1.0  0.58287  0.81976  0.38247  1.0000
  H   H470      1.0  0.58734  0.53565  0.02528  1.0000
  C   C403      1.0  0.56157  0.74109  0.45629  1.0000
  H   H471      1.0  0.58252  0.53362  0.10258  1.0000
  H   H472      1.0  0.64156  0.49057  0.09060  1.0000
  H   H473      1.0  0.48481  0.85717  0.29583  1.0000
  H   H474      1.0  0.53916  0.90823  0.24032  1.0000
  C   C404      1.0  0.58980  0.80549  0.34734  1.0000
  H   H475      1.0  0.57758  0.74573  0.46886  1.0000
  Fe  Fe58      1.0  0.34652  0.82463  0.07143  1.0000
  H   H476      1.0  0.53673  0.80050  0.47081  1.0000
  N   N27       1.0  0.55094  0.76587  0.44125  1.0000
  C   C405      1.0  0.51719  0.85583  0.18574  1.0000
  H   H477      1.0  0.42044  0.70156  0.02544  1.0000
  H   H478      1.0  0.44930  0.93035  0.39765  1.0000
  C   C406      1.0  0.56432  0.77981  0.40952  1.0000
  C   C407      1.0  0.57145  0.76596  0.37299  1.0000
  C   C408      1.0  0.58402  0.77869  0.34247  1.0000
  H   H479      1.0  0.42076  0.73426  0.00235  1.0000
  H   H480      1.0  0.49511  0.83717  0.25411  1.0000
  H   H481      1.0  0.50506  0.92227  0.25859  1.0000
  C   C409      1.0  0.58324  0.49029  0.10546  1.0000
  H   H482      1.0  0.48970  0.90528  0.29799  1.0000
  H   H483      1.0  0.59921  0.81550  0.32323  1.0000
  H   H484      1.0  0.39647  0.83843  0.44976  1.0000
  S   S119      1.0  0.34389  0.92192  0.03796  1.0000
  C   C410      1.0  0.55300  0.88855  0.18822  1.0000
  C   C411      1.0  0.63350  0.75389  0.00716  1.0000
  H   H485      1.0  0.58912  0.76789  0.31454  1.0000
  C   C412      1.0  0.34650  0.96503  0.09319  1.0000
  H   H486      1.0  0.61859  0.94206  0.08521  1.0000
  N   N28       1.0  0.50044  0.87996  0.24697  1.0000
  C   C413      1.0  0.55167  0.86805  0.15852  1.0000
  H   H487      1.0  0.52000  0.74770  0.44454  1.0000
  C   C414      1.0  0.50341  0.90299  0.27615  1.0000
  H   H488      1.0  0.48181  0.90183  0.20181  1.0000
  H   H489      1.0  0.53307  0.83547  0.13457  1.0000
  C   C415      1.0  0.53662  0.89266  0.21721  1.0000
  C   C416      1.0  0.57020  0.80732  0.41308  1.0000
  S   S120      1.0  0.35028  0.79317  0.02056  1.0000
  H   H490      1.0  0.36558  0.76604  0.09611  1.0000
  Fe  Fe59      1.0  0.34360  0.88601  0.08260  1.0000
  C   C417      1.0  0.49820  0.85542  0.27321  1.0000
  H   H491      1.0  0.37686  0.49367  0.08216  1.0000
  C   C418      1.0  0.58364  0.51513  0.08472  1.0000
  C   C419      1.0  0.64431  0.96906  0.00066  1.0000
  H   H492      1.0  0.40099  0.86498  0.38422  1.0000
  H   H493      1.0  0.41506  0.95347  0.40018  1.0000
  S   S121      1.0  0.66169  0.84954  0.03846  1.0000
  S   S122      1.0  0.33255  0.60368  0.03430  1.0000
  H   H494      1.0  0.52183  0.77651  0.41069  1.0000
  H   H495      1.0  0.42380  0.97827  0.43652  1.0000
  C   C420      1.0  0.34026  0.50386  0.00553  1.0000
  Fe  Fe60      1.0  0.64164  0.57111  0.99215  1.0000
  C   C421      1.0  0.41728  0.95751  0.43439  1.0000
  H   H496      1.0  0.47212  0.73503  0.46420  1.0000
  C   C422      1.0  0.42137  0.91065  0.45451  1.0000
  C   C423      1.0  0.41120  0.71556  0.00525  1.0000
  H   H497      1.0  0.34269  0.69741  0.99222  1.0000
  C   C424      1.0  0.45153  0.93654  0.43109  1.0000
  H   H498      1.0  0.53251  0.74483  0.39414  1.0000
  C   C425      1.0  0.53051  0.75836  0.42169  1.0000
  C   C426      1.0  0.40319  0.85845  0.45120  1.0000
  H   H499      1.0  0.40393  0.66524  0.99538  1.0000
  C   C427      1.0  0.58823  0.49275  0.01795  1.0000
  H   H500      1.0  0.55237  0.73100  0.48196  1.0000
  H   H501      1.0  0.59087  0.49387  0.98412  1.0000
  C   C428      1.0  0.63722  0.70751  0.98375  1.0000
  C   C429      1.0  0.63962  0.49634  0.98370  1.0000
  S   S123      1.0  0.49152  0.78661  0.48750  1.0000
  H   H502      1.0  0.48726  0.52431  0.84456  1.0000
  C   C430      1.0  0.45951  0.53968  0.78666  1.0000
  C   C431      1.0  0.54726  0.66565  0.79543  1.0000
  Fe  Fe61      1.0  0.36117  0.61693  0.92553  1.0000
  S   S124      1.0  0.38292  0.63298  0.87237  1.0000
  C   C432      1.0  0.57499  0.65130  0.94146  1.0000
  H   H503      1.0  0.44416  0.54764  0.77490  1.0000
  H   H504      1.0  0.58773  0.71393  0.90651  1.0000
  C   C433      1.0  0.44784  0.53479  0.87908  1.0000
  S   S125      1.0  0.65353  0.63562  0.92775  1.0000
  Fe  Fe62      1.0  0.63457  0.59927  0.90735  1.0000
  S   S126      1.0  0.62069  0.59911  0.84015  1.0000
  H   H505      1.0  0.52028  0.67312  0.83465  1.0000
  Fe  Fe63      1.0  0.46342  0.59434  0.67770  1.0000
  S   S127      1.0  0.48470  0.62954  0.68981  1.0000
  S   S128      1.0  0.43125  0.58649  0.70955  1.0000
  Fe  Fe64      1.0  0.49522  0.56709  0.61575  1.0000
  S   S129      1.0  0.51884  0.60131  0.62549  1.0000
  S   S130      1.0  0.50375  0.53014  0.57311  1.0000
  Fe  Fe65      1.0  0.51084  0.59881  0.69545  1.0000
  S   S131      1.0  0.52728  0.59902  0.76063  1.0000
  Fe  Fe66      1.0  0.49106  0.63000  0.61930  1.0000
  S   S132      1.0  0.48829  0.66863  0.57691  1.0000
  S   S133      1.0  0.48900  0.56347  0.68573  1.0000
  S   S134      1.0  0.46801  0.59590  0.60680  1.0000
  C   C434      1.0  0.49062  0.95810  0.53174  1.0000
  H   H506      1.0  0.60879  0.64483  0.89188  1.0000
  H   H507      1.0  0.61468  0.66584  0.93586  1.0000
  C   C435      1.0  0.49664  0.49918  0.54644  1.0000
  H   H508      1.0  0.45510  0.51574  0.87179  1.0000
  C   C436      1.0  0.48930  0.96454  0.57509  1.0000
  S   S135      1.0  0.34001  0.58067  0.93670  1.0000
  H   H509      1.0  0.44405  0.64558  0.56638  1.0000
  H   H510      1.0  0.48914  0.94842  0.59806  1.0000
  H   H511      1.0  0.58217  0.97643  0.87023  1.0000
  H   H512      1.0  0.43635  0.63829  0.66207  1.0000
  C   C437      1.0  0.49990  0.72354  0.57180  1.0000
  C   C438      1.0  0.48947  0.70171  0.55277  1.0000
  C   C439      1.0  0.47946  0.70644  0.51374  1.0000
  H   H513      1.0  0.45533  0.65949  0.63709  1.0000
  H   H514      1.0  0.35661  0.76584  0.86496  1.0000
  C   C440      1.0  0.38778  0.74810  0.94773  1.0000
  H   H515      1.0  0.39512  0.66475  0.94222  1.0000
  C   C441      1.0  0.59456  0.59760  0.81872  1.0000
  C   C442      1.0  0.59190  0.59863  0.77454  1.0000
  C   C443      1.0  0.57157  0.59849  0.75608  1.0000
  C   C444      1.0  0.55350  0.59756  0.78161  1.0000
  C   C445      1.0  0.55615  0.59627  0.82578  1.0000
  C   C446      1.0  0.57648  0.59611  0.84421  1.0000
  H   H516      1.0  0.60571  0.59966  0.75439  1.0000
  H   H517      1.0  0.56990  0.59944  0.72212  1.0000
  H   H518      1.0  0.54235  0.59550  0.84592  1.0000
  H   H519      1.0  0.57819  0.59485  0.87806  1.0000
  H   H520      1.0  0.39806  0.67606  0.65267  1.0000
  H   H521      1.0  0.43652  0.67342  0.67408  1.0000
  H   H522      1.0  0.65363  0.96316  0.97356  1.0000
  N   N29       1.0  0.42380  0.66377  0.61276  1.0000
  C   C447      1.0  0.44230  0.70919  0.60572  1.0000
  H   H523      1.0  0.57541  0.63063  0.92819  1.0000
  H   H524      1.0  0.50770  0.72054  0.60181  1.0000
  C   C448      1.0  0.39659  0.61907  0.82806  1.0000
  C   C449      1.0  0.39234  0.59334  0.81248  1.0000
  C   C450      1.0  0.40312  0.58375  0.77637  1.0000
  C   C451      1.0  0.41863  0.59942  0.75583  1.0000
  C   C452      1.0  0.42321  0.62495  0.77193  1.0000
  C   C453      1.0  0.41213  0.63475  0.80751  1.0000
  H   H525      1.0  0.38046  0.58099  0.82774  1.0000
  H   H526      1.0  0.39934  0.56402  0.76424  1.0000
  H   H527      1.0  0.43499  0.63736  0.75654  1.0000
  H   H528      1.0  0.41556  0.65470  0.81909  1.0000
  H   H529      1.0  0.56099  0.78907  0.49519  1.0000
  C   C454      1.0  0.58109  0.66460  0.83083  1.0000
  H   H530      1.0  0.40798  0.85722  0.51829  1.0000
  H   H531      1.0  0.40034  0.64030  0.64632  1.0000
  H   H532      1.0  0.55850  0.65565  0.95104  1.0000
  C   C455      1.0  0.38447  0.71139  0.89808  1.0000
  H   H533      1.0  0.52799  0.49313  0.52156  1.0000
  C   C456      1.0  0.54916  0.67326  0.87079  1.0000
  N   N30       1.0  0.58346  0.67111  0.91058  1.0000
  H   H534      1.0  0.37924  0.68025  0.98183  1.0000
  C   C457      1.0  0.41462  0.72436  0.54148  1.0000
  C   C458      1.0  0.39273  0.72112  0.93681  1.0000
  H   H535      1.0  0.42652  0.62246  0.59296  1.0000
  H   H536      1.0  0.53803  0.66306  0.76691  1.0000
  H   H537      1.0  0.54076  0.67749  0.89973  1.0000
  C   C459      1.0  0.42650  0.69893  0.94096  1.0000
  H   H538      1.0  0.47035  0.53834  0.75906  1.0000
  C   C460      1.0  0.41228  0.69930  0.56108  1.0000
  H   H539      1.0  0.56511  0.70366  0.93696  1.0000
  H   H540      1.0  0.57674  0.65801  0.76418  1.0000
  S   S136      1.0  0.61541  0.59714  0.96721  1.0000
  H   H541      1.0  0.38779  0.69123  0.88731  1.0000
  H   H542      1.0  0.39986  0.68629  0.54976  1.0000
  H   H543      1.0  0.49501  0.55727  0.86205  1.0000
  H   H544      1.0  0.59094  0.70028  0.95868  1.0000
  C   C461      1.0  0.44440  0.73425  0.58605  1.0000
  H   H545      1.0  0.41867  0.60071  0.90713  1.0000
  H   H546      1.0  0.45407  0.70436  0.62913  1.0000
  C   C462      1.0  0.49029  0.75399  0.51317  1.0000
  S   S137      1.0  0.65966  0.57032  0.93087  1.0000
  N   N31       1.0  0.46827  0.55710  0.82028  1.0000
  C   C463      1.0  0.47308  0.58372  0.80113  1.0000
  C   C464      1.0  0.45296  0.55835  0.85573  1.0000
  C   C465      1.0  0.44208  0.58226  0.86697  1.0000
  C   C466      1.0  0.42711  0.58239  0.89961  1.0000
  C   C467      1.0  0.43285  0.53518  0.91165  1.0000
  C   C468      1.0  0.42248  0.55893  0.92184  1.0000
  H   H547      1.0  0.45666  0.51879  0.79770  1.0000
  H   H548      1.0  0.47983  0.59789  0.82465  1.0000
  H   H549      1.0  0.48489  0.58211  0.77518  1.0000
  H   H550      1.0  0.45893  0.59282  0.78641  1.0000
  H   H551      1.0  0.44447  0.60102  0.85050  1.0000
  H   H552      1.0  0.42367  0.90154  0.52236  1.0000
  H   H553      1.0  0.45724  0.74759  0.59483  1.0000
  H   H554      1.0  0.50841  0.76578  0.56766  1.0000
  H   H555      1.0  0.36520  0.71924  0.84350  1.0000
  H   H556      1.0  0.61422  0.68029  0.88436  1.0000
  C   C469      1.0  0.43071  0.74175  0.55385  1.0000
  H   H557      1.0  0.50092  0.54630  0.80944  1.0000
  C   C470      1.0  0.48865  0.54568  0.83485  1.0000
  H   H558      1.0  0.38992  0.66009  0.60448  1.0000
  C   C471      1.0  0.50029  0.74934  0.55226  1.0000
  H   H559      1.0  0.40413  0.73017  0.51606  1.0000
  C   C472      1.0  0.40209  0.65998  0.62965  1.0000
  S   S138      1.0  0.49146  0.92315  0.51572  1.0000
  C   C473      1.0  0.42609  0.69088  0.59380  1.0000
  H   H560      1.0  0.43288  0.76090  0.53796  1.0000
  C   C474      1.0  0.57140  0.66965  0.87063  1.0000
  C   C475      1.0  0.58166  0.69841  0.92889  1.0000
  C   C476      1.0  0.53730  0.67105  0.83373  1.0000
  H   H561      1.0  0.37085  0.78417  0.93165  1.0000
  C   C477      1.0  0.60626  0.66529  0.90515  1.0000
  H   H562      1.0  0.64285  0.69325  0.96070  1.0000
  H   H563      1.0  0.64803  0.74202  0.94847  1.0000
  C   C478      1.0  0.51210  0.48511  0.52306  1.0000
  C   C479      1.0  0.42783  0.64322  0.57992  1.0000
  H   H564      1.0  0.59785  0.66112  0.82730  1.0000
  C   C480      1.0  0.56910  0.66277  0.79394  1.0000
  C   C481      1.0  0.43864  0.65868  0.64809  1.0000
  H   H565      1.0  0.46404  0.49839  0.56549  1.0000
  C   C482      1.0  0.47621  0.48816  0.54777  1.0000
  H   H566      1.0  0.58441  0.65105  0.97120  1.0000
  C   C483      1.0  0.49079  0.97953  0.50281  1.0000
  H   H567      1.0  0.42901  0.51691  0.92881  1.0000
  H   H568      1.0  0.42402  0.68848  0.91030  1.0000
  H   H569      1.0  0.56478  0.97251  0.80244  1.0000
  C   C484      1.0  0.37160  0.72736  0.87256  1.0000
  H   H570      1.0  0.41654  0.64451  0.55325  1.0000
  H   H571      1.0  0.42158  0.94920  0.51764  1.0000
  H   H572      1.0  0.63875  0.51138  0.95904  1.0000
  H   H573      1.0  0.43478  0.71821  0.93402  1.0000
  C   C485      1.0  0.39575  0.67746  0.97092  1.0000
  S   S139      1.0  0.33720  0.64562  0.95357  1.0000
  C   C486      1.0  0.36678  0.75356  0.88451  1.0000
  H   H574      1.0  0.47130  0.69008  0.49840  1.0000
  C   C487      1.0  0.37492  0.76391  0.92190  1.0000
  C   C488      1.0  0.47989  0.73215  0.49422  1.0000
  H   H575      1.0  0.41064  0.55908  0.94673  1.0000
  N   N32       1.0  0.40628  0.70374  0.96333  1.0000
  H   H576      1.0  0.33924  0.74569  0.97548  1.0000
  C   C489      1.0  0.40965  0.86910  0.48973  1.0000
  H   H577      1.0  0.53664  0.77128  0.50278  1.0000
  H   H578      1.0  0.43727  0.68609  0.96001  1.0000
  H   H579      1.0  0.58147  0.97922  0.94384  1.0000
  C   C490      1.0  0.41865  0.89479  0.49160  1.0000
  C   C491      1.0  0.64031  0.73514  0.97705  1.0000
  H   H580      1.0  0.44764  0.93449  0.51459  1.0000
  H   H581      1.0  0.39310  0.75738  0.97662  1.0000
  H   H582      1.0  0.44362  0.96795  0.49734  1.0000
  C   C492      1.0  0.43612  0.94766  0.49802  1.0000
  H   H583      1.0  0.33519  0.51882  0.98292  1.0000
  C   C493      1.0  0.94578  0.17099  0.21797  1.0000
  C   C494      1.0  0.68603  0.26165  0.01981  1.0000
  S   S140      1.0  0.96449  0.10261  0.44510  1.0000
  H   H584      1.0  0.84746  0.02552  0.17944  1.0000
  C   C495      1.0  0.91967  0.02399  0.20805  1.0000
  C   C496      1.0  0.77504  0.20781  0.08355  1.0000
  Fe  Fe67      1.0  0.97406  0.09795  0.37647  1.0000
  S   S141      1.0  0.95689  0.09658  0.31216  1.0000
  C   C497      1.0  0.69999  0.21730  0.03952  1.0000
  S   S142      1.0  0.82496  0.35576  0.03472  1.0000
  S   S143      1.0  0.84550  0.42208  0.06950  1.0000
  S   S144      1.0  0.85278  0.29512  0.06016  1.0000
  S   S145      1.0  0.70832  0.35069  0.10394  1.0000
  Fe  Fe68      1.0  0.85264  0.10905  0.15777  1.0000
  S   S146      1.0  0.87187  0.10682  0.09828  1.0000
  S   S147      1.0  0.86589  0.11019  0.22523  1.0000
  Fe  Fe69      1.0  0.81056  0.10997  0.10774  1.0000
  S   S148      1.0  0.82710  0.10768  0.04535  1.0000
  S   S149      1.0  0.77471  0.11228  0.11395  1.0000
  Fe  Fe70      1.0  0.84768  0.07691  0.07649  1.0000
  S   S150      1.0  0.85929  0.04168  0.03841  1.0000
  Fe  Fe71      1.0  0.84960  0.13788  0.07258  1.0000
  S   S151      1.0  0.86199  0.17015  0.02875  1.0000
  S   S152      1.0  0.82964  0.07671  0.13757  1.0000
  S   S153      1.0  0.83180  0.14256  0.13348  1.0000
  H   H585      1.0  0.88432  0.06536  0.16523  1.0000
  C   C498      1.0  0.71955  0.10447  0.04897  1.0000
  C   C499      1.0  0.73463  0.10773  0.08127  1.0000
  C   C500      1.0  0.75638  0.10829  0.07201  1.0000
  C   C501      1.0  0.76288  0.10593  0.02993  1.0000
  H   H586      1.0  0.70293  0.10360  0.05671  1.0000
  H   H587      1.0  0.72943  0.10949  0.11372  1.0000
  H   H588      1.0  0.77950  0.10677  0.02224  1.0000
  C   C502      1.0  0.84843  0.45627  0.05637  1.0000
  H   H589      1.0  0.90666  0.04450  0.32312  1.0000
  C   C503      1.0  0.83897  0.00154  0.08311  1.0000
  C   C504      1.0  0.85137  0.00834  0.04809  1.0000
  C   C505      1.0  0.69310  0.17427  0.07265  1.0000
  C   C506      1.0  0.75933  0.35286  0.99908  1.0000
  H   H590      1.0  0.83386  0.01696  0.10477  1.0000
  C   C507      1.0  0.85385  0.26049  0.04931  1.0000
  H   H591      1.0  0.71899  0.26774  0.10338  1.0000
  C   C508      1.0  0.85783  0.20473  0.03675  1.0000
  C   C509      1.0  0.84939  0.21443  0.07454  1.0000
  C   C510      1.0  0.84766  0.24226  0.08098  1.0000
  H   H592      1.0  0.84441  0.20054  0.09887  1.0000
  H   H593      1.0  0.84156  0.24976  0.11063  1.0000
  H   H594      1.0  0.79227  0.31136  0.04473  1.0000
  C   C511      1.0  0.72250  0.34607  0.02075  1.0000
  C   C512      1.0  0.72764  0.35134  0.06291  1.0000
  C   C513      1.0  0.74876  0.35730  0.07289  1.0000
  C   C514      1.0  0.76449  0.35821  0.04121  1.0000
  C   C515      1.0  0.79192  0.29008  0.05565  1.0000
  H   H595      1.0  0.75298  0.36147  0.10533  1.0000
  H   H596      1.0  0.78055  0.36314  0.04958  1.0000
  C   C516      1.0  0.93141  0.10088  0.28886  1.0000
  C   C517      1.0  0.92954  0.09976  0.24451  1.0000
  C   C518      1.0  0.90976  0.10269  0.22440  1.0000
  C   C519      1.0  0.89145  0.10661  0.24847  1.0000
  C   C520      1.0  0.89332  0.10778  0.29277  1.0000
  C   C521      1.0  0.91312  0.10499  0.31286  1.0000
  H   H597      1.0  0.94355  0.09660  0.22556  1.0000
  H   H598      1.0  0.90875  0.10196  0.19037  1.0000
  H   H599      1.0  0.87932  0.11084  0.31181  1.0000
  H   H600      1.0  0.91420  0.10587  0.34691  1.0000
  H   H601      1.0  0.70651  0.34100  0.01233  1.0000
  H   H602      1.0  0.74337  0.03873  0.11502  1.0000
  Fe  Fe72      1.0  0.98899  0.07044  0.46011  1.0000
  C   C522      1.0  0.89816  0.02798  0.21916  1.0000
  Fe  Fe73      1.0  0.99100  0.13347  0.45019  1.0000
  Fe  Fe74      1.0  0.84618  0.39019  0.01870  1.0000
  C   C523      1.0  0.79452  0.45323  0.98473  1.0000
  H   H603      1.0  0.73362  0.18322  0.05635  1.0000
  Fe  Fe75      1.0  0.67278  0.35106  0.09197  1.0000
  H   H604      1.0  0.88106  0.98163  0.19422  1.0000
  H   H605      1.0  0.67666  0.18088  0.07963  1.0000
  C   C524      1.0  0.89539  0.45451  0.10721  1.0000
  H   H606      1.0  0.70279  0.17847  0.10106  1.0000
  C   C525      1.0  0.86146  0.25076  0.01087  1.0000
  H   H607      1.0  0.95402  0.15920  0.28131  1.0000
  C   C526      1.0  0.79383  0.45097  0.06072  1.0000
  H   H608      1.0  0.80079  0.41735  0.02061  1.0000
  C   C527      1.0  0.71035  0.25817  0.07795  1.0000
  H   H609      1.0  0.92418  0.01881  0.17617  1.0000
  Fe  Fe76      1.0  0.85062  0.32871  0.01171  1.0000
  H   H610      1.0  0.98280  0.21996  0.40505  1.0000
  C   C528      1.0  0.69763  0.27378  0.05186  1.0000
  C   C529      1.0  0.76415  0.03015  0.06274  1.0000
  H   H611      1.0  0.90230  0.46510  0.04296  1.0000
  H   H612      1.0  0.78931  0.16878  0.07709  1.0000
  N   N33       1.0  0.70141  0.18778  0.03421  1.0000
  N   N34       1.0  0.78744  0.02179  0.99962  1.0000
  N   N35       1.0  0.88137  0.02466  0.18706  1.0000
  C   C530      1.0  0.69803  0.42153  0.04648  1.0000
  H   H613      1.0  0.69111  0.15525  0.99395  1.0000
  C   C531      1.0  0.79499  0.99524  0.01453  1.0000
  C   C532      1.0  0.90143  0.47221  0.07527  1.0000
  H   H614      1.0  0.94367  0.03721  0.30181  1.0000
  H   H615      1.0  0.96171  0.16847  0.20602  1.0000
  C   C533      1.0  0.89333  0.46371  0.14848  1.0000
  C   C534      1.0  0.85543  0.46434  0.01640  1.0000
  H   H616      1.0  0.87208  0.04289  0.12807  1.0000
  C   C535      1.0  0.71154  0.23035  0.07200  1.0000
  C   C536      1.0  0.74455  0.03561  0.08121  1.0000
  C   C537      1.0  0.72821  0.03513  0.01256  1.0000
  H   H617      1.0  0.86733  0.99341  0.99271  1.0000
  C   C538      1.0  0.73822  0.34687  0.98913  1.0000
  H   H618      1.0  0.79631  0.43951  0.08948  1.0000
  H   H619      1.0  0.78013  0.28912  0.08162  1.0000
  H   H620      1.0  0.71153  0.04310  0.07037  1.0000
  H   H621      1.0  0.81836  0.04044  0.99690  1.0000
  H   H622      1.0  0.76357  0.24800  0.08376  1.0000
  H   H623      1.0  0.80617  0.04221  0.04723  1.0000
  C   C539      1.0  0.72661  0.03805  0.05616  1.0000
  H   H624      1.0  0.80772  0.28564  0.06939  1.0000
  C   C540      1.0  0.84460  0.47571  0.08747  1.0000
  H   H625      1.0  0.95219  0.02451  0.22837  1.0000
  H   H626      1.0  0.88815  0.44993  0.17299  1.0000
  C   C541      1.0  0.80240  0.19744  0.03316  1.0000
  C   C542      1.0  0.80276  0.04278  0.01286  1.0000
  C   C543      1.0  0.78888  0.18935  0.06557  1.0000
  H   H627      1.0  0.87817  0.03988  0.27292  1.0000
  C   C544      1.0  0.89388  0.03542  0.26169  1.0000
  C   C545      1.0  0.77451  0.23435  0.06883  1.0000
  H   H628      1.0  0.73930  0.43572  0.03802  1.0000
  N   N36       1.0  0.89128  0.18814  0.17520  1.0000
  C   C546      1.0  0.89000  0.16731  0.14194  1.0000
  C   C547      1.0  0.87009  0.18997  0.19529  1.0000
  C   C548      1.0  0.89590  0.21447  0.15504  1.0000
  C   C549      1.0  0.90833  0.18110  0.20517  1.0000
  C   C550      1.0  0.92950  0.17857  0.19070  1.0000
  C   C551      1.0  0.90458  0.17591  0.24877  1.0000
  C   C552      1.0  0.72606  0.10192  0.00691  1.0000
  C   C553      1.0  0.92104  0.16868  0.27583  1.0000
  C   C554      1.0  0.94154  0.16598  0.26044  1.0000
  H   H629      1.0  0.88754  0.14711  0.15636  1.0000
  H   H630      1.0  0.87677  0.17116  0.11959  1.0000
  H   H631      1.0  0.90449  0.16634  0.12216  1.0000
  H   H632      1.0  0.86513  0.17032  0.20924  1.0000
  H   H633      1.0  0.85766  0.19545  0.17201  1.0000
  H   H634      1.0  0.86973  0.20562  0.22032  1.0000
  H   H635      1.0  0.91048  0.21408  0.13544  1.0000
  H   H636      1.0  0.88301  0.22081  0.13333  1.0000
  H   H637      1.0  0.89784  0.23052  0.17917  1.0000
  H   H638      1.0  0.93352  0.18194  0.15792  1.0000
  H   H639      1.0  0.88900  0.17654  0.26265  1.0000
  H   H640      1.0  0.99578  0.18884  0.39661  1.0000
  H   H641      1.0  0.85845  0.44947  0.99230  1.0000
  H   H642      1.0  0.76487  0.20149  0.10934  1.0000
  C   C555      1.0  0.74780  0.10274  0.99762  1.0000
  C   C556      1.0  0.85772  0.98822  0.01989  1.0000
  H   H643      1.0  0.67574  0.27381  0.00015  1.0000
  H   H644      1.0  0.91776  0.16411  0.30872  1.0000
  H   H645      1.0  0.98677  0.20751  0.35203  1.0000
  C   C557      1.0  0.76642  0.02732  0.01833  1.0000
  C   C558      1.0  0.86365  0.22294  0.00481  1.0000
  H   H646      1.0  0.77761  0.02863  0.08352  1.0000
  C   C559      1.0  0.76538  0.27720  0.00491  1.0000
  C   C560      1.0  0.85971  0.02866  0.20409  1.0000
  H   H647      1.0  0.83924  0.46949  0.11846  1.0000
  H   H648      1.0  0.85750  0.04956  0.21597  1.0000
  H   H649      1.0  0.89712  0.99350  0.15111  1.0000
  C   C561      1.0  0.79649  0.43843  0.02185  1.0000
  C   C562      1.0  0.80197  0.27750  0.98557  1.0000
  S   S154      1.0  0.87326  0.36325  0.00152  1.0000
  C   C563      1.0  0.78805  0.24328  0.03575  1.0000
  C   C564      1.0  0.80218  0.22399  0.01850  1.0000
  C   C565      1.0  0.99414  0.20949  0.38372  1.0000
  H   H650      1.0  0.72528  0.15805  0.02059  1.0000
  N   N37       1.0  0.78698  0.27142  0.02053  1.0000
  H   H651      1.0  0.89161  0.43379  0.09964  1.0000
  H   H652      1.0  0.75334  0.27678  0.03048  1.0000
  C   C566      1.0  0.73151  0.42512  0.01131  1.0000
  C   C567      1.0  0.91017  0.03817  0.29112  1.0000
  C   C568      1.0  0.88229  0.99718  0.16899  1.0000
  H   H653      1.0  0.99612  0.98606  0.46887  1.0000
  H   H654      1.0  0.72129  0.21899  0.09350  1.0000
  C   C569      1.0  0.93108  0.03406  0.27915  1.0000
  H   H655      1.0  0.89984  0.04175  0.13582  1.0000
  H   H656      1.0  0.81350  0.18315  0.01981  1.0000
  H   H657      1.0  0.68072  0.42535  0.04540  1.0000
  H   H658      1.0  0.85611  0.01423  0.23005  1.0000
  H   H659      1.0  0.69258  0.15203  0.06893  1.0000
  H   H660      1.0  0.69650  0.29531  0.05690  1.0000
  H   H661      1.0  0.86926  0.99351  0.14615  1.0000
  C   C570      1.0  0.78914  0.47837  0.06268  1.0000
  H   H662      1.0  0.81086  0.99033  0.00134  1.0000
  H   H663      1.0  0.69985  0.39932  0.04916  1.0000
  H   H664      1.0  0.68788  0.47006  0.06037  1.0000
  N   N38       1.0  0.70884  0.43239  0.00832  1.0000
  H   H665      1.0  0.81868  0.27506  0.99576  1.0000
  C   C571      1.0  0.88458  0.04449  0.15262  1.0000
  C   C572      1.0  0.72379  0.17983  0.02788  1.0000
  C   C573      1.0  0.93584  0.02707  0.23768  1.0000
  H   H666      1.0  0.70466  0.43010  0.07604  1.0000
  H   H667      1.0  0.76441  0.29757  0.99042  1.0000
  H   H668      1.0  0.79654  0.99439  0.04943  1.0000
  C   C574      1.0  0.68926  0.17741  0.99761  1.0000
  H   H669      1.0  0.73363  0.40319  0.01662  1.0000
  H   H670      1.0  0.81351  0.22894  0.99409  1.0000
  C   C575      1.0  0.70678  0.46190  0.00342  1.0000
  S   S155      1.0  0.98489  0.17578  0.48037  1.0000
  S   S156      1.0  0.99670  0.06400  0.39115  1.0000
  H   H671      1.0  0.73104  0.19107  0.00105  1.0000
  C   C576      1.0  0.68703  0.23384  0.01366  1.0000
  H   H672      1.0  0.67200  0.18094  0.00151  1.0000
  C   C577      1.0  0.69567  0.47823  0.03280  1.0000
  C   C578      1.0  0.78983  0.48068  0.98625  1.0000
  H   H673      1.0  0.79681  0.06323  0.00517  1.0000
  H   H674      1.0  0.71432  0.03812  0.99307  1.0000
  H   H675      1.0  0.86636  0.26468  0.98640  1.0000
  C   C579      1.0  0.74777  0.02989  0.99368  1.0000
  H   H676      1.0  0.67713  0.22579  0.98896  1.0000
  H   H677      1.0  0.96172  0.35614  0.84000  1.0000
  H   H678      1.0  0.85693  0.39426  0.76525  1.0000
  S   S157      1.0  0.96759  0.34703  0.61632  1.0000
  H   H679      1.0  0.80356  0.01755  0.93975  1.0000
  H   H680      1.0  0.98252  0.33592  0.78085  1.0000
  H   H681      1.0  0.97906  0.01126  0.59370  1.0000
  Fe  Fe77      1.0  0.97025  0.34897  0.68759  1.0000
  S   S158      1.0  0.94388  0.33625  0.73383  1.0000
  C   C580      1.0  0.91699  0.43736  0.62609  1.0000
  Fe  Fe78      1.0  0.86006  0.36483  0.93500  1.0000
  H   H682      1.0  0.97001  0.26521  0.54316  1.0000
  S   S159      1.0  0.88181  0.37902  0.88017  1.0000
  C   C581      1.0  0.86847  0.39747  0.74033  1.0000
  S   S160      1.0  0.77858  0.35263  0.95800  1.0000
  Fe  Fe79      1.0  0.98743  0.38545  0.61536  1.0000
  C   C582      1.0  0.89624  0.98444  0.62203  1.0000
  S   S161      1.0  0.83381  0.39387  0.95272  1.0000
  S   S162      1.0  0.83884  0.32831  0.94454  1.0000
  H   H683      1.0  0.80048  0.29871  0.97458  1.0000
  N   N39       1.0  0.99532  0.36105  0.83001  1.0000
  H   H684      1.0  0.88642  0.44688  0.67640  1.0000
  C   C583      1.0  0.88569  0.42692  0.68969  1.0000
  S   S163      1.0  0.70773  0.09776  0.96504  1.0000
  S   S164      1.0  0.98817  0.38798  0.68680  1.0000
  C   C584      1.0  0.71600  0.47519  0.96810  1.0000
  Fe  Fe80      1.0  0.67180  0.09871  0.97208  1.0000
  H   H685      1.0  0.69961  0.39641  0.97480  1.0000
  H   H686      1.0  0.75299  0.10091  0.96517  1.0000
  H   H687      1.0  0.79900  0.26466  0.95750  1.0000
  C   C585      1.0  0.98423  0.45295  0.54961  1.0000
  C   C586      1.0  0.92775  0.34859  0.77609  1.0000
  C   C587      1.0  0.91503  0.33031  0.79887  1.0000
  C   C588      1.0  0.90133  0.33904  0.83143  1.0000
  C   C589      1.0  0.89992  0.36634  0.84148  1.0000
  C   C590      1.0  0.91284  0.38461  0.81896  1.0000
  C   C591      1.0  0.92677  0.37584  0.78679  1.0000
  H   H688      1.0  0.91558  0.30918  0.79099  1.0000
  H   H689      1.0  0.89152  0.32469  0.84817  1.0000
  H   H690      1.0  0.91183  0.40580  0.82619  1.0000
  H   H691      1.0  0.93623  0.39029  0.76960  1.0000
  C   C592      1.0  0.91155  0.99174  0.59244  1.0000
  H   H692      1.0  0.88069  0.35739  0.74444  1.0000
  H   H693      1.0  0.73399  0.34254  0.95674  1.0000
  C   C593      1.0  0.98748  0.00242  0.52922  1.0000
  C   C594      1.0  0.99187  0.20530  0.51077  1.0000
  C   C595      1.0  0.99321  0.98156  0.50177  1.0000
  C   C596      1.0  0.87027  0.42247  0.72075  1.0000
  H   H694      1.0  0.97545  0.37312  0.88183  1.0000
  H   H695      1.0  0.92056  0.36943  0.62635  1.0000
  H   H696      1.0  0.85987  0.43863  0.73031  1.0000
  H   H697      1.0  0.90208  0.38946  0.59704  1.0000
  S   S165      1.0  0.98521  0.03717  0.51238  1.0000
  H   H698      1.0  0.90202  0.44019  0.60830  1.0000
  C   C597      1.0  0.89985  0.40619  0.67738  1.0000
  H   H699      1.0  0.69462  0.18664  0.96738  1.0000
  H   H700      1.0  0.90787  0.36435  0.69109  1.0000
  H   H701      1.0  0.78216  0.04095  0.93943  1.0000
  C   C598      1.0  0.91749  0.38992  0.61385  1.0000
  H   H702      1.0  0.91022  0.01054  0.57526  1.0000
  C   C599      1.0  0.98186  0.24983  0.53911  1.0000
  H   H703      1.0  0.93810  0.42364  0.69736  1.0000
  H   H704      1.0  0.91899  0.45413  0.64893  1.0000
  H   H705      1.0  0.95141  0.41334  0.64997  1.0000
  C   C600      1.0  0.99698  0.33806  0.80054  1.0000
  C   C601      1.0  0.88184  0.37667  0.72849  1.0000
  H   H706      1.0  0.94012  0.38865  0.68468  1.0000
  C   C602      1.0  0.78745  0.02134  0.95270  1.0000
  N   N40       1.0  0.91752  0.41072  0.64742  1.0000
  H   H707      1.0  0.77717  0.00502  0.94025  1.0000
  C   C603      1.0  0.93766  0.40898  0.67088  1.0000
  H   H708      1.0  0.72458  0.46409  0.94434  1.0000
  H   H709      1.0  0.93017  0.39367  0.58995  1.0000
  C   C604      1.0  0.97690  0.22597  0.51651  1.0000
  H   H710      1.0  0.93021  0.43966  0.60288  1.0000
  S   S166      1.0  0.97573  0.42184  0.57468  1.0000
  C   C605      1.0  0.89734  0.38089  0.69764  1.0000
  H   H711      1.0  0.97635  0.38318  0.78532  1.0000
  H   H712      1.0  0.98903  0.40350  0.82432  1.0000
  Fe  Fe81      1.0  0.81411  0.35739  0.96834  1.0000
  C   C606      1.0  0.98350  0.99557  0.57186  1.0000
  C   C607      1.0  0.97680  0.35673  0.85810  1.0000
  H   H713      1.0  0.74784  0.02864  0.95967  1.0000
  H   H714      1.0  0.95305  0.46203  0.52648  1.0000
  H   H715      1.0  0.87015  0.21551  0.97544  1.0000
  H   H716      1.0  0.97761  0.33739  0.87555  1.0000
  H   H717      1.0  0.79722  0.44341  0.95465  1.0000
  H   H718      1.0  0.96122  0.22348  0.50358  1.0000
  C   C608      1.0  0.96928  0.46880  0.52787  1.0000
  H   H719      1.0  0.70813  0.42320  0.94138  1.0000
  H   H720      1.0  0.68274  0.42486  0.96654  1.0000
  C   C609      1.0  0.69950  0.41870  0.97115  1.0000
  H   H721      1.0  0.88298  0.99769  0.62780  1.0000
  C   C610      1.0  0.99109  0.38540  0.80416  1.0000
  H   H722      1.0  0.74046  0.43000  0.98203  1.0000
  H   H723      1.0  0.76055  0.26251  0.98028  1.0000
  H   H724      1.0  0.90388  0.62683  0.39605  1.0000
  C   C611      1.0  0.84819  0.50306  0.07902  1.0000
  S   S167      1.0  0.96956  0.60157  0.43963  1.0000
  C   C612      1.0  0.84925  0.75487  0.01334  1.0000
  H   H725      1.0  0.91533  0.67936  0.44706  1.0000
  H   H726      1.0  0.79753  0.67650  0.09498  1.0000
  Fe  Fe82      1.0  0.97736  0.60463  0.36984  1.0000
  S   S168      1.0  0.95740  0.60805  0.30909  1.0000
  C   C613      1.0  0.92030  0.63436  0.39946  1.0000
  S   S169      1.0  0.82340  0.84877  0.04180  1.0000
  S   S170      1.0  0.83218  0.92096  0.07186  1.0000
  S   S171      1.0  0.87052  0.79696  0.05063  1.0000
  S   S172      1.0  0.70748  0.84087  0.11398  1.0000
  Fe  Fe83      1.0  0.85319  0.60735  0.15489  1.0000
  S   S173      1.0  0.87225  0.61101  0.09478  1.0000
  S   S174      1.0  0.86610  0.60228  0.22220  1.0000
  Fe  Fe84      1.0  0.81082  0.60419  0.10600  1.0000
  S   S175      1.0  0.82732  0.60671  0.04406  1.0000
  S   S176      1.0  0.77502  0.60000  0.10876  1.0000
  Fe  Fe85      1.0  0.85083  0.57820  0.07114  1.0000
  S   S177      1.0  0.86246  0.54487  0.02896  1.0000
  Fe  Fe86      1.0  0.84669  0.63951  0.07353  1.0000
  S   S178      1.0  0.84694  0.67409  0.02698  1.0000
  S   S179      1.0  0.83297  0.57294  0.13167  1.0000
  S   S180      1.0  0.82892  0.63840  0.13513  1.0000
  C   C614      1.0  0.72944  0.60934  0.99656  1.0000
  C   C615      1.0  0.72184  0.60393  0.03722  1.0000
  C   C616      1.0  0.73599  0.60137  0.07125  1.0000
  C   C617      1.0  0.75788  0.60399  0.06502  1.0000
  C   C618      1.0  0.76550  0.60919  0.02429  1.0000
  H   H727      1.0  0.70506  0.60172  0.04259  1.0000
  H   H728      1.0  0.72990  0.59725  0.10259  1.0000
  H   H729      1.0  0.78229  0.61078  0.01878  1.0000
  C   C619      1.0  0.83968  0.95442  0.06194  1.0000
  C   C620      1.0  0.85178  0.96133  0.02659  1.0000
  H   H730      1.0  0.90911  0.51197  0.05765  1.0000
  C   C621      1.0  0.85596  0.51106  0.03958  1.0000
  C   C622      1.0  0.70790  0.95346  0.07048  1.0000
  H   H731      1.0  0.78395  0.97885  0.00526  1.0000
  C   C623      1.0  0.79490  0.69574  0.07776  1.0000
  C   C624      1.0  0.86246  0.76314  0.04614  1.0000
  Fe  Fe87      1.0  0.67173  0.84382  0.10469  1.0000
  C   C625      1.0  0.85238  0.70828  0.03667  1.0000
  C   C626      1.0  0.86494  0.71661  0.07043  1.0000
  C   C627      1.0  0.87020  0.74397  0.07479  1.0000
  H   H732      1.0  0.87120  0.70193  0.09228  1.0000
  H   H733      1.0  0.88043  0.75029  0.10022  1.0000
  C   C628      1.0  0.83333  0.97456  0.09024  1.0000
  C   C629      1.0  0.72059  0.84050  0.02954  1.0000
  C   C630      1.0  0.72645  0.84073  0.07218  1.0000
  C   C631      1.0  0.74806  0.84013  0.08208  1.0000
  C   C632      1.0  0.76356  0.83953  0.04998  1.0000
  H   H734      1.0  0.70415  0.84079  0.02102  1.0000
  H   H735      1.0  0.75289  0.84019  0.11483  1.0000
  H   H736      1.0  0.78004  0.83908  0.05843  1.0000
  C   C633      1.0  0.93218  0.60388  0.28455  1.0000
  C   C634      1.0  0.92978  0.61143  0.24189  1.0000
  C   C635      1.0  0.90990  0.61021  0.22173  1.0000
  C   C636      1.0  0.89203  0.60161  0.24417  1.0000
  C   C637      1.0  0.89455  0.59319  0.28634  1.0000
  C   C638      1.0  0.91447  0.59402  0.30627  1.0000
  H   H737      1.0  0.94334  0.61896  0.22460  1.0000
  H   H738      1.0  0.90830  0.61693  0.18940  1.0000
  H   H739      1.0  0.88091  0.58622  0.30392  1.0000
  H   H740      1.0  0.91603  0.58715  0.33848  1.0000
  H   H741      1.0  0.80620  0.68146  0.99596  1.0000
  C   C639      1.0  0.91578  0.66577  0.34145  1.0000
  H   H742      1.0  0.75735  0.54846  0.05351  1.0000
  C   C640      1.0  0.69084  0.67332  0.01890  1.0000
  H   H743      1.0  0.93068  0.62105  0.38040  1.0000
  H   H744      1.0  0.77563  0.55822  0.99041  1.0000
  H   H745      1.0  0.81088  0.70343  0.06910  1.0000
  H   H746      1.0  0.73821  0.92089  0.11290  1.0000
  H   H747      1.0  0.90840  0.77879  0.99590  1.0000
  N   N41       1.0  0.70985  0.92742  0.04800  1.0000
  C   C641      1.0  0.94515  0.67031  0.39262  1.0000
  C   C642      1.0  0.69594  0.77250  0.99254  1.0000
  C   C643      1.0  0.68112  0.71510  0.05276  1.0000
  C   C644      1.0  0.69952  0.93062  0.00622  1.0000
  N   N42       1.0  0.90697  0.53794  0.13696  1.0000
  C   C645      1.0  0.91426  0.55454  0.10062  1.0000
  C   C646      1.0  0.88687  0.54958  0.15229  1.0000
  C   C647      1.0  0.92305  0.54037  0.17079  1.0000
  C   C648      1.0  0.90351  0.50931  0.12620  1.0000
  H   H748      1.0  0.69846  0.91114  0.98906  1.0000
  N   N43       1.0  0.78207  0.52315  0.02856  1.0000
  C   C649      1.0  0.85936  0.49168  0.00819  1.0000
  H   H749      1.0  0.89512  0.49696  0.19033  1.0000
  C   C650      1.0  0.77772  0.71694  0.01575  1.0000
  H   H750      1.0  0.91702  0.57585  0.10987  1.0000
  H   H751      1.0  0.92936  0.54687  0.08733  1.0000
  H   H752      1.0  0.90221  0.55516  0.07501  1.0000
  H   H753      1.0  0.88104  0.53987  0.18177  1.0000
  H   H754      1.0  0.88857  0.57132  0.15961  1.0000
  H   H755      1.0  0.79624  0.55910  0.05401  1.0000
  H   H756      1.0  0.78750  0.70974  0.10073  1.0000
  H   H757      1.0  0.92675  0.56178  0.17806  1.0000
  H   H758      1.0  0.79217  0.89930  0.03954  1.0000
  H   H759      1.0  0.91771  0.53139  0.20117  1.0000
  C   C651      1.0  0.90534  0.49927  0.08432  1.0000
  H   H760      1.0  0.71284  0.95203  0.10404  1.0000
  C   C652      1.0  0.92237  0.67718  0.26697  1.0000
  N   N44       1.0  0.78152  0.69184  0.03976  1.0000
  C   C653      1.0  0.67848  0.68737  0.04775  1.0000
  C   C654      1.0  0.70269  0.51828  0.99133  1.0000
  C   C655      1.0  0.76375  0.90627  0.00425  1.0000
  C   C656      1.0  0.74236  0.91313  0.00597  1.0000
  H   H761      1.0  0.77567  0.90912  0.10834  1.0000
  H   H762      1.0  0.68922  0.79356  0.06827  1.0000
  C   C657      1.0  0.75134  0.61202  0.99033  1.0000
  H   H763      1.0  0.89285  0.67345  0.41457  1.0000
  C   C658      1.0  0.76211  0.52695  0.05252  1.0000
  H   H764      1.0  0.72597  0.75332  0.07614  1.0000
  H   H765      1.0  0.79832  0.65457  0.03015  1.0000
  H   H766      1.0  0.92487  0.63152  0.43313  1.0000
  H   H767      1.0  0.93330  0.68297  0.24212  1.0000
  C   C659      1.0  0.77572  0.90524  0.04099  1.0000
  H   H768      1.0  0.68297  0.93767  0.00952  1.0000
  H   H769      1.0  0.75092  0.67382  0.02734  1.0000
  C   C660      1.0  0.69788  0.90672  0.07186  1.0000
  C   C661      1.0  0.88750  0.66319  0.28853  1.0000
  H   H770      1.0  0.87139  0.65792  0.28023  1.0000
  H   H771      1.0  0.78780  0.48728  0.09365  1.0000
  H   H772      1.0  0.93806  0.53037  0.16147  1.0000
  H   H773      1.0  0.76349  0.52062  0.08607  1.0000
  C   C662      1.0  0.73235  0.91947  0.04499  1.0000
  C   C663      1.0  0.89734  0.49067  0.15800  1.0000
  H   H774      1.0  0.68870  0.76295  0.09762  1.0000
  H   H775      1.0  0.72520  0.78573  0.05155  1.0000
  H   H776      1.0  0.70400  0.90365  0.10439  1.0000
  C   C664      1.0  0.69645  0.72957  0.02882  1.0000
  C   C665      1.0  0.89451  0.66025  0.33012  1.0000
  C   C666      1.0  0.69373  0.50598  0.02663  1.0000
  N   N45       1.0  0.69998  0.75886  0.03344  1.0000
  H   H777      1.0  0.66639  0.67675  0.06566  1.0000
  H   H778      1.0  0.89599  0.67332  0.22470  1.0000
  H   H779      1.0  0.78913  0.78464  0.01366  1.0000
  S   S181      1.0  0.86863  0.86843  0.00446  1.0000
  C   C667      1.0  0.84446  0.72750  0.00835  1.0000
  H   H780      1.0  0.70787  0.94567  0.98620  1.0000
  C   C668      1.0  0.73607  0.83969  0.99746  1.0000
  H   H781      1.0  0.94994  0.66764  0.42616  1.0000
  C   C669      1.0  0.68614  0.77156  0.06560  1.0000
  H   H782      1.0  0.93552  0.78501  0.98380  1.0000
  H   H783      1.0  0.84320  0.76944  0.99113  1.0000
  H   H784      1.0  0.68082  0.91196  0.07472  1.0000
  H   H785      1.0  0.87433  0.54742  0.12802  1.0000
  N   N46       1.0  0.92273  0.66273  0.38587  1.0000
  H   H786      1.0  0.69872  0.88696  0.05576  1.0000
  H   H787      1.0  0.94822  0.69170  0.38435  1.0000
  C   C670      1.0  0.76112  0.68015  0.05408  1.0000
  C   C671      1.0  0.78694  0.49411  0.02550  1.0000
  H   H788      1.0  0.66916  0.76946  0.05722  1.0000
  C   C672      1.0  0.76633  0.91075  0.07979  1.0000
  H   H789      1.0  0.79557  0.74491  0.05611  1.0000
  C   C673      1.0  0.90965  0.67993  0.41376  1.0000
  H   H790      1.0  0.68463  0.51797  0.04876  1.0000
  H   H791      1.0  0.85676  0.94590  0.00471  1.0000
  C   C674      1.0  0.90138  0.67177  0.25708  1.0000
  H   H792      1.0  0.88321  0.65305  0.35315  1.0000
  H   H793      1.0  0.75204  0.69475  0.07347  1.0000
  Fe  Fe88      1.0  0.83835  0.88810  0.02380  1.0000
  C   C675      1.0  0.72217  0.76397  0.04618  1.0000
  H   H794      1.0  0.69121  0.96061  0.07115  1.0000
  H   H795      1.0  0.80167  0.52955  0.08373  1.0000
  H   H796      1.0  0.76355  0.66178  0.07372  1.0000
  H   H797      1.0  0.91014  0.70124  0.40302  1.0000
  C   C676      1.0  0.92960  0.67416  0.30840  1.0000
  C   C677      1.0  0.74493  0.91759  0.08194  1.0000
  H   H798      1.0  0.70062  0.53971  0.98625  1.0000
  H   H799      1.0  0.74889  0.51545  0.03803  1.0000
  C   C678      1.0  0.75769  0.83946  0.00738  1.0000
  C   C679      1.0  0.78598  0.74234  0.02822  1.0000
  H   H800      1.0  0.67063  0.72474  0.07498  1.0000
  C   C680      1.0  0.78252  0.76544  0.00395  1.0000
  Fe  Fe89      1.0  0.85228  0.82903  0.01564  1.0000
  H   H801      1.0  0.84553  0.51776  0.10344  1.0000
  H   H802      1.0  0.82390  0.96922  0.11756  1.0000
  C   C681      1.0  0.79232  0.67215  0.01204  1.0000
  H   H803      1.0  0.94622  0.67786  0.31339  1.0000
  H   H804      1.0  0.71766  0.96929  0.05492  1.0000
  H   H805      1.0  0.95590  0.65735  0.37377  1.0000
  H   H806      1.0  0.69699  0.79475  0.99541  1.0000
  H   H807      1.0  0.73371  0.75755  0.02184  1.0000
  Fe  Fe90      1.0  0.99256  0.63645  0.44895  1.0000
  C   C682      1.0  0.79939  0.53718  0.05107  1.0000
  H   H808      1.0  0.81470  0.53483  0.03407  1.0000
  H   H809      1.0  0.99020  0.74877  0.45770  1.0000
  H   H810      1.0  0.78184  0.66398  0.98708  1.0000
  C   C683      1.0  0.70859  0.71461  0.99936  1.0000
  H   H811      1.0  0.90171  0.82818  0.99265  1.0000
  C   C684      1.0  0.70579  0.68689  0.99459  1.0000
  H   H812      1.0  0.68864  0.65189  0.01488  1.0000
  C   C685      1.0  0.77952  0.53654  0.98689  1.0000
  C   C686      1.0  0.98826  0.70318  0.51839  1.0000
  H   H813      1.0  0.73127  0.83956  0.96469  1.0000
  S   S182      1.0  0.96779  0.84666  0.62208  1.0000
  H   H814      1.0  0.93676  0.89616  0.61402  1.0000
  S   S183      1.0  0.98401  0.88448  0.70024  1.0000
  H   H815      1.0  0.89657  0.92420  0.71333  1.0000
  Fe  Fe91      1.0  0.96261  0.84857  0.69296  1.0000
  S   S184      1.0  0.92891  0.84342  0.71984  1.0000
  C   C687      1.0  0.93069  0.95084  0.60751  1.0000
  Fe  Fe92      1.0  0.85517  0.86576  0.93866  1.0000
  H   H816      1.0  0.72010  0.72438  0.97938  1.0000
  S   S185      1.0  0.88134  0.87779  0.89114  1.0000
  H   H817      1.0  0.98103  0.82049  0.88671  1.0000
  H   H818      1.0  0.97621  0.83639  0.49617  1.0000
  C   C688      1.0  0.99092  0.94783  0.55929  1.0000
  H   H819      1.0  0.93258  0.80191  0.79743  1.0000
  S   S186      1.0  0.82561  0.88870  0.95776  1.0000
  C   C689      1.0  0.92857  0.80648  0.90558  1.0000
  H   H820      1.0  0.98335  0.79079  0.49307  1.0000
  S   S187      1.0  0.71227  0.61303  0.95278  1.0000
  H   H821      1.0  0.92167  0.87468  0.64701  1.0000
  H   H822      1.0  0.71496  0.67576  0.97152  1.0000
  H   H823      1.0  0.96414  0.75472  0.57268  1.0000
  C   C690      1.0  0.96471  0.81529  0.88021  1.0000
  H   H824      1.0  0.88559  0.95593  0.66695  1.0000
  C   C691      1.0  0.91330  0.82926  0.96613  1.0000
  H   H825      1.0  0.95589  0.81562  0.94503  1.0000
  S   S188      1.0  0.77663  0.83872  0.96561  1.0000
  H   H826      1.0  0.88990  0.77953  0.91034  1.0000
  C   C692      1.0  0.99590  0.50279  0.50862  1.0000
  C   C693      1.0  0.91646  0.85242  0.76864  1.0000
  C   C694      1.0  0.89649  0.84142  0.77851  1.0000
  C   C695      1.0  0.88577  0.84826  0.81625  1.0000
  C   C696      1.0  0.89467  0.86673  0.84436  1.0000
  C   C697      1.0  0.91461  0.87780  0.83439  1.0000
  C   C698      1.0  0.92552  0.87054  0.79709  1.0000
  H   H827      1.0  0.88924  0.82741  0.75683  1.0000
  H   H828      1.0  0.87040  0.83971  0.82306  1.0000
  H   H829      1.0  0.92170  0.89212  0.85577  1.0000
  H   H830      1.0  0.94087  0.87915  0.79030  1.0000
  H   H831      1.0  0.93852  0.90049  0.70800  1.0000
  H   H832      1.0  0.90899  0.84678  0.94595  1.0000
  S   S189      1.0  0.83971  0.82534  0.94968  1.0000
  H   H833      1.0  0.90663  0.79805  0.85342  1.0000
  C   C699      1.0  0.95835  0.81143  0.83862  1.0000
  C   C700      1.0  0.97216  0.71934  0.53591  1.0000
  C   C701      1.0  0.71387  0.50293  0.96219  1.0000
  N   N47       1.0  0.91344  0.80406  0.94122  1.0000
  C   C702      1.0  0.89915  0.90960  0.68726  1.0000
  H   H834      1.0  0.73395  0.91270  0.97639  1.0000
  C   C703      1.0  0.91522  0.94253  0.63744  1.0000
  C   C704      1.0  0.97499  0.49335  0.50770  1.0000
  H   H835      1.0  0.75405  0.73833  0.92407  1.0000
  C   C705      1.0  0.89136  0.79885  0.92769  1.0000
  C   C706      1.0  0.93625  0.91919  0.68914  1.0000
  C   C707      1.0  0.92135  0.89454  0.63073  1.0000
  H   H836      1.0  0.88529  0.81551  0.90749  1.0000
  H   H837      1.0  0.98762  0.82286  0.54396  1.0000
  Fe  Fe93      1.0  0.99103  0.88098  0.63030  1.0000
  C   C708      1.0  0.98948  0.83843  0.51890  1.0000
  C   C709      1.0  0.99486  0.95467  0.51664  1.0000
  C   C710      1.0  0.97683  0.74288  0.55950  1.0000
  C   C711      1.0  0.91981  0.78160  0.96925  1.0000
  Fe  Fe94      1.0  0.81160  0.84838  0.97550  1.0000
  H   H838      1.0  0.93431  0.93603  0.71189  1.0000
  S   S190      1.0  0.99304  0.91304  0.57594  1.0000
  C   C712      1.0  0.98529  0.96870  0.58681  1.0000
  H   H839      1.0  0.90864  0.89366  0.60658  1.0000
  N   N48       1.0  0.91775  0.91694  0.66082  1.0000
  H   H840      1.0  0.86536  0.49776  0.97759  1.0000
  C   C713      1.0  0.95015  0.81264  0.91331  1.0000
  Fe  Fe95      1.0  0.67659  0.60660  0.95687  1.0000
  S   S191      1.0  0.98789  0.81791  0.70597  1.0000
  H   H841      1.0  0.92050  0.76232  0.95154  1.0000
  H   H842      1.0  0.88454  0.90797  0.66797  1.0000
  H   H843      1.0  0.75738  0.61602  0.95893  1.0000
  H   H844      1.0  0.95586  0.71352  0.53139  1.0000
  C   C714      1.0  0.93745  0.80478  0.82997  1.0000
  C   C715      1.0  0.92265  0.80252  0.86271  1.0000
  C   C716      1.0  0.92871  0.97495  0.58514  1.0000
  H   H845      1.0  0.98754  0.85824  0.53478  1.0000
  H   H846      1.0  0.94460  0.93887  0.60133  1.0000
  H   H847      1.0  0.95114  0.92289  0.67130  1.0000
  H   H848      1.0  0.90129  0.88974  0.70308  1.0000
  H   H849      1.0  0.88049  0.79720  0.95534  1.0000
  H   H850      1.0  0.94064  0.98076  0.56216  1.0000
  H   H851      1.0  0.96960  0.81376  0.81292  1.0000
  H   H852      1.0  0.78900  0.49097  0.95628  1.0000
  H   H853      1.0  0.98224  0.96419  0.61968  1.0000
  H   H854      1.0  0.72050  0.51257  0.93436  1.0000
  H   H855      1.0  0.79441  0.53582  0.96806  1.0000
  C   C717      1.0  0.89795  0.96023  0.64435  1.0000
  Fe  Fe96      1.0  0.99461  0.81812  0.63566  1.0000
  H   H856      1.0  0.75933  0.69758  0.96617  1.0000
  C   C718      1.0  0.77101  0.76397  0.96664  1.0000
  C   C719      1.0  0.76587  0.71625  0.97776  1.0000
  H   H857      1.0  0.77099  0.90070  0.97441  1.0000
  C   C720      1.0  0.76272  0.73943  0.95351  1.0000
  S   S192      1.0  0.98109  0.67376  0.48791  1.0000
  H   H858      1.0  0.96314  0.50499  0.49136  1.0000
  H   H859      1.0  0.92878  0.83376  0.98085  1.0000
  H   H860      1.0  0.83475  0.72118  0.98210  1.0000
  H   H861      1.0  0.70735  0.76664  0.96758  1.0000
  H   H862      1.0  0.76873  0.78194  0.94770  1.0000
  H   H863      1.0  0.76645  0.52737  0.96841  1.0000
  H   H864      1.0  0.67977  0.76784  0.98086  1.0000
