data_image0
_chemical_formula_structural       HCHSHCH3SNCSFeS2HSHFeSFeSFeSC2H3CH4SHCH3NSCFeSCHCFeS2FeS2FeHFeS5H2CHCSH2CSHC8H2CH3SC4H3C6H4C6H4C2HC3H5C2SH3CHSNSCHC2H2CH4FeHCHCH3CHCH2CH2CH3CH2C2HC2H3C6H4C6H4SH2SCHC4H2CH3C6H2C2NC9H12CHNC3HFeCHC2H3C2H3NC3HCHC2H2CNH2CH3C2HSH3CHCH5CH4FeC4HCH3CHFeHC2H2SH2SNH2FeCSHCFeHCHC2H2SHCNSH2FeH4C2H3CHSHSCH4CH3CHCSH2C2HCHCH3C2SCSCH2CH4CHSH2CH3SCHCHCNCHC2NH3CH2FeCHC2HC2HC3H2NFeH3C2HSC2FeC2FeCH2FeC2H2CHC2HNHCFeHCHCH2C2HCSCH3CSCHSCH3CH2C2HC2HC6H2C4H2C3HS2CH2C3NHC2H3CHFeSH7FeSCFeS2FeSFeS3CSHFeS2FeSFeSH2CHSHC4HFeHCSCFeSHFeSFeSH2FeSCHSFeSFeS3CHC3H2SFeSFeS2FeHS2H3CSHFeSHCH2FeSCFeS2FeSFeS3FeS2FeSFeSFeS3H2FeSHFeHSCHC4FeS2CH4C6H4C6H4C6H4C6H4C6H3CH2SHC4HFeHCHCH2CHC3H6C7H4C3SH4CFeHCNC3NCHC7H4C4HCH2CH2C2H2C6H5C4H6CH2C2HCH2C6H5CH2N2HCHC4H4CH2CSH4CHC4H2CH2CHCH2SNC2SH3CH2FeH2C2H3CH2C2H2C3HCNH2NC9H13CH2CHC4HCSHCH4NCHFeC3H3C3H3CHNC2H4SH2CHCSCH2CSCHFeCNC10H4CHS2H2CH2FeH5SHCHCHCHNC3H4CSCH7C2HSHCH5CHSCHSNC9HNH5SH6NCHC6SHCHCHC3H3SHCHC2H2CH2C2H3CSCHCHC2NHSCNC6FeCH12CHCH2CFeC6HNH2SHC2H2CH7NHCH2CH2CHNHCHC2HC2HC2HC2HCNHCH2CH2C3H5CHSFeH2C2HSHCH6CH3CHCH4SHC2HCFeHS2H3C2H2CHC2H2CSHCHC2HCHCHCH2CSH2SHCSHC2HCHCH2CS2CHCS2H2CHCHSCHSCHSCHCHSFeSFeSFeS2FeS2HFeSHSFeS2FeS2FeSFeS4FeS2FeSFeSHSFeSFeHSFeS2FeS2FeSFeS3FeS2FeS2FeSFeS3FeS2FeS2FeSFeS3HSH2SFeSH3SFeS2FeC2FeS3HFeCSH4SFeS2FeSFeHS2HSC7H4C6SCH2C6H5CHCHC7H4C6H4C6HCH2C7H3C6H4C2H2C2H4C6H4C6H4C6H4C6H4C6H4C6H4C6H4C6H4C6H6SHCSH2CSHCSCHC8H3C2HCHC2HSHC6H4FeHCH2NHCNHSHCHC2H5C2HSCHSHCH2CH3NHCH4CH2CHCH2FeH8CNH3CH3NC9H12CNSCH4C2HFeSH5C3H2CH4C2H4CHCHCH2CH3NC9H14NCHCHC2HSH6CHCHNC2NC9H15FeHSH7FeH3CH5CHC2HC6HCHCHCSC2H6NC4H12CNSHSH2CHCH3CHC3H2CH3NH5C2H4NH2CHCH2C2HCHC2H2C8HC2NH2SCH6NCHC2HCFeHSHC2H3SH2CHCFeCHCH2C2HC3H3C2H4C2HCHNC9H14NC4S2H5CFeCHCHCH3CNC2HCNCH2CHC2HCNH3CH4C4SFeHCHFeH2C2HC3HCFeH2NH5CHCH3C2FeHCH2CS2H2C3FeHCFeC2HFeHFeH2CHFeSH2SHC3HSFeSCH2FeS3CH2CFeCSFeHCHFeCHSH4FeCS2H2CS2CFeS2FeS2FeSFeS3FeS2FeSFeSFeS3CSFeS2FeS2CHSFeHFeS3FeS2FeS2FeSFeS3FeS2CHFeSFeS3FeCSCSH2FeC6H4C6H4C3H2C6H4CHCH2C7H4C6HCH2C6H9C3H5CHCHC3H4C2HCHC6H3CH2CHCHCHSFeC6H5SHC3H2CHC2H2CSC6H5C6H4CH2CSFeHSH2SH2CHSCH2CSH2CHCNH2CNHFeH7C2HNC8H7C2H7S2H3CHC3H4NC9H12SHNH3CFeCSHCSC3NCSH2FeH2NC5H4NC9H14NC9H14Fe2NC9H11NC9H13C2HCHCHC5H2CFe2HC3SHFeCNC9H13FeC3H7SCS2C2H2SH4SFeH2CHC3SH4SH3NC9H13SC2H2C2H2SH2CSHSHCHC5H4C2HCHSC2H4C6HCH2CHFeH2CHCH3CH2CHC3H3CH2NSCHSH2NH2CH2SC4HC3H2SC2HSC4FeNH2CH2C2HCH4C3HC4NC3SCFeCNFeH2CH2CHCSHNC2HCH2CH3CH5CH2CSH2CHSH3C2HCH2CHNH4CSHSHCFeHSH2C2HC2SFeS2FeS2FeSFeS4FeS2FeS2FeSFeS4FeS2FeS2FeSFeS3FeS2FeSHCHCFeCSC3HSFeS2FeS2FeSFeS3HCSHC7H4C9H5C8H4C6H4C6H4C6H4C6H4C4HCH2C8H4C6H4C6H3C6H6SC2HFeCHC6H7SCHCH6CSHCH8C3SCH2CHCH5C2HCSHCNSHCHNC2SC2HCH2FeHC3HC2H2NC9H14S2H2C2H3C4FeSHNC9H14C2HC2H2NC5H9CSHSCHCH3CH7CHNCHC3H2FeHFeC3NHCHC6HNH4C2SH6CHSCH2NC9H16FeHCHCHC4H5C2NHCH4FeH3CNC5SHSH2NC3FeH4C4H3SHCSH5C3FeC2HNCHCH3CHCH2CH3C2HCHCNSH2SCH4NFeSH3SCH4CNC9H15C3H2CHC2NCH4CHFe2CHC3SH5CHCHCH2C4HCH2CHC3HCH3SH3CHSHC2H2S2CH3CFeC2HC2FeH3CHFeHCH5SCH3CHCHC2HC2NHCNCH3SHCHCHFeCH6CSHCH4CH5CHCH4CH3CHCH2CH3CH2CSHCHFeCH3S2CSC2FeS2HFeS2CH2NHFeSHSFeS2CSFeSFeS3FeS2FeS2FeSCHS2FeS2FeS2FeSFeS3FeS2FeS2FeSFeS3CHC2FeS2FeS2FeSFeS3FeS2FeSCFeSFeCSHCSH2CH4CH2CSCHCH2C2H2CH2CHC7H9C6H2CHC6H4C8HC5HCH2C6H4C2H2C6H6CHCH2CSC7H2SHC6H4C6H4SHCHCH3CNHC2H3C9H4C6H4C2H2C6H3C2H4NFeC8H10CH3CH2CNC9H14CH3NHSC2H2C2HCH3FeC2H2C4HC3FeHCHCFeHNC9H11CH2CH2C2HCNSH5C2H2CHCFeHCHC2H2SH2CHCSH8CHCHFe3C2H2C2FeH2CHCSFeHSH2C2H2NCHCH2CH5CHCH2NHCHFeSCNC2H3NC9H13NC9SCH2NH4SH2CHCHFeC2HCNCH2SCHSH2C3SHCHNHCH3CH2C2HCHFeH6FeCHCH2CS2HCSC3H4CH3C2H3CHCH6C2H2CH4CH2C2HC2HCH5C2SCHC2H3SH2CHCH2C3HC2H2C3SCSN2H2CH5C2HSH3CH3CH2CH4C4HSH6C4H3SH2CFeC2NH2C7H3C3SCH6NC9H8CN2H2CHCHCHC3H2C2H2CH3SC2NHCNHCH2C2H2CFeH3CH5C2FeHCFeSHSCS2FeS2FeS2FeSFeS3HS2H2SH4CSFeS2FeS2HCS2HCH2CH3SH3FeSHCFeCH4CHSHFeHCH2CH3CHFeS2FeS2FeSFeS3H2CS2HCSC2NCFeS2FeS2FeS2C2HSFe2HC2HFeC2HFeHC2SCHC2H2C2H3CH2C3H4C6H4C6H4C6H4CHNH2CHCFeCSC2SC7H8C2HSH8C2SHC3HCHS2C8H3C6H4C6H4C7H4C6HCHCH2CH3C2HNFeH4C2HCH3CHC6H5C3H5CHC2SNCHCH3CSHC4HCH2NCHC5H6CS2H5C2HC3NH2C3FeH7NH2CH2SH3CHCHCNCHCHSHCHC2SC3HC2HCHC3HSFeH6FeCHC2H2C2H2CHCFeCHCHFeHC2HNC10H6CH7C2SC3HSC2SFeHSH7NHNHC7S2CH3SH4C2H3C4H2FeHC3FeC2H2CH4C2HNHCHFeSHSH2FeCFeCHCSHCNCH2NH3SFeH5C2HC3NC9H16CHCH2C2H3C3FeH2C2H2CHCHCSH2SHSH3FeHFeH2C2H2SH4CHSC2SC5HC3H3SCNH4CHC3HCHCSHCFeC2H2C2HC4H2S2C2HC4H2SHCHSHCSCHCHFeCFeC2HCH2FeS2CFeNC4H2CH2NH2FeH2C4HSHCSCH3FeH5SC3H4SHFeSC2H2SCHSCSC2H2SCSFeS3FeS2HCH2CHSHSH2CSC2HCH3SFeS2FeSHFeS2FeSFeS3C2H2CSFeSH2SHSH2FeNCHC2HCH3CHCH2SHC2FeSH6CSHSFeC3H2SCSCH2FeS2FeCHFeSFe2S3HCHSH2CHCHCSCH2SCHNCHCHCSCHC2H2CH2CSH2CHSCHCHSCH2CH3NCHCH3FeC4HCH2C2HCHC2HC6H4CHC4HCH2FeC3NHCFeH3S2HCH4C3H5SCH2C4HCH4CHC2SH2FeHC3H2CHFeC2HCHSCHCH2CHCHNHC7H4C6H4C6H4C6H4CHSHFeHC2H4CHCFeH3CHNH2C2HFeH2CHFeH2C3HC3HCH2C3H2NC7HCH4FeNC9H12CHNC9H11NHC2H6CHCH4FeCHCH2CH3NHCH7SH2C2SCH2CH6FeCHCHCHSC2HC2NHSHSCHCHC4SCH2NC8H12CHC4H3SH4SCSCHC2NHCH3C3SHCHFeC3SC2HC2HC2HC2SC2H2CH3FeCH3CH2SH2C2H2C2HC2FeH2CH2C2HSH5CHCHFeHCHNCFeSC3HCH3C2SCH2CH2FeS2FeSHFeCS2FeS2FeS2FeSFeS2H2SC2HFeSHFeSHFeSFeS3HSH3Fe2S2FeS2FeSFeS3H3SC2HCHNHC2HFeHSCSCS2FeCSHCHFeS2FeCS2H4CSNHFeHSCH2SHC2HNC2HCH2SCH2C2H3CH5CH2CH2CHFeSC3H2C2NC8H2SHCHNCHC3H3CNC3HCHC7H4C6H4C6H5C6H5CHSC6H4C7H3C6H5CFeH4FeH3NHC4HC2H5CH4CHC2H2CHCH2SCH5NH6CH2NC9H16SH2CSHCH7C2HSH4CH3CHCSCNSCSC2HCH2C2H2SCSH2C3H2CH2CHCNSCHCH4C3H3SHSH2C2HCH2CFeC3HC3NH2C4HC3H2CHNC2HFeH2CHC2H2CNHNCH3CH2CNC8H13CH5CH4CHSCHCHFeH2CH2CH5S2HFeH2C2HCH4CSH2C2HC4HCHCHCHNHCHCHCHFeHCH3C3H4CHCHSCHC2FeH3CNHCH3CH2FeCH2C2H2SHCH4SFeS2FeS2FeSFeS3FeSCFeS2FeSFeSFeS2FeS2FeSFeS3CHSCH4C3FeS2HCFeHFeNSHFeS2H2CHCHC2HCHCHFeCHFeS3HFeHS2HCHC2HC2Fe2HCHC4FeH3C2H2CH3SHCNCH4SC2NSCH3CH3C7H4C6H4C6H4C6H4CH3C6H2C8H5CH4C7H4CH2CH2SHC2HCSH3C3H3SCSC5HCSC2HC2HC2H2CH5CH8CH3NC3H10C5H4SHSH3SHSH3CHSHSHC2SC3H3CH2C3H2SHC2H2SNHCFeH4CHCH4SCH2CH2CH2CH2CHCHC2NC6HCNCH2C2H3C2HCH4CH5CHC2HC2HFe2H2FeHC3HSC2HC2HCHC2HCH5CHCHCH2CHC2HCHCHC2H3NC5H7C2HC2NCHC5HC2HCHFeHCHC2HC4SHCH2C3HNC9H14NC9H14C3H5NC9SCSHCH2FeSH2C2NC2H2CH3CH2NCSCSCSHFeH4CHCH2S2H2N2H3CHC3HFeC2HSFeHC7HC2SFeH4FeH2CH6SH3N2CHCH2CFeCHC2H3C2H9C2H5SHSHCHCHCH3CHCH3FeCH2CSH2C2NCFeS2HSFeHSCSHS2CFeCSHSC2SHC2H2CHNFeSHFeS2FeSFeS3FeS2FeS2FeSFeS3CFeHCS2HNHCNH3CFeS2FeCFeH2FeS2H2CFeSFeSH2FeHSH4FeS2H3SCSHCFeSCHFeS2FeSCFeSFeS3FeSCS2FeSFeS2FeS2FeS2FeSFeS2HC6H4C6H4C6H4C6H4C6H3SCSC2HSC9H2CFeH5C7H4C2HC2SH2NC7H4C6H5C4HNCFeCH4C2H3SC2H2CHSCHFeH2CH2C8H2C6H4C6H10C5HC6H4CHCHNH2SHC2H2SHSHCHCH4SHNCH2C4SCH4C2HCHCHCH3C2H2CH2FeCHCHCSCH3CH2CH2CSCSC5H4NC5HCH6CNHNC9H15C2FeCH5C2HCH2C2HCHCH2C2FeH2C2H3CH5CHCH4C2HCH3NH2CH9SNH3SHCHC3HSHNH3CH7FeN2CFeC2HCHCHCHC2S2H3CH3CNC5HCNCHCHSHCHC2HCSCHCHC3SC2H3CH2C2HNC4HSH2CH3C2N2CH2C2HCH2SH2SHCHC2H6CHCH3S2CH2SCH9CH3FeCFeHC2SC2HCHCH3SHCHCH2CHCHC2H2SHC2NHCHSH2C2FeHCH2CHC3SHCH4CH2CH2CHCHFeHCHCFeCHCH2CH3CH4CNCHCH4C2HCHC5H3C3HFeH7CH2C2SH3C2H4C2HCSCH2C2HCHCFeCH5FeS2FeS2FeSFeS3FeS2FeS2FeSFeHS2FeCSCFeHFeSHSFeS2FeS2FeSFeS3FeS2NSHSC2FeS2FeHSFeSCHSHC2HCHC2SHCSFeS2FeS2FeSFeS3C2SHCSHS2FeS2FeHSH2FeS3CHSCFeSHSC4H3SHCH2S2CFeSCHNH4C2H7SH3C2HC3H3FeH2C2H8C8H4C3H4C2SC6H4C6HCH2C6H4C6H5SH2FeCNH2C3SC3HC6H4FeC2FeH2CNCHC6H4C2HC4FeH2C5H3C6H5SH2FeH2FeC6H3C7H3C6H7C6H4C6H4C6H8CH2NCHCH5C2H2C3HC2H2FeCHCH2CNC9H16NC2HCS3HC4H3CH2FeH2C2H2CHCHCH2CHCHCFeC4H2CHNCHC2HCH4C3HSHC2HCNC7H13CH4NH6CNCH3CH2CHNHCHC6H2CH3CSH3CHCNC9H14NC9H14C2HCHFeNC5H5CH6CFeHC2FeH2C3H3CH2CH3CHCH2FeS2HCHCFeCSH8CH3NC9H14NCHC4FeHSHCH6C2HCHSCHC3HCH3C2H6CH3CH2CHCH2CH3CHC2NC2NH2C3HSCS2NCH4C2H2SC2H2CHS2H2C3HNCSCH2C3SCNHCH3C3H2C4NH3CHCHCH2C5SC3SFeHCH5CHFeH2NC4H4C2HSH5CHCH2C2SH2CSC2HCHCHC2H3CNCH2FeHCHC2HCH2SC4H5SCHCFeCHCSC2HCH2CFeCHCH2FeNHCH4FeHCHCH3S2H5CHFeHCSC3HFeHCS2H4SCH2S2H2FeSCSCH2SHC2FeCH3CH2CSCFeC2FeSFeS2FeSCSHFeCFeSCSHNHCH3C2HFeHSFeS2FeSCFeSFeS3FeS2FeS2FeSFeS3FeSFeS2CSHFeS2FeSFeS3FeS2FeS2FeSFeS3CHFeS2FeCFeSHSC7H4C6H4C3H2C4H3C6H4C6H4C6H10SHCH3C2H3SC3H2C2SCH2C3SHCSH2C6H4C6H2FeHC6H4CH2CH2CH2SCHCH2SH2C6H2C6H4C2HC3FeHNCHCH2CHCH2NC9H14CHCHFeH6SH2CHCNHC2H2NCHSC5H2CNC8H10C2FeCHC2SC2HC5HC2H5C3H3C4HFeSFeCH4CSH3CH4CH3NC2HCH2CH6CH6CHFeCSH3CH2C4H2CFeC2H4CH2CSH2CHFeHCHCSC3NH3N2C9H9CHFeCFeNC9H14NCHC6H6SH5CH2CH2NS2CH4C2HC2HCH2SC2HCSH2C3NCH2FeCSH2SC5H3C2SCH2CH2C3H7CHNFeCHCH3SH3C3H2CH2NCH2C2HC3H4CHCH2CHCHCHNH2SHNH4SC2H2CNC2FeHCHSCHSCHC2HFeHSHCHCHCNC10H2CHNCH7FeH2SHC2HC2HCHC2HC2H5CH2C2SH2C2SC2HSH10CHCH6C2H2CH5FeH4CHCHCS2C3HN2SHFeSH3FeHFeS2H2CHFeCSFeHFeHSFe2S2FeS2FeSFeS3CSH2S2CFe2HFeS2H2FeHSFeSHFeS2FeCFeS3FeS2FeS2FeSFeS3NCH3C4FeS2FeCHFeHSFeS3HFeS2CHC2SCHC4FeSCFeH2SH2C4HSH3CHC3H2CHSCHCH2CHCHCHS2CH3CHCHFeSHCFeC6H4C8H5C6H2FeC5HCH3SH4C6H6C2NSC6H5C6H4CH2C6H4C3H3CHCH2FeHCNH3C4H5FeH2CSC8H2CH3CH4C6HCHC2H2CH2CH2C2HCHSHCHSCHFeHCH3C3HC2SHCHSCH2C2HC2H3CHCH2CH2CNCSHCHC4SH2CH2C2HCH2FeH3C5HCH3CHCH4FeHSH2C2HCHNC6NSH5CH6CH3NCHCHCHCH2CHCH6FeCH3CFeHCHC3HC2SCHCHCH4CH4CNH6C3H2CH2SHCH3SCH5CH2FeH2NSHCSCNC7H10SC4H2C2H2NCHCH2CH2CS2HC3H2C2HCHC2HCS2HC2S2C3H3CH2CNHCHNC4NC9H14C2H2SH7CH2CH4C2H2CSH3CS2H2C2H2SH2NH2CHFeCHS2CH2CHC2H2SCFeSCSHFeSHFeS2FeS2FeSFeS2CSCH2CFeSHCHSFeS2FeS2FeCFeS3FeS2FeS2FeSFeS3FeS2FeS2FeSFeS3CH2FeS2FeS2FeSFeS3FeS2FeS2FeSFeS3NCSHSHSCHSHSCH2CHC3HCH3CHFeCH2C6H5CH4C7H4C6H4C6H3C4H2C6H4C2H2C6H4CHC2SHCHCHC6H5C2H2CHSH2C2HC2HCNC6H4C6H4C6H5CH2C6H4C7H4NC2HCHSHC3HFeC2HSCH2CFeC3HFeHC2H4SH5SHC3HSC2HNHFeC2HC6H11SH3C2HC3H4CH2C3SH5C3H2CNH2C2HCH3C2HCH2CHNC9H14NHCHCHCHCHCHCHCH3CH2CH5C7H3CHC2H6NC2HC5H3CH8C2HNCH6C3H2CSH2C3HCH2C2HC2H4CHCSH4SH4CHC3HCHCH2CH2C3HCHC2SH4C2H3CHCFeHCH2C2SFeCH3NSCH3NHNC9HCH2CH9NC8H2CH7NHCHCHCNH8CHCHC2H3CNC2H2CH8NC3NHC2H2CH2CH2C2H6SNHC2FeSC2HCH3SCHC5H2CH5CH2CH5CH2CH2C2H3SH2FeH7C2HCH2CNSCHNCHFeS2FeSHFeSFeS3H3C3FeS2CHCSHS2FeS2FeS2FeSFeS3H2SH2FeS2FeS2FeSFeS3HSCSH3SCHSCHSHCS2NHFeS2HSHFeSFeHSC2H3S2CH4CNH2CHC7H4C6H4C3SCH3NHC6H4C2HCHCH4SHCSCSCHC6H4C2HC3H3C2HC2NCHCH5C4H5C7H4C6H5C9H3C6H3C5H2CHC4HCFeC5H3CHC2H5CH4C3H3CSCH3CHC2H2CHC2HCH3CH2C2HCH2CHNFeC2HC2NH3C2H3SCH3CH4C2NH3CHCH4CHCHFe2CSH6CHNH3CHCHCFeHCH3CH2CHSCHC2H3C2H2C4H3NHCHC3SHCSCH2CH2NC2H4CHCH2CHCH4FeHSNSH2C2H2NC2HC7FeH2CHFeH2CH3NHCNC9HCH12NC2HC2HCHC2HCH2CHCH5CNC6H11CH2CSHC2H4CHCFeHCH4CHCHCH3C3H2C5HCHCH10CFeC2HC3HFeH3C2H2SHCHFeCHC2H2CH3CHC2H3S2CH2CSHCFeH2CHCHCSCHC2FeCSC3H3FeCSNH2SHCH2SCH2CHC2H3FeS2FeS2FeSFeSHFeS2FeS2FeSFeS3CFe2HS2CHFeS3CHNCH2CH2S2CSHFeSFeSHCHC2HC3H2CHFeHS2CSH2C2HSCHCH2FeHSFeH2C2SNH2SH2SCH2C10H3C2HCH3CHCHCHCSC2H3C4HCH2C2SHC3H3C2H2CH3FeHFeHFeC2HC4FeH2CH5C2HCHSH2CH3CH3CHCHCHC6H4C6HCH2C6H8CH3C2SHC2HCHC2H3C2SC6H9C2HNC2HC3HC3HC2HFeH2S2HFeC2HCHNSHCHC2H6CHC8H5C4H3SH2C2H3CH2NHCFeCHC2HSHCH2FeSH6NHCHC6H6SCH2CH3NCHC8H3CH2CH8C4H2SH2NH6NCH3C2H3CHCHSCH3CH2SHCNCH2CH2SCSH2SH2C2HNCHC2HC3SH2C2SH2C4HC4HNHCH2S2H2CNC9H14CHCNHC3H2C2H3CH2CHSNC3HNCH6CHC4HSCSHCSH3CHCHCH2C3H3C3H4CHSCFeHCHFeCHNH2FeSH6CHCFeH2CH3CH2C2FeHCH2CH8C2HS4CSH2SFeS2FeS2FeSFeS3HSH3FeHSHFeCSC3HCHFeS2FeS2FeSFeHS3H2CSH4C2SH4C6H3C3SC3H2CH5C2H3CHCSC3SNCNH3C6H4NHCH3C6H4C6H4C6H5C2H5S2H4CHCHCHC7H5CHFeCH2SC2HC5HS2HCHCNH2FeHCFeC4H2NC3HFeC2H4FeH2CSFeC2H5SCH2CH2C3HC3H2C3H3CFeCHC2FeHCH2CHCHSHC3HC3H3CNC6HFeCH4SH5NCHSH2NFeH3FeHC2H3SCH2SCH3CNC9H14C3H6CH2NH3NHCNC6HC2H3CHCSHSH2CH4CH2FeC3H6NHC4H2CH2CHC2H2CHC3H3CHCH2CH2FeHCHSH2FeCHCH2SHC2H4S2CHCH3CH2CHC2FeHCH4NSHSCH2CFeCS2FeS2FeS2FeSFeSFeS2FeS2FeSFeS3C2FeS2FeSH2SCHSCHSFeSFeCHFeS2FeSFeSFeS3FeSHFeSHSHFeSHSC2FeS2HCH3FeSCSHCNH2CH3CNH3C3HC8H6CH4FeH4C2HC6H4C2HC5H2C6H2SHC6H4C6H4C6H4C6H4SC6H4CHC2S2NHC2H3CHC2H2CHCH2C5HCH6C4H4CH3C2FeCNC4H8CSC2H4CH2CHSCNH3CH2CH3SH3C2SCH2C2H2C3HCSCSC2H2SC2HCHFeC7HCH4CNC9H17CHCSCHSH2CHFeCH2CHSH2CHC3HNHNH2SC3SFeCNHCHCFeHNC9H14NC9H13SNC9H4CH11CHCH2C2H2NH4SH3CSC2NSHCNC9H14C2HC6H2CSCFeH2FeH2CSH3CH2CHCHC3H2C4H2CHCFeC3HFeCHNCH3C2SHCH2CH4CFeHCSH2CSHCHNHFeCHCHCH2C3Fe2H2CH2CH6NHC3HS2C2H3CHNHCSHC2SCSHFeS2C3HCSC2HCHNSCHCH2CH2C2H2CH2FeHCHCSH2SHCH7CH2NCFeH5CH2C2HSCHC2HCH5SH2SC2H2CHCH2C3H2CSFeC2HSHCSC5HCH5FeCHCHS3HCHC2H5CHCHSC2SC5H3CHSH2SCFeS2FeS2FeSFeS3HS2H3FeS2CHCHFeS2FeS2FeSFeS3FeS2FeS2FeCFeHS2FeS2FeS2FeHFeS3FeS2FeS2FeSFeS3FeS2FeCFeSFeSNHCFeS2FeS2FeSFeS4HSHC6H3NC8H2C6H4C6H4C6H4C4FeCH4C6H4NCHC3HSHC6HCH2C7H2NCHC4H4C6H4C4HCH3C7H4C6H4C6H4C6H4C6H5C6H5C2SC4SH2SCSH2C3H2CHCHCHC2HCHCH2NC7H2SH7CH4CNC9H13CNC9H18CSHCNC9H14C2H3CNC2HC6H2FeH4SH6NC5H2SH2NC9H14NC9H14NC9H16C3H2C3H4CSH2SH3CH3C2H5NC7H12NC9H11CH2NCH3FeCH3CH3FeNH3CHCHC2HSHCHC2H4CH3CHC2H2NCH2CH2C3H2SHC2HC2HFe2CH3C2HC2HCH2CSFeCH2CSHSH6SC2HC2HNCH5CHC2H6CH3CHSH2C3SH2SFeH2CH4CHFeH4C2HC2HCS2NC2SHCH2CH
_chemical_formula_sum              "H6912 C5760 S1536 N384 Fe768"
_cell_length_a       95.5935
_cell_length_b       96.5072
_cell_length_c       96.6541
_cell_angle_alpha    73.6935
_cell_angle_beta     73.6923
_cell_angle_gamma    73.6344

_space_group_name_H-M_alt    "P 1"
_space_group_IT_number       1

loop_
  _space_group_symop_operation_xyz
  'x, y, z'

loop_
  _atom_site_type_symbol
  _atom_site_label
  _atom_site_symmetry_multiplicity
  _atom_site_fract_x
  _atom_site_fract_y
  _atom_site_fract_z
  _atom_site_occupancy
  H   H1        1.0  0.29536  0.06751  0.45194  1.0000
  C   C1        1.0  0.14032  0.05505  0.46478  1.0000
  H   H2        1.0  0.43049  0.15144  0.03234  1.0000
  S   S1        1.0  0.48600  0.05628  0.07545  1.0000
  H   H3        1.0  0.44801  0.09744  0.17776  1.0000
  C   C2        1.0  0.42840  0.09941  0.13784  1.0000
  H   H4        1.0  0.46453  0.01194  0.22245  1.0000
  H   H5        1.0  0.31218  0.04864  0.43924  1.0000
  H   H6        1.0  0.43098  0.10151  0.04735  1.0000
  S   S2        1.0  0.44455  0.14556  0.11916  1.0000
  N   N1        1.0  0.42701  0.00105  0.42107  1.0000
  C   C3        1.0  0.47839  0.07554  0.21294  1.0000
  S   S3        1.0  0.44837  0.01235  0.17403  1.0000
  Fe  Fe1       1.0  0.46982  0.07115  0.06174  1.0000
  S   S4        1.0  0.44967  0.06426  0.07786  1.0000
  S   S5        1.0  0.47607  0.07351  0.03697  1.0000
  H   H7        1.0  0.44600  0.98507  0.35196  1.0000
  S   S6        1.0  0.46318  0.06902  0.10396  1.0000
  H   H8        1.0  0.20438  0.04742  0.41286  1.0000
  Fe  Fe2       1.0  0.46568  0.05092  0.09252  1.0000
  S   S7        1.0  0.46695  0.02681  0.10385  1.0000
  Fe  Fe3       1.0  0.44912  0.08287  0.08782  1.0000
  S   S8        1.0  0.42855  0.10011  0.09347  1.0000
  Fe  Fe4       1.0  0.39854  0.99964  0.47209  1.0000
  S   S9        1.0  0.46802  0.09078  0.07061  1.0000
  C   C4        1.0  0.27823  0.07176  0.43990  1.0000
  C   C5        1.0  0.43686  0.12837  0.03050  1.0000
  H   H9        1.0  0.20663  0.10801  0.46045  1.0000
  H   H10       1.0  0.46341  0.12174  0.13438  1.0000
  H   H11       1.0  0.20297  0.03382  0.45569  1.0000
  C   C6        1.0  0.27747  0.99469  0.40425  1.0000
  H   H12       1.0  0.36435  0.02321  0.47142  1.0000
  H   H13       1.0  0.40363  0.99998  0.35181  1.0000
  H   H14       1.0  0.15304  0.99128  0.40704  1.0000
  H   H15       1.0  0.45298  0.00355  0.39838  1.0000
  S   S10       1.0  0.24343  0.06139  0.45869  1.0000
  H   H16       1.0  0.46103  0.10872  0.17540  1.0000
  C   C7        1.0  0.43909  0.10575  0.05048  1.0000
  H   H17       1.0  0.40433  0.99812  0.42548  1.0000
  H   H18       1.0  0.44057  0.02587  0.33950  1.0000
  H   H19       1.0  0.44054  0.04983  0.27317  1.0000
  N   N2        1.0  0.15221  0.04829  0.45342  1.0000
  S   S11       1.0  0.39680  0.02343  0.46018  1.0000
  C   C8        1.0  0.47302  0.03612  0.32908  1.0000
  Fe  Fe5       1.0  0.41754  0.02143  0.46768  1.0000
  S   S12       1.0  0.43603  0.03163  0.45169  1.0000
  C   C9        1.0  0.16846  0.17254  0.43323  1.0000
  H   H20       1.0  0.47941  0.07967  0.00573  1.0000
  C   C10       1.0  0.42101  0.12777  0.05513  1.0000
  Fe  Fe6       1.0  0.09995  0.06007  0.43504  1.0000
  S   S13       1.0  0.08399  0.06607  0.45556  1.0000
  S   S14       1.0  0.11062  0.03570  0.43859  1.0000
  Fe  Fe7       1.0  0.09492  0.09192  0.41788  1.0000
  S   S15       1.0  0.07881  0.10009  0.43716  1.0000
  S   S16       1.0  0.09760  0.11016  0.39755  1.0000
  Fe  Fe8       1.0  0.09521  0.08498  0.45028  1.0000
  H   H21       1.0  0.44142  0.98569  0.43482  1.0000
  Fe  Fe9       1.0  0.06919  0.08045  0.44029  1.0000
  S   S17       1.0  0.04397  0.08414  0.44590  1.0000
  S   S18       1.0  0.11224  0.07803  0.43080  1.0000
  S   S19       1.0  0.08423  0.07319  0.42002  1.0000
  S   S20       1.0  0.21269  0.99675  0.42502  1.0000
  S   S21       1.0  0.17753  0.01030  0.40895  1.0000
  H   H22       1.0  0.08001  0.13728  0.47196  1.0000
  H   H23       1.0  0.42410  0.02837  0.33263  1.0000
  C   C11       1.0  0.48841  0.13429  0.06291  1.0000
  H   H24       1.0  0.41822  0.10396  0.13373  1.0000
  C   C12       1.0  0.30833  0.02362  0.42912  1.0000
  S   S22       1.0  0.16267  0.10991  0.45410  1.0000
  H   H25       1.0  0.11835  0.12944  0.44890  1.0000
  H   H26       1.0  0.41216  0.12535  0.05133  1.0000
  C   C13       1.0  0.44200  0.12466  0.15943  1.0000
  S   S23       1.0  0.01071  0.05688  0.41512  1.0000
  H   H27       1.0  0.44968  0.99949  0.26470  1.0000
  C   C14       1.0  0.44508  0.02302  0.25424  1.0000
  C   C15       1.0  0.32311  0.04040  0.41212  1.0000
  C   C16       1.0  0.03508  0.07550  0.43802  1.0000
  C   C17       1.0  0.04318  0.06638  0.42815  1.0000
  C   C18       1.0  0.03562  0.06021  0.42163  1.0000
  C   C19       1.0  0.01994  0.06335  0.42472  1.0000
  C   C20       1.0  0.01190  0.07214  0.43489  1.0000
  C   C21       1.0  0.01943  0.07821  0.44148  1.0000
  H   H28       1.0  0.05525  0.06401  0.42558  1.0000
  H   H29       1.0  0.04194  0.05320  0.41396  1.0000
  C   C22       1.0  0.10962  0.17255  0.47131  1.0000
  H   H30       1.0  0.01308  0.08498  0.44935  1.0000
  H   H31       1.0  0.48692  0.17762  0.17646  1.0000
  H   H32       1.0  0.14311  0.05080  0.47586  1.0000
  S   S24       1.0  0.47238  0.05144  0.23467  1.0000
  C   C23       1.0  0.14537  0.10509  0.45810  1.0000
  C   C24       1.0  0.14052  0.10255  0.44681  1.0000
  C   C25       1.0  0.12681  0.09850  0.44980  1.0000
  C   C26       1.0  0.49301  0.07171  0.13308  1.0000
  H   H33       1.0  0.40634  0.14802  0.99042  1.0000
  H   H34       1.0  0.14736  0.10380  0.43571  1.0000
  H   H35       1.0  0.12303  0.09690  0.44097  1.0000
  C   C27       1.0  0.10772  0.12205  0.39919  1.0000
  C   C28       1.0  0.11808  0.11687  0.40823  1.0000
  C   C29       1.0  0.12599  0.12646  0.40962  1.0000
  C   C30       1.0  0.12317  0.14140  0.40242  1.0000
  C   C31       1.0  0.11282  0.14661  0.39336  1.0000
  C   C32       1.0  0.10528  0.13689  0.39157  1.0000
  H   H36       1.0  0.12025  0.10541  0.41391  1.0000
  H   H37       1.0  0.13412  0.12235  0.41648  1.0000
  H   H38       1.0  0.11094  0.15801  0.38741  1.0000
  H   H39       1.0  0.09746  0.14089  0.38438  1.0000
  C   C33       1.0  0.12951  0.02953  0.43063  1.0000
  C   C34       1.0  0.13731  0.01589  0.43747  1.0000
  C   C35       1.0  0.15223  0.01026  0.43117  1.0000
  C   C36       1.0  0.15932  0.01799  0.41773  1.0000
  C   C37       1.0  0.15156  0.03169  0.41089  1.0000
  C   C38       1.0  0.13670  0.03756  0.41742  1.0000
  H   H40       1.0  0.13171  0.00956  0.44760  1.0000
  H   H41       1.0  0.15801  0.99966  0.43639  1.0000
  H   H42       1.0  0.15697  0.03769  0.40042  1.0000
  H   H43       1.0  0.13068  0.04803  0.41201  1.0000
  C   C39       1.0  0.45165  0.02015  0.44264  1.0000
  C   C40       1.0  0.45483  0.00479  0.44784  1.0000
  H   H44       1.0  0.15496  0.02652  0.46778  1.0000
  C   C41       1.0  0.47737  0.00245  0.42830  1.0000
  C   C42       1.0  0.47391  0.01775  0.42281  1.0000
  C   C43       1.0  0.46118  0.02659  0.43008  1.0000
  H   H45       1.0  0.44764  0.99970  0.45751  1.0000
  H   H46       1.0  0.24580  0.99485  0.39447  1.0000
  H   H47       1.0  0.48130  0.02283  0.41325  1.0000
  H   H48       1.0  0.45877  0.03847  0.42598  1.0000
  H   H49       1.0  0.43151  0.12202  0.16705  1.0000
  C   C44       1.0  0.36502  0.00863  0.43917  1.0000
  C   C45       1.0  0.37579  0.00361  0.44775  1.0000
  S   S25       1.0  0.31415  0.02785  0.46615  1.0000
  H   H50       1.0  0.35989  0.02031  0.43665  1.0000
  H   H51       1.0  0.37880  0.01142  0.45175  1.0000
  H   H52       1.0  0.02351  0.12235  0.41389  1.0000
  C   C46       1.0  0.22305  0.08761  0.45928  1.0000
  H   H53       1.0  0.43918  0.13268  0.14929  1.0000
  S   S26       1.0  0.34627  0.00551  0.42437  1.0000
  N   N3        1.0  0.02350  0.09945  0.38636  1.0000
  S   S27       1.0  0.18352  0.98490  0.44764  1.0000
  C   C47       1.0  0.45532  0.08812  0.14709  1.0000
  H   H54       1.0  0.46709  0.09270  0.16803  1.0000
  C   C48       1.0  0.30286  0.03577  0.40533  1.0000
  C   C49       1.0  0.47474  0.01525  0.31893  1.0000
  H   H55       1.0  0.42134  0.99743  0.36569  1.0000
  H   H56       1.0  0.46252  0.08102  0.98985  1.0000
  C   C50       1.0  0.18207  0.06891  0.45000  1.0000
  H   H57       1.0  0.04314  0.08526  0.37606  1.0000
  H   H58       1.0  0.15920  0.07516  0.44893  1.0000
  H   H59       1.0  0.30481  0.00137  0.46955  1.0000
  H   H60       1.0  0.06342  0.11900  0.38640  1.0000
  Fe  Fe10      1.0  0.45496  0.98952  0.18806  1.0000
  H   H61       1.0  0.46433  0.99346  0.15298  1.0000
  C   C51       1.0  0.41035  0.99746  0.34145  1.0000
  H   H62       1.0  0.48407  0.09408  0.19563  1.0000
  C   C52       1.0  0.44090  0.11935  0.01996  1.0000
  H   H63       1.0  0.01993  0.10981  0.43149  1.0000
  H   H64       1.0  0.11508  0.14500  0.43400  1.0000
  H   H65       1.0  0.43262  0.98606  0.30463  1.0000
  C   C53       1.0  0.02735  0.11735  0.42439  1.0000
  H   H66       1.0  0.44419  0.99691  0.31715  1.0000
  C   C54       1.0  0.19331  0.04281  0.45424  1.0000
  H   H67       1.0  0.47087  0.02959  0.16817  1.0000
  H   H68       1.0  0.44108  0.04732  0.24883  1.0000
  C   C55       1.0  0.43670  0.01130  0.23973  1.0000
  H   H69       1.0  0.44389  0.10741  0.02295  1.0000
  H   H70       1.0  0.04353  0.11443  0.44410  1.0000
  C   C56       1.0  0.47080  0.03049  0.31817  1.0000
  H   H71       1.0  0.49113  0.00029  0.16190  1.0000
  H   H72       1.0  0.03865  0.11012  0.42184  1.0000
  H   H73       1.0  0.46974  0.04790  0.32860  1.0000
  C   C57       1.0  0.46620  0.11555  0.14518  1.0000
  H   H74       1.0  0.45118  0.04188  0.22627  1.0000
  H   H75       1.0  0.21710  0.08361  0.45373  1.0000
  C   C58       1.0  0.29770  0.04979  0.42485  1.0000
  C   C59       1.0  0.48059  0.02945  0.03479  1.0000
  H   H76       1.0  0.46573  0.03794  0.30934  1.0000
  C   C60       1.0  0.05287  0.13245  0.41782  1.0000
  C   C61       1.0  0.03055  0.11166  0.38533  1.0000
  H   H77       1.0  0.42485  0.01620  0.24434  1.0000
  H   H78       1.0  0.00278  0.10786  0.40061  1.0000
  H   H79       1.0  0.48562  0.13203  0.05377  1.0000
  C   C62       1.0  0.45339  0.01593  0.15455  1.0000
  C   C63       1.0  0.44966  0.03053  0.14655  1.0000
  C   C64       1.0  0.45385  0.03395  0.13105  1.0000
  C   C65       1.0  0.46176  0.02279  0.12338  1.0000
  C   C66       1.0  0.46549  0.00817  0.13138  1.0000
  C   C67       1.0  0.46140  0.00475  0.14693  1.0000
  H   H80       1.0  0.44343  0.03923  0.15237  1.0000
  H   H81       1.0  0.45066  0.04518  0.12504  1.0000
  H   H82       1.0  0.47156  0.99946  0.12552  1.0000
  H   H83       1.0  0.42459  0.99585  0.44472  1.0000
  C   C68       1.0  0.44025  0.13310  0.11170  1.0000
  C   C69       1.0  0.42616  0.13592  0.10857  1.0000
  C   C70       1.0  0.42259  0.12579  0.10289  1.0000
  C   C71       1.0  0.43323  0.11301  0.10006  1.0000
  C   C72       1.0  0.44749  0.11046  0.10274  1.0000
  C   C73       1.0  0.45095  0.12041  0.10871  1.0000
  H   H84       1.0  0.41792  0.14581  0.11074  1.0000
  H   H85       1.0  0.41159  0.12785  0.10074  1.0000
  H   H86       1.0  0.45582  0.10071  0.10047  1.0000
  H   H87       1.0  0.46192  0.11827  0.11090  1.0000
  S   S28       1.0  0.40484  0.17921  0.98656  1.0000
  H   H88       1.0  0.47068  0.12285  0.14910  1.0000
  H   H89       1.0  0.48077  0.16269  0.10028  1.0000
  S   S29       1.0  0.45934  0.16577  0.08048  1.0000
  C   C74       1.0  0.15394  0.17619  0.41523  1.0000
  H   H90       1.0  0.48669  0.15463  0.11738  1.0000
  C   C75       1.0  0.01201  0.09786  0.40029  1.0000
  C   C76       1.0  0.47861  0.06801  0.22758  1.0000
  C   C77       1.0  0.06292  0.14132  0.40939  1.0000
  C   C78       1.0  0.25500  0.99102  0.40006  1.0000
  H   H91       1.0  0.11779  0.13677  0.46883  1.0000
  H   H92       1.0  0.32005  0.99695  0.45460  1.0000
  C   C79       1.0  0.22461  0.10651  0.47054  1.0000
  H   H93       1.0  0.05737  0.12072  0.42102  1.0000
  H   H94       1.0  0.14688  0.17163  0.41106  1.0000
  H   H95       1.0  0.49388  0.99246  0.24390  1.0000
  C   C80       1.0  0.44405  0.07693  0.00808  1.0000
  C   C81       1.0  0.43908  0.07433  0.02352  1.0000
  C   C82       1.0  0.44860  0.07371  0.03256  1.0000
  C   C83       1.0  0.46324  0.07546  0.02617  1.0000
  C   C84       1.0  0.46810  0.07831  0.01074  1.0000
  C   C85       1.0  0.45852  0.07914  0.00171  1.0000
  H   H96       1.0  0.42789  0.07259  0.02850  1.0000
  H   H97       1.0  0.44475  0.07151  0.04444  1.0000
  C   C86       1.0  0.39275  0.05399  0.99135  1.0000
  C   C87       1.0  0.03245  0.15403  0.41675  1.0000
  N   N4        1.0  0.24583  0.02301  0.43428  1.0000
  C   C88       1.0  0.24531  0.02298  0.44977  1.0000
  C   C89       1.0  0.24255  0.00884  0.43429  1.0000
  C   C90       1.0  0.26124  0.02327  0.42549  1.0000
  C   C91       1.0  0.23527  0.03630  0.42815  1.0000
  C   C92       1.0  0.23677  0.05066  0.42768  1.0000
  C   C93       1.0  0.22329  0.03551  0.42258  1.0000
  C   C94       1.0  0.22687  0.06340  0.42213  1.0000
  C   C95       1.0  0.21349  0.04832  0.41696  1.0000
  C   C96       1.0  0.21526  0.06223  0.41674  1.0000
  H   H98       1.0  0.23373  0.02357  0.45654  1.0000
  H   H99       1.0  0.25260  0.01280  0.45501  1.0000
  H   H100      1.0  0.24911  0.03246  0.45073  1.0000
  H   H101      1.0  0.23122  0.00773  0.44106  1.0000
  H   H102      1.0  0.25058  0.99904  0.43908  1.0000
  H   H103      1.0  0.24331  0.00781  0.42292  1.0000
  H   H104      1.0  0.26523  0.03267  0.42636  1.0000
  H   H105      1.0  0.26938  0.01298  0.42924  1.0000
  H   H106      1.0  0.26191  0.02415  0.41359  1.0000
  H   H107      1.0  0.24555  0.05214  0.43179  1.0000
  H   H108      1.0  0.22117  0.02513  0.42250  1.0000
  H   H109      1.0  0.22812  0.07422  0.42216  1.0000
  C   C97       1.0  0.46579  0.03976  0.01568  1.0000
  H   H110      1.0  0.20754  0.07212  0.41251  1.0000
  N   N5        1.0  0.43250  0.00602  0.34349  1.0000
  C   C98       1.0  0.44722  0.99632  0.34552  1.0000
  C   C99       1.0  0.44724  0.12684  0.05122  1.0000
  C   C100      1.0  0.42362  0.00813  0.35836  1.0000
  H   H111      1.0  0.45066  0.10071  0.04514  1.0000
  Fe  Fe11      1.0  0.16658  0.11883  0.47150  1.0000
  C   C101      1.0  0.04570  0.10929  0.38623  1.0000
  H   H112      1.0  0.30188  0.04611  0.39658  1.0000
  C   C102      1.0  0.30170  0.05397  0.43593  1.0000
  C   C103      1.0  0.04312  0.13543  0.38429  1.0000
  H   H113      1.0  0.45910  0.03005  0.06138  1.0000
  H   H114      1.0  0.07427  0.15669  0.44988  1.0000
  H   H115      1.0  0.47700  0.03686  0.99373  1.0000
  C   C104      1.0  0.08511  0.15166  0.44325  1.0000
  C   C105      1.0  0.19449  0.05740  0.45180  1.0000
  H   H116      1.0  0.48913  0.11913  0.09868  1.0000
  H   H117      1.0  0.46599  0.08350  0.15011  1.0000
  H   H118      1.0  0.42965  0.01245  0.36399  1.0000
  N   N6        1.0  0.43610  0.12218  0.04650  1.0000
  C   C106      1.0  0.43293  0.99551  0.32222  1.0000
  C   C107      1.0  0.43693  0.08557  0.13568  1.0000
  C   C108      1.0  0.44321  0.03470  0.22821  1.0000
  H   H119      1.0  0.04791  0.14450  0.38388  1.0000
  C   C109      1.0  0.48723  0.12429  0.07650  1.0000
  H   H120      1.0  0.47033  0.01983  0.23408  1.0000
  C   C110      1.0  0.03419  0.08491  0.38632  1.0000
  C   C111      1.0  0.46245  0.01329  0.23395  1.0000
  H   H121      1.0  0.41982  0.12263  0.06716  1.0000
  H   H122      1.0  0.44469  0.02776  0.29337  1.0000
  C   C112      1.0  0.44241  0.03726  0.25725  1.0000
  N   N7        1.0  0.15844  0.16619  0.42873  1.0000
  H   H123      1.0  0.39412  0.06100  0.99810  1.0000
  H   H124      1.0  0.27070  0.07999  0.44579  1.0000
  C   C113      1.0  0.48399  0.08845  0.20702  1.0000
  H   H125      1.0  0.43948  0.00002  0.24660  1.0000
  H   H126      1.0  0.17522  0.15156  0.41598  1.0000
  H   H127      1.0  0.01692  0.09573  0.41004  1.0000
  C   C114      1.0  0.02200  0.12642  0.38411  1.0000
  C   C115      1.0  0.03737  0.13855  0.42208  1.0000
  H   H128      1.0  0.01033  0.12900  0.38380  1.0000
  S   S30       1.0  0.47070  0.00816  0.30603  1.0000
  H   H129      1.0  0.10696  0.12934  0.43731  1.0000
  H   H130      1.0  0.16009  0.02665  0.44821  1.0000
  H   H131      1.0  0.18865  0.15480  0.43060  1.0000
  C   C116      1.0  0.13644  0.10361  0.47239  1.0000
  H   H132      1.0  0.31534  0.01413  0.42422  1.0000
  C   C117      1.0  0.01615  0.10276  0.37379  1.0000
  H   H133      1.0  0.00652  0.11245  0.37404  1.0000
  H   H134      1.0  0.02418  0.10500  0.36302  1.0000
  H   H135      1.0  0.32875  0.03939  0.42111  1.0000
  H   H136      1.0  0.43165  0.04105  0.23175  1.0000
  H   H137      1.0  0.48438  0.99386  0.33100  1.0000
  C   C118      1.0  0.43330  0.10774  0.14454  1.0000
  H   H138      1.0  0.42822  0.01968  0.42866  1.0000
  H   H139      1.0  0.44205  0.01980  0.32324  1.0000
  H   H140      1.0  0.43330  0.07942  0.13003  1.0000
  H   H141      1.0  0.03942  0.08121  0.39606  1.0000
  Fe  Fe12      1.0  0.33884  0.98957  0.41661  1.0000
  C   C119      1.0  0.44695  0.01241  0.28012  1.0000
  C   C120      1.0  0.34198  0.02520  0.46958  1.0000
  C   C121      1.0  0.42524  0.99954  0.33590  1.0000
  C   C122      1.0  0.44694  0.10227  0.14946  1.0000
  H   H142      1.0  0.33060  0.03208  0.40576  1.0000
  C   C123      1.0  0.47952  0.02655  0.34056  1.0000
  H   H143      1.0  0.15738  0.14693  0.42210  1.0000
  H   H144      1.0  0.46670  0.04649  0.05542  1.0000
  H   H145      1.0  0.10069  0.99860  0.43574  1.0000
  C   C124      1.0  0.44718  0.01067  0.26618  1.0000
  H   H146      1.0  0.40838  0.01407  0.41138  1.0000
  Fe  Fe13      1.0  0.48358  0.03783  0.25312  1.0000
  H   H147      1.0  0.48042  0.02437  0.15092  1.0000
  C   C125      1.0  0.05182  0.12106  0.38568  1.0000
  C   C126      1.0  0.02821  0.13810  0.38358  1.0000
  H   H148      1.0  0.42727  0.17754  0.02496  1.0000
  H   H149      1.0  0.42645  0.11863  0.14522  1.0000
  S   S31       1.0  0.48208  0.03381  0.35416  1.0000
  H   H150      1.0  0.47541  0.10586  0.14301  1.0000
  H   H151      1.0  0.02134  0.14926  0.38278  1.0000
  S   S32       1.0  0.43246  0.07616  0.99708  1.0000
  N   N8        1.0  0.30775  0.03768  0.41786  1.0000
  H   H152      1.0  0.44510  0.13909  0.04958  1.0000
  H   H153      1.0  0.02852  0.07597  0.38712  1.0000
  Fe  Fe14      1.0  0.11949  0.17688  0.40350  1.0000
  C   C127      1.0  0.04259  0.16280  0.40819  1.0000
  S   S33       1.0  0.27534  0.02720  0.46596  1.0000
  H   H154      1.0  0.49415  0.04432  0.04473  1.0000
  C   C128      1.0  0.14828  0.05498  0.43882  1.0000
  Fe  Fe15      1.0  0.44326  0.16668  0.10214  1.0000
  H   H155      1.0  0.49332  0.15534  0.05075  1.0000
  C   C129      1.0  0.49064  0.12720  0.08841  1.0000
  H   H156      1.0  0.00677  0.08846  0.40172  1.0000
  C   C130      1.0  0.26522  0.99991  0.39750  1.0000
  C   C131      1.0  0.13132  0.00485  0.40901  1.0000
  H   H157      1.0  0.13736  0.15951  0.43791  1.0000
  H   H158      1.0  0.39765  0.04227  0.99609  1.0000
  S   S34       1.0  0.20479  0.00120  0.46511  1.0000
  H   H159      1.0  0.01136  0.09340  0.37397  1.0000
  C   C132      1.0  0.16845  0.06585  0.45053  1.0000
  N   N9        1.0  0.02717  0.12896  0.43179  1.0000
  S   S35       1.0  0.21639  0.12289  0.47684  1.0000
  H   H160      1.0  0.39268  0.98937  0.33868  1.0000
  H   H161      1.0  0.48901  0.00391  0.34984  1.0000
  Fe  Fe16      1.0  0.31270  0.99011  0.40480  1.0000
  H   H162      1.0  0.30291  0.99073  0.45814  1.0000
  H   H163      1.0  0.08263  0.14398  0.43800  1.0000
  H   H164      1.0  0.29699  0.02138  0.43424  1.0000
  H   H165      1.0  0.29206  0.03220  0.40902  1.0000
  C   C133      1.0  0.03217  0.12172  0.44584  1.0000
  C   C134      1.0  0.16534  0.15130  0.42538  1.0000
  H   H166      1.0  0.02083  0.15968  0.41904  1.0000
  H   H167      1.0  0.13750  0.05280  0.43863  1.0000
  H   H168      1.0  0.41668  0.06608  0.98098  1.0000
  C   C135      1.0  0.17972  0.03963  0.45481  1.0000
  H   H169      1.0  0.03861  0.17460  0.40437  1.0000
  S   S36       1.0  0.17777  0.13803  0.46270  1.0000
  H   H170      1.0  0.06570  0.16337  0.39833  1.0000
  S   S37       1.0  0.49401  0.99127  0.42037  1.0000
  C   C136      1.0  0.45036  0.07992  0.14033  1.0000
  H   H171      1.0  0.31093  0.02690  0.40001  1.0000
  H   H172      1.0  0.44702  0.12226  0.06322  1.0000
  H   H173      1.0  0.45515  0.99499  0.33490  1.0000
  H   H174      1.0  0.07473  0.13633  0.40652  1.0000
  C   C137      1.0  0.23313  0.98600  0.46864  1.0000
  H   H175      1.0  0.25460  0.07769  0.47258  1.0000
  H   H176      1.0  0.41281  0.01623  0.35773  1.0000
  H   H177      1.0  0.43804  0.10142  0.06259  1.0000
  C   C138      1.0  0.11206  0.14831  0.46712  1.0000
  H   H178      1.0  0.44406  0.03253  0.21724  1.0000
  C   C139      1.0  0.43373  0.01369  0.41953  1.0000
  S   S38       1.0  0.48331  0.01377  0.26184  1.0000
  H   H179      1.0  0.41855  0.13991  0.05430  1.0000
  H   H180      1.0  0.27937  0.05468  0.41344  1.0000
  C   C140      1.0  0.27393  0.06797  0.42907  1.0000
  C   C141      1.0  0.43746  0.14093  0.00004  1.0000
  H   H181      1.0  0.13845  0.06731  0.46225  1.0000
  C   C142      1.0  0.12274  0.09952  0.47539  1.0000
  H   H182      1.0  0.44657  0.13072  0.16477  1.0000
  C   C143      1.0  0.43361  0.15006  0.01002  1.0000
  H   H183      1.0  0.45712  0.06928  0.13834  1.0000
  H   H184      1.0  0.16866  0.14301  0.43517  1.0000
  H   H185      1.0  0.26299  0.07331  0.42669  1.0000
  C   C144      1.0  0.44691  0.99575  0.39813  1.0000
  C   C145      1.0  0.49262  0.02391  0.02382  1.0000
  S   S39       1.0  0.33404  0.99768  0.39395  1.0000
  C   C146      1.0  0.44442  0.02649  0.28267  1.0000
  S   S40       1.0  0.48021  0.04247  0.27542  1.0000
  C   C147      1.0  0.45740  0.10208  0.16985  1.0000
  H   H186      1.0  0.43740  0.00967  0.22857  1.0000
  H   H187      1.0  0.45876  0.12302  0.04493  1.0000
  C   C148      1.0  0.44210  0.03889  0.27128  1.0000
  H   H188      1.0  0.32303  0.05160  0.40480  1.0000
  H   H189      1.0  0.49373  0.09088  0.23739  1.0000
  H   H190      1.0  0.03242  0.13004  0.45167  1.0000
  H   H191      1.0  0.45542  0.04602  0.01243  1.0000
  C   C149      1.0  0.48495  0.01073  0.05678  1.0000
  H   H192      1.0  0.48833  0.06497  0.11573  1.0000
  S   S41       1.0  0.13255  0.15336  0.40513  1.0000
  H   H193      1.0  0.48584  0.00840  0.06852  1.0000
  H   H194      1.0  0.43273  0.02192  0.40897  1.0000
  C   C150      1.0  0.43360  0.99325  0.40875  1.0000
  H   H195      1.0  0.44403  0.11852  0.99719  1.0000
  H   H196      1.0  0.47556  0.00612  0.05664  1.0000
  H   H197      1.0  0.46556  0.00206  0.24093  1.0000
  S   S42       1.0  0.29110  0.00506  0.39992  1.0000
  C   C151      1.0  0.29209  0.06477  0.44332  1.0000
  H   H198      1.0  0.13806  0.17569  0.44290  1.0000
  C   C152      1.0  0.11655  0.15761  0.47303  1.0000
  H   H199      1.0  0.45284  0.00081  0.35140  1.0000
  C   C153      1.0  0.44112  0.12561  0.00499  1.0000
  N   N10       1.0  0.45290  0.11104  0.15590  1.0000
  C   C154      1.0  0.48130  0.00566  0.33038  1.0000
  H   H200      1.0  0.26391  0.01061  0.38994  1.0000
  C   C155      1.0  0.22068  0.99711  0.47249  1.0000
  C   C156      1.0  0.41185  0.98724  0.32074  1.0000
  N   N11       1.0  0.09632  0.14389  0.45247  1.0000
  H   H201      1.0  0.08676  0.12458  0.45976  1.0000
  H   H202      1.0  0.44573  0.00994  0.42005  1.0000
  H   H203      1.0  0.08921  0.16056  0.43409  1.0000
  C   C157      1.0  0.10048  0.15381  0.45915  1.0000
  H   H204      1.0  0.18291  0.08030  0.44823  1.0000
  H   H205      1.0  0.13482  0.01326  0.39950  1.0000
  Fe  Fe17      1.0  0.43993  0.17968  0.07081  1.0000
  C   C158      1.0  0.09789  0.17821  0.46400  1.0000
  H   H206      1.0  0.43059  0.16198  0.00610  1.0000
  C   C159      1.0  0.42633  0.98940  0.31484  1.0000
  C   C160      1.0  0.19263  0.17164  0.43810  1.0000
  H   H207      1.0  0.45720  0.04187  0.03779  1.0000
  C   C161      1.0  0.46776  0.99599  0.44080  1.0000
  C   C162      1.0  0.28346  0.05715  0.42160  1.0000
  H   H208      1.0  0.05308  0.09845  0.38742  1.0000
  C   C163      1.0  0.48162  0.02896  0.15978  1.0000
  C   C164      1.0  0.43342  0.14392  0.02501  1.0000
  C   C165      1.0  0.23647  0.07891  0.46291  1.0000
  H   H209      1.0  0.00405  0.12954  0.44296  1.0000
  H   H210      1.0  0.31340  0.02367  0.43816  1.0000
  N   N12       1.0  0.44676  0.02075  0.23927  1.0000
  Fe  Fe18      1.0  0.48283  0.01800  0.28364  1.0000
  H   H211      1.0  0.43751  0.14575  0.98846  1.0000
  H   H212      1.0  0.47592  0.14574  0.11138  1.0000
  H   H213      1.0  0.40569  0.01374  0.43065  1.0000
  C   C166      1.0  0.41071  0.00698  0.42210  1.0000
  C   C167      1.0  0.48943  0.08664  0.23056  1.0000
  H   H214      1.0  0.15699  0.05033  0.42989  1.0000
  S   S43       1.0  0.42335  0.17898  0.09254  1.0000
  C   C168      1.0  0.44181  0.18304  0.03505  1.0000
  C   C169      1.0  0.49012  0.17857  0.16462  1.0000
  Fe  Fe19      1.0  0.20541  0.98773  0.44925  1.0000
  C   C170      1.0  0.48938  0.09408  0.21588  1.0000
  C   C171      1.0  0.11792  0.09691  0.46412  1.0000
  Fe  Fe20      1.0  0.25870  0.04657  0.47336  1.0000
  C   C172      1.0  0.05782  0.15651  0.40470  1.0000
  H   H215      1.0  0.34520  0.01683  0.46316  1.0000
  H   H216      1.0  0.02475  0.11438  0.45346  1.0000
  Fe  Fe21      1.0  0.48231  0.07537  0.08580  1.0000
  C   C173      1.0  0.42931  0.99046  0.43511  1.0000
  C   C174      1.0  0.46700  0.03727  0.03031  1.0000
  H   H217      1.0  0.16386  0.17808  0.40619  1.0000
  H   H218      1.0  0.44945  0.00273  0.28877  1.0000
  C   C175      1.0  0.48548  0.01188  0.45671  1.0000
  H   H219      1.0  0.47413  0.07126  0.20611  1.0000
  C   C176      1.0  0.36046  0.99862  0.43432  1.0000
  C   C177      1.0  0.18360  0.16539  0.43352  1.0000
  H   H220      1.0  0.46463  0.02245  0.46794  1.0000
  N   N13       1.0  0.48240  0.02682  0.05012  1.0000
  H   H221      1.0  0.12929  0.05270  0.46565  1.0000
  C   C178      1.0  0.43488  0.02066  0.33435  1.0000
  Fe  Fe22      1.0  0.19150  0.99236  0.42326  1.0000
  H   H222      1.0  0.17970  0.02805  0.45666  1.0000
  C   C179      1.0  0.09323  0.16901  0.45812  1.0000
  H   H223      1.0  0.42189  0.04710  0.98007  1.0000
  C   C180      1.0  0.11214  0.99662  0.42947  1.0000
  H   H224      1.0  0.14693  0.06721  0.43584  1.0000
  H   H225      1.0  0.08410  0.17417  0.45258  1.0000
  C   C181      1.0  0.21708  0.10137  0.46318  1.0000
  C   C182      1.0  0.10975  0.13663  0.44279  1.0000
  H   H226      1.0  0.48359  0.11419  0.07790  1.0000
  C   C183      1.0  0.16679  0.05113  0.45302  1.0000
  S   S44       1.0  0.43467  0.17320  0.05260  1.0000
  C   C184      1.0  0.32695  0.03219  0.47329  1.0000
  H   H227      1.0  0.20505  0.05981  0.45134  1.0000
  H   H228      1.0  0.38054  0.05508  0.99293  1.0000
  H   H229      1.0  0.48449  0.06770  0.24764  1.0000
  C   C185      1.0  0.48387  0.01134  0.34108  1.0000
  S   S45       1.0  0.46267  0.98976  0.20788  1.0000
  C   C186      1.0  0.01140  0.13707  0.43564  1.0000
  H   H230      1.0  0.01033  0.14580  0.44158  1.0000
  S   S46       1.0  0.14743  0.17055  0.47736  1.0000
  C   C187      1.0  0.48425  0.07349  0.23634  1.0000
  H   H231      1.0  0.00674  0.14234  0.42560  1.0000
  H   H232      1.0  0.47106  0.03255  0.07121  1.0000
  H   H233      1.0  0.20401  0.16580  0.43868  1.0000
  C   C188      1.0  0.40386  0.99134  0.33396  1.0000
  H   H234      1.0  0.48714  0.06427  0.14181  1.0000
  H   H235      1.0  0.14793  0.15800  0.45125  1.0000
  C   C189      1.0  0.24411  0.08417  0.47004  1.0000
  C   C190      1.0  0.38241  0.98858  0.45121  1.0000
  H   H236      1.0  0.10872  0.01742  0.41383  1.0000
  C   C191      1.0  0.14175  0.99208  0.41357  1.0000
  C   C192      1.0  0.49288  0.14733  0.06120  1.0000
  H   H237      1.0  0.99986  0.07412  0.43786  1.0000
  C   C193      1.0  0.11661  0.00721  0.41704  1.0000
  C   C194      1.0  0.31102  0.99252  0.46342  1.0000
  C   C195      1.0  0.14488  0.16480  0.44069  1.0000
  C   C196      1.0  0.24621  0.98394  0.47362  1.0000
  C   C197      1.0  0.47307  0.01227  0.46857  1.0000
  C   C198      1.0  0.48496  0.15199  0.10756  1.0000
  H   H238      1.0  0.48610  0.02139  0.44753  1.0000
  H   H239      1.0  0.48178  0.00334  0.17986  1.0000
  C   C199      1.0  0.46921  0.03432  0.05989  1.0000
  C   C200      1.0  0.35280  0.02874  0.47434  1.0000
  C   C201      1.0  0.23828  0.09803  0.47371  1.0000
  C   C202      1.0  0.09005  0.13231  0.46433  1.0000
  H   H240      1.0  0.48294  0.04042  0.15447  1.0000
  H   H241      1.0  0.09823  0.12530  0.47108  1.0000
  C   C203      1.0  0.49131  0.02657  0.00919  1.0000
  C   C204      1.0  0.49221  0.00427  0.17124  1.0000
  C   C205      1.0  0.45306  0.98787  0.38688  1.0000
  H   H242      1.0  0.46335  0.98977  0.37907  1.0000
  S   S47       1.0  0.49274  0.11821  0.16642  1.0000
  S   S48       1.0  0.10065  0.09196  0.46821  1.0000
  C   C206      1.0  0.41071  0.15239  0.97888  1.0000
  H   H243      1.0  0.11338  0.17973  0.47569  1.0000
  H   H244      1.0  0.14092  0.03057  0.45741  1.0000
  C   C207      1.0  0.15213  0.03230  0.45688  1.0000
  C   C208      1.0  0.47795  0.03458  0.00511  1.0000
  C   C209      1.0  0.49352  0.07223  0.11832  1.0000
  N   N14       1.0  0.49430  0.01974  0.16659  1.0000
  H   H245      1.0  0.47046  0.98416  0.44513  1.0000
  C   C210      1.0  0.43572  0.18365  0.02329  1.0000
  C   C211      1.0  0.12243  0.98375  0.43407  1.0000
  H   H246      1.0  0.20916  0.05114  0.47749  1.0000
  H   H247      1.0  0.16073  0.12022  0.62409  1.0000
  H   H248      1.0  0.35126  0.04615  0.64176  1.0000
  C   C212      1.0  0.16994  0.18116  0.48072  1.0000
  H   H249      1.0  0.01558  0.11095  0.70477  1.0000
  Fe  Fe23      1.0  0.48512  0.00627  0.69822  1.0000
  S   S49       1.0  0.46930  0.02832  0.69469  1.0000
  H   H250      1.0  0.37235  0.00715  0.87702  1.0000
  H   H251      1.0  0.33355  0.04193  0.65271  1.0000
  H   H252      1.0  0.48423  0.99970  0.88393  1.0000
  H   H253      1.0  0.48466  0.12514  0.83213  1.0000
  H   H254      1.0  0.42236  0.03808  0.96051  1.0000
  H   H255      1.0  0.37938  0.99706  0.54881  1.0000
  H   H256      1.0  0.46923  0.03467  0.85758  1.0000
  Fe  Fe24      1.0  0.40240  0.00310  0.60838  1.0000
  S   S50       1.0  0.40493  0.01291  0.62571  1.0000
  C   C213      1.0  0.34103  0.99117  0.74342  1.0000
  Fe  Fe25      1.0  0.41963  0.02282  0.58338  1.0000
  S   S51       1.0  0.42355  0.03460  0.59859  1.0000
  S   S52       1.0  0.42582  0.03025  0.55859  1.0000
  Fe  Fe26      1.0  0.42865  0.01191  0.61309  1.0000
  S   S53       1.0  0.44704  0.00234  0.62595  1.0000
  Fe  Fe27      1.0  0.39958  0.03450  0.60994  1.0000
  S   S54       1.0  0.38315  0.05340  0.61881  1.0000
  S   S55       1.0  0.42660  0.99999  0.59690  1.0000
  S   S56       1.0  0.39525  0.02483  0.59351  1.0000
  C   C214      1.0  0.41602  0.14297  0.96884  1.0000
  S   S57       1.0  0.14904  0.12884  0.48906  1.0000
  H   H257      1.0  0.17909  0.07753  0.51707  1.0000
  Fe  Fe28      1.0  0.41660  0.99662  0.77907  1.0000
  S   S58       1.0  0.39551  0.01415  0.77816  1.0000
  S   S59       1.0  0.43910  0.00233  0.77278  1.0000
  Fe  Fe29      1.0  0.38658  0.00058  0.80030  1.0000
  S   S60       1.0  0.37207  0.00990  0.81974  1.0000
  Fe  Fe30      1.0  0.38858  0.99884  0.76884  1.0000
  S   S61       1.0  0.38095  0.00592  0.74735  1.0000
  H   H258      1.0  0.39755  0.07738  0.95763  1.0000
  H   H259      1.0  0.05959  0.08394  0.69552  1.0000
  C   C215      1.0  0.21162  0.13677  0.53463  1.0000
  H   H260      1.0  0.16671  0.07008  0.50238  1.0000
  S   S62       1.0  0.47664  0.06161  0.80831  1.0000
  H   H261      1.0  0.20808  0.03061  0.60322  1.0000
  C   C216      1.0  0.20337  0.06671  0.53134  1.0000
  C   C217      1.0  0.24536  0.09466  0.51414  1.0000
  C   C218      1.0  0.14015  0.11472  0.63740  1.0000
  C   C219      1.0  0.34871  0.03958  0.48258  1.0000
  H   H262      1.0  0.22551  0.01247  0.59098  1.0000
  Fe  Fe31      1.0  0.16127  0.14734  0.48119  1.0000
  H   H263      1.0  0.27011  0.04323  0.64940  1.0000
  C   C220      1.0  0.47794  0.12590  0.81184  1.0000
  S   S63       1.0  0.41475  0.00059  0.89700  1.0000
  C   C221      1.0  0.02781  0.07467  0.65431  1.0000
  Fe  Fe32      1.0  0.45051  0.99917  0.86608  1.0000
  S   S64       1.0  0.43768  0.02031  0.87305  1.0000
  H   H264      1.0  0.25714  0.01282  0.60499  1.0000
  Fe  Fe33      1.0  0.43612  0.00657  0.89617  1.0000
  S   S65       1.0  0.44332  0.01227  0.91404  1.0000
  Fe  Fe34      1.0  0.41772  0.01239  0.87308  1.0000
  S   S66       1.0  0.39793  0.02736  0.86440  1.0000
  H   H265      1.0  0.44644  0.06592  0.89449  1.0000
  H   H266      1.0  0.35802  0.99134  0.49428  1.0000
  Fe  Fe35      1.0  0.46247  0.08928  0.94400  1.0000
  S   S67       1.0  0.44543  0.10096  0.93040  1.0000
  C   C222      1.0  0.24323  0.09560  0.53933  1.0000
  H   H267      1.0  0.41453  0.98950  0.73288  1.0000
  S   S68       1.0  0.42017  0.09649  0.96078  1.0000
  Fe  Fe36      1.0  0.43316  0.08324  0.94362  1.0000
  S   S69       1.0  0.42077  0.07447  0.93225  1.0000
  Fe  Fe37      1.0  0.43425  0.11301  0.94863  1.0000
  S   S70       1.0  0.42713  0.13762  0.94071  1.0000
  S   S71       1.0  0.45109  0.07044  0.95611  1.0000
  S   S72       1.0  0.45223  0.10266  0.96143  1.0000
  C   C223      1.0  0.05688  0.05913  0.65694  1.0000
  H   H268      1.0  0.22129  0.13915  0.53713  1.0000
  C   C224      1.0  0.22575  0.06714  0.51240  1.0000
  C   C225      1.0  0.48400  0.01968  0.89737  1.0000
  C   C226      1.0  0.18604  0.07150  0.50875  1.0000
  H   H269      1.0  0.45801  0.00901  0.68355  1.0000
  H   H270      1.0  0.24144  0.00151  0.59820  1.0000
  S   S73       1.0  0.31448  0.04838  0.54480  1.0000
  Fe  Fe38      1.0  0.31307  0.05838  0.59359  1.0000
  S   S74       1.0  0.32170  0.07518  0.59877  1.0000
  Fe  Fe39      1.0  0.28328  0.05240  0.59521  1.0000
  S   S75       1.0  0.29342  0.03303  0.58451  1.0000
  S   S76       1.0  0.25869  0.06037  0.60335  1.0000
  Fe  Fe40      1.0  0.30859  0.04739  0.56905  1.0000
  H   H271      1.0  0.15005  0.04792  0.69384  1.0000
  S   S77       1.0  0.29833  0.04492  0.61122  1.0000
  S   S78       1.0  0.29709  0.06730  0.57853  1.0000
  H   H272      1.0  0.34720  0.04801  0.66576  1.0000
  H   H273      1.0  0.47820  0.15197  0.88873  1.0000
  H   H274      1.0  0.34429  0.05856  0.55097  1.0000
  C   C227      1.0  0.18710  0.05990  0.48919  1.0000
  S   S79       1.0  0.10419  0.16827  0.70580  1.0000
  H   H275      1.0  0.21144  0.09268  0.51944  1.0000
  Fe  Fe41      1.0  0.08224  0.16852  0.70136  1.0000
  S   S80       1.0  0.07410  0.14992  0.69836  1.0000
  H   H276      1.0  0.28896  0.00275  0.62879  1.0000
  C   C228      1.0  0.45167  0.05909  0.88640  1.0000
  H   H277      1.0  0.33132  0.00379  0.50030  1.0000
  H   H278      1.0  0.15614  0.15653  0.64728  1.0000
  Fe  Fe42      1.0  0.18433  0.15238  0.60134  1.0000
  S   S81       1.0  0.17042  0.14026  0.59590  1.0000
  C   C229      1.0  0.45832  0.17099  0.93986  1.0000
  Fe  Fe43      1.0  0.21323  0.13542  0.58487  1.0000
  S   S82       1.0  0.20144  0.12247  0.57787  1.0000
  S   S83       1.0  0.23795  0.12853  0.57626  1.0000
  Fe  Fe44      1.0  0.18505  0.14392  0.57333  1.0000
  S   S84       1.0  0.17531  0.15292  0.55324  1.0000
  Fe  Fe45      1.0  0.18820  0.11995  0.60111  1.0000
  S   S85       1.0  0.18565  0.09706  0.61371  1.0000
  S   S86       1.0  0.19796  0.15740  0.57818  1.0000
  S   S87       1.0  0.20090  0.13164  0.60867  1.0000
  Fe  Fe46      1.0  0.11305  0.08107  0.66868  1.0000
  S   S88       1.0  0.09943  0.09210  0.65161  1.0000
  S   S89       1.0  0.12087  0.09283  0.68124  1.0000
  Fe  Fe47      1.0  0.11716  0.05053  0.66304  1.0000
  S   S90       1.0  0.10314  0.05886  0.64586  1.0000
  Fe  Fe48      1.0  0.11566  0.07704  0.63768  1.0000
  S   S91       1.0  0.12424  0.08584  0.61363  1.0000
  Fe  Fe49      1.0  0.08781  0.07320  0.66125  1.0000
  S   S92       1.0  0.06285  0.08194  0.66471  1.0000
  S   S93       1.0  0.13057  0.06789  0.65373  1.0000
  S   S94       1.0  0.10046  0.06306  0.67946  1.0000
  H   H279      1.0  0.48425  0.07347  0.87585  1.0000
  H   H280      1.0  0.26927  0.12516  0.60679  1.0000
  Fe  Fe50      1.0  0.26518  0.03747  0.50376  1.0000
  S   S95       1.0  0.25803  0.04505  0.52516  1.0000
  H   H281      1.0  0.36654  0.00232  0.52900  1.0000
  Fe  Fe51      1.0  0.40611  0.00497  0.49869  1.0000
  H   H282      1.0  0.15038  0.17610  0.54651  1.0000
  S   S96       1.0  0.41027  0.99413  0.52154  1.0000
  C   C230      1.0  0.04293  0.17361  0.65553  1.0000
  H   H283      1.0  0.17124  0.02993  0.66938  1.0000
  C   C231      1.0  0.22287  0.06664  0.58776  1.0000
  C   C232      1.0  0.33628  0.01028  0.55629  1.0000
  C   C233      1.0  0.17919  0.03106  0.67479  1.0000
  C   C234      1.0  0.38044  0.98370  0.89718  1.0000
  Fe  Fe52      1.0  0.16575  0.11814  0.50337  1.0000
  S   S97       1.0  0.16247  0.10631  0.52726  1.0000
  S   S98       1.0  0.17652  0.13755  0.49693  1.0000
  C   C235      1.0  0.06218  0.11083  0.72092  1.0000
  H   H284      1.0  0.39438  0.08179  0.97526  1.0000
  H   H285      1.0  0.44971  0.05674  0.85264  1.0000
  H   H286      1.0  0.01271  0.11425  0.66756  1.0000
  H   H287      1.0  0.24263  0.02695  0.57014  1.0000
  C   C236      1.0  0.16953  0.13977  0.54809  1.0000
  C   C237      1.0  0.16196  0.14447  0.53659  1.0000
  C   C238      1.0  0.15858  0.13411  0.53114  1.0000
  C   C239      1.0  0.16322  0.11898  0.53681  1.0000
  C   C240      1.0  0.17006  0.11423  0.54889  1.0000
  C   C241      1.0  0.17316  0.12467  0.55460  1.0000
  H   H288      1.0  0.15900  0.15610  0.53159  1.0000
  H   H289      1.0  0.15272  0.13783  0.52222  1.0000
  H   H290      1.0  0.17347  0.10253  0.55346  1.0000
  H   H291      1.0  0.17872  0.12097  0.56372  1.0000
  C   C242      1.0  0.16987  0.09289  0.61144  1.0000
  C   C243      1.0  0.16075  0.10309  0.60237  1.0000
  C   C244      1.0  0.14705  0.10050  0.60231  1.0000
  C   C245      1.0  0.14254  0.08768  0.61128  1.0000
  C   C246      1.0  0.15224  0.07694  0.61938  1.0000
  C   C247      1.0  0.16588  0.07956  0.61950  1.0000
  H   H292      1.0  0.16400  0.11318  0.59574  1.0000
  H   H293      1.0  0.13968  0.10873  0.59584  1.0000
  H   H294      1.0  0.14914  0.06668  0.62564  1.0000
  H   H295      1.0  0.17316  0.07144  0.62611  1.0000
  C   C248      1.0  0.08721  0.13399  0.69389  1.0000
  C   C249      1.0  0.08289  0.12435  0.68819  1.0000
  C   C250      1.0  0.09316  0.11171  0.68428  1.0000
  C   C251      1.0  0.10777  0.10851  0.68626  1.0000
  C   C252      1.0  0.11204  0.11801  0.69215  1.0000
  C   C253      1.0  0.10180  0.13077  0.69591  1.0000
  H   H296      1.0  0.07155  0.12658  0.68688  1.0000
  H   H297      1.0  0.08972  0.10435  0.67992  1.0000
  H   H298      1.0  0.12330  0.11552  0.69379  1.0000
  H   H299      1.0  0.10513  0.13798  0.70055  1.0000
  C   C254      1.0  0.25229  0.07898  0.59505  1.0000
  C   C255      1.0  0.25920  0.08524  0.58071  1.0000
  C   C256      1.0  0.25472  0.10045  0.57480  1.0000
  C   C257      1.0  0.24316  0.10936  0.58312  1.0000
  C   C258      1.0  0.23582  0.10292  0.59713  1.0000
  C   C259      1.0  0.24036  0.08781  0.60307  1.0000
  H   H300      1.0  0.26791  0.07839  0.57412  1.0000
  H   H301      1.0  0.26015  0.10525  0.56377  1.0000
  H   H302      1.0  0.22688  0.10964  0.60362  1.0000
  H   H303      1.0  0.23476  0.08312  0.61404  1.0000
  C   C260      1.0  0.29874  0.04793  0.53914  1.0000
  C   C261      1.0  0.30044  0.04447  0.52554  1.0000
  C   C262      1.0  0.28794  0.04356  0.52121  1.0000
  C   C263      1.0  0.27372  0.04621  0.53043  1.0000
  C   C264      1.0  0.27198  0.04995  0.54390  1.0000
  C   C265      1.0  0.28447  0.05080  0.54825  1.0000
  H   H304      1.0  0.28937  0.04077  0.51076  1.0000
  H   H305      1.0  0.26097  0.05221  0.55093  1.0000
  H   H306      1.0  0.28305  0.05380  0.55861  1.0000
  C   C266      1.0  0.47628  0.01038  0.88091  1.0000
  H   H307      1.0  0.26043  0.02580  0.66928  1.0000
  H   H308      1.0  0.44054  0.03032  0.67398  1.0000
  S   S99       1.0  0.00569  0.13718  0.68401  1.0000
  H   H309      1.0  0.17607  0.16980  0.48283  1.0000
  C   C267      1.0  0.47954  0.09967  0.89118  1.0000
  C   C268      1.0  0.47873  0.09299  0.90618  1.0000
  C   C269      1.0  0.47772  0.10121  0.80963  1.0000
  C   C270      1.0  0.47669  0.15453  0.89968  1.0000
  H   H310      1.0  0.15645  0.14323  0.63197  1.0000
  Fe  Fe53      1.0  0.38441  0.02830  0.48234  1.0000
  H   H311      1.0  0.18143  0.05663  0.48277  1.0000
  C   C271      1.0  0.24902  0.02371  0.60388  1.0000
  H   H312      1.0  0.47178  0.09843  0.88558  1.0000
  C   C272      1.0  0.27020  0.98782  0.66448  1.0000
  H   H313      1.0  0.24667  0.09079  0.54977  1.0000
  H   H314      1.0  0.23116  0.07203  0.50094  1.0000
  C   C273      1.0  0.48698  0.01912  0.83071  1.0000
  H   H315      1.0  0.06453  0.09187  0.71293  1.0000
  C   C274      1.0  0.17311  0.00580  0.65598  1.0000
  C   C275      1.0  0.03691  0.08091  0.65885  1.0000
  C   C276      1.0  0.23311  0.05305  0.58775  1.0000
  H   H316      1.0  0.01931  0.09313  0.70127  1.0000
  H   H317      1.0  0.49440  0.14034  0.78863  1.0000
  H   H318      1.0  0.22676  0.07689  0.58382  1.0000
  H   H319      1.0  0.15054  0.01513  0.62354  1.0000
  H   H320      1.0  0.01663  0.08072  0.65330  1.0000
  H   H321      1.0  0.24204  0.02475  0.61504  1.0000
  C   C277      1.0  0.23196  0.05334  0.63616  1.0000
  C   C278      1.0  0.43754  0.03003  0.91807  1.0000
  C   C279      1.0  0.42543  0.04043  0.91323  1.0000
  C   C280      1.0  0.42053  0.05410  0.91752  1.0000
  C   C281      1.0  0.42789  0.05758  0.92638  1.0000
  C   C282      1.0  0.44029  0.04735  0.93084  1.0000
  C   C283      1.0  0.44496  0.03354  0.92687  1.0000
  H   H322      1.0  0.41962  0.03782  0.90649  1.0000
  H   H323      1.0  0.41091  0.06197  0.91405  1.0000
  H   H324      1.0  0.44602  0.04992  0.93768  1.0000
  H   H325      1.0  0.45427  0.02549  0.93074  1.0000
  C   C284      1.0  0.47533  0.04420  0.81997  1.0000
  C   C285      1.0  0.46125  0.04112  0.82700  1.0000
  C   C286      1.0  0.46003  0.02701  0.83576  1.0000
  S   S100      1.0  0.38467  0.00462  0.49377  1.0000
  H   H326      1.0  0.18051  0.99551  0.65977  1.0000
  H   H327      1.0  0.47547  0.01118  0.86948  1.0000
  H   H328      1.0  0.45125  0.04957  0.82547  1.0000
  H   H329      1.0  0.44913  0.02462  0.84094  1.0000
  C   C287      1.0  0.20262  0.05399  0.59852  1.0000
  Fe  Fe54      1.0  0.29013  0.03168  0.47773  1.0000
  H   H330      1.0  0.23280  0.14209  0.50923  1.0000
  C   C288      1.0  0.23453  0.10786  0.51241  1.0000
  N   N15       1.0  0.35243  0.02331  0.65322  1.0000
  C   C289      1.0  0.36578  0.99968  0.74622  1.0000
  C   C290      1.0  0.36400  0.99988  0.73225  1.0000
  C   C291      1.0  0.05742  0.10258  0.71403  1.0000
  N   N16       1.0  0.03913  0.10020  0.70051  1.0000
  C   C292      1.0  0.35560  0.05609  0.55244  1.0000
  H   H331      1.0  0.37218  0.00338  0.72252  1.0000
  C   C293      1.0  0.23279  0.01204  0.59834  1.0000
  C   C294      1.0  0.38030  0.01507  0.83111  1.0000
  C   C295      1.0  0.37131  0.02507  0.83978  1.0000
  C   C296      1.0  0.37708  0.02904  0.84954  1.0000
  C   C297      1.0  0.39177  0.02272  0.85110  1.0000
  C   C298      1.0  0.40090  0.01273  0.84239  1.0000
  C   C299      1.0  0.39520  0.00901  0.83227  1.0000
  H   H332      1.0  0.35981  0.02982  0.83890  1.0000
  H   H333      1.0  0.37000  0.03685  0.85614  1.0000
  H   H334      1.0  0.41238  0.00807  0.84323  1.0000
  H   H335      1.0  0.40228  0.00139  0.82550  1.0000
  C   C300      1.0  0.42148  0.02010  0.54847  1.0000
  C   C301      1.0  0.42084  0.02631  0.53365  1.0000
  C   C302      1.0  0.41710  0.01859  0.52538  1.0000
  C   C303      1.0  0.41451  0.00437  0.53172  1.0000
  H   H336      1.0  0.44808  0.02279  0.48978  1.0000
  C   C304      1.0  0.41869  0.00596  0.55492  1.0000
  H   H337      1.0  0.42304  0.03724  0.52864  1.0000
  H   H338      1.0  0.41632  0.02369  0.51412  1.0000
  C   C305      1.0  0.49239  0.06490  0.85609  1.0000
  H   H339      1.0  0.22204  0.05861  0.49134  1.0000
  H   H340      1.0  0.34810  0.03786  0.53833  1.0000
  C   C306      1.0  0.21278  0.04031  0.59865  1.0000
  C   C307      1.0  0.22206  0.14016  0.50861  1.0000
  H   H341      1.0  0.24165  0.03694  0.67212  1.0000
  H   H342      1.0  0.03707  0.10251  0.67833  1.0000
  C   C308      1.0  0.36622  0.05902  0.61301  1.0000
  C   C309      1.0  0.36065  0.04926  0.60874  1.0000
  C   C310      1.0  0.34681  0.05400  0.60459  1.0000
  C   C311      1.0  0.33869  0.06858  0.60448  1.0000
  C   C312      1.0  0.34422  0.07823  0.60887  1.0000
  C   C313      1.0  0.35787  0.07342  0.61326  1.0000
  H   H343      1.0  0.36684  0.03801  0.60892  1.0000
  H   H344      1.0  0.34250  0.04644  0.60138  1.0000
  H   H345      1.0  0.33797  0.08949  0.60885  1.0000
  H   H346      1.0  0.36209  0.08094  0.61667  1.0000
  H   H347      1.0  0.15040  0.14481  0.66501  1.0000
  C   C314      1.0  0.46742  0.00249  0.73301  1.0000
  C   C315      1.0  0.45968  0.00572  0.74672  1.0000
  C   C316      1.0  0.45002  0.99697  0.75641  1.0000
  C   C317      1.0  0.04106  0.10793  0.68476  1.0000
  H   H348      1.0  0.07254  0.11525  0.64661  1.0000
  H   H349      1.0  0.47424  0.00978  0.72540  1.0000
  H   H350      1.0  0.46093  0.01529  0.74949  1.0000
  H   H351      1.0  0.45995  0.17675  0.91668  1.0000
  H   H352      1.0  0.46401  0.04140  0.75457  1.0000
  H   H353      1.0  0.47581  0.09422  0.80358  1.0000
  C   C318      1.0  0.22841  0.03944  0.59316  1.0000
  H   H354      1.0  0.19120  0.00844  0.67512  1.0000
  H   H355      1.0  0.47825  0.16225  0.80932  1.0000
  C   C319      1.0  0.47552  0.11651  0.80416  1.0000
  C   C320      1.0  0.48855  0.09475  0.91357  1.0000
  H   H356      1.0  0.34167  0.03659  0.63543  1.0000
  C   C321      1.0  0.12972  0.16766  0.64078  1.0000
  H   H357      1.0  0.45619  0.16259  0.96326  1.0000
  H   H358      1.0  0.25570  0.03236  0.60014  1.0000
  C   C322      1.0  0.46488  0.03105  0.64472  1.0000
  C   C323      1.0  0.47033  0.01572  0.64712  1.0000
  C   C324      1.0  0.46499  0.00712  0.64102  1.0000
  C   C325      1.0  0.45409  0.01373  0.63255  1.0000
  C   C326      1.0  0.44879  0.02910  0.62996  1.0000
  C   C327      1.0  0.45424  0.03773  0.63595  1.0000
  H   H359      1.0  0.47865  0.01049  0.65370  1.0000
  H   H360      1.0  0.46924  0.99526  0.64295  1.0000
  H   H361      1.0  0.44044  0.03433  0.62341  1.0000
  H   H362      1.0  0.45001  0.04959  0.63399  1.0000
  H   H363      1.0  0.21025  0.09389  0.50082  1.0000
  C   C328      1.0  0.16724  0.06225  0.65888  1.0000
  H   H364      1.0  0.05304  0.10797  0.67961  1.0000
  H   H365      1.0  0.14926  0.04499  0.67656  1.0000
  N   N17       1.0  0.40008  0.05838  0.97559  1.0000
  N   N18       1.0  0.16561  0.05742  0.67513  1.0000
  H   H366      1.0  0.05181  0.04188  0.65019  1.0000
  C   C329      1.0  0.46611  0.99010  0.72911  1.0000
  H   H367      1.0  0.37069  0.99815  0.86406  1.0000
  C   C330      1.0  0.33358  0.04646  0.48661  1.0000
  C   C331      1.0  0.49026  0.05536  0.73816  1.0000
  C   C332      1.0  0.04906  0.12269  0.64734  1.0000
  C   C333      1.0  0.46532  0.13371  0.91101  1.0000
  H   H368      1.0  0.21396  0.15104  0.50723  1.0000
  H   H369      1.0  0.14207  0.10466  0.63358  1.0000
  H   H370      1.0  0.31143  0.04231  0.51843  1.0000
  H   H371      1.0  0.47056  0.08637  0.91201  1.0000
  C   C334      1.0  0.20289  0.12619  0.51986  1.0000
  H   H372      1.0  0.24481  0.05328  0.58374  1.0000
  H   H373      1.0  0.24545  0.01838  0.66960  1.0000
  C   C335      1.0  0.35919  0.00265  0.56589  1.0000
  S   S101      1.0  0.37769  0.98681  0.79093  1.0000
  H   H374      1.0  0.11442  0.13417  0.66076  1.0000
  H   H375      1.0  0.20643  0.02529  0.64845  1.0000
  H   H376      1.0  0.45990  0.13656  0.96177  1.0000
  H   H377      1.0  0.43813  0.07248  0.87099  1.0000
  C   C336      1.0  0.38248  0.03881  0.95793  1.0000
  H   H378      1.0  0.22889  0.05485  0.51412  1.0000
  C   C337      1.0  0.04769  0.05282  0.65254  1.0000
  C   C338      1.0  0.44695  0.06278  0.87319  1.0000
  C   C339      1.0  0.20188  0.06829  0.50623  1.0000
  C   C340      1.0  0.20609  0.08899  0.51269  1.0000
  H   H379      1.0  0.22961  0.01869  0.65697  1.0000
  H   H380      1.0  0.18935  0.05509  0.68831  1.0000
  C   C341      1.0  0.32264  0.04266  0.48207  1.0000
  H   H381      1.0  0.19140  0.07186  0.53514  1.0000
  H   H382      1.0  0.20449  0.05452  0.53360  1.0000
  C   C342      1.0  0.05152  0.07325  0.65998  1.0000
  H   H383      1.0  0.06808  0.05307  0.65795  1.0000
  C   C343      1.0  0.23242  0.10885  0.53771  1.0000
  H   H384      1.0  0.21156  0.01436  0.48473  1.0000
  H   H385      1.0  0.04844  0.11333  0.64360  1.0000
  S   S102      1.0  0.47165  0.99835  0.84857  1.0000
  N   N19       1.0  0.21634  0.12941  0.52194  1.0000
  C   C344      1.0  0.41117  0.16743  0.97401  1.0000
  C   C345      1.0  0.45343  0.05389  0.86291  1.0000
  S   S103      1.0  0.24818  0.03304  0.49456  1.0000
  H   H386      1.0  0.11589  0.09828  0.48649  1.0000
  H   H387      1.0  0.47574  0.02197  0.77175  1.0000
  H   H388      1.0  0.39266  0.02553  0.71894  1.0000
  C   C346      1.0  0.05396  0.12495  0.72245  1.0000
  H   H389      1.0  0.44847  0.17002  0.90255  1.0000
  H   H390      1.0  0.41616  0.00446  0.67967  1.0000
  Fe  Fe55      1.0  0.48304  0.03155  0.67151  1.0000
  H   H391      1.0  0.19364  0.13624  0.51903  1.0000
  H   H392      1.0  0.15450  0.00191  0.67428  1.0000
  C   C347      1.0  0.47291  0.01597  0.83752  1.0000
  C   C348      1.0  0.26457  0.98778  0.69048  1.0000
  H   H393      1.0  0.11904  0.11201  0.65175  1.0000
  H   H394      1.0  0.03477  0.14202  0.71806  1.0000
  H   H395      1.0  0.43371  0.99521  0.67087  1.0000
  C   C349      1.0  0.20266  0.05681  0.48625  1.0000
  H   H396      1.0  0.47287  0.04901  0.77149  1.0000
  H   H397      1.0  0.17943  0.17964  0.55809  1.0000
  C   C350      1.0  0.48239  0.14594  0.79035  1.0000
  C   C351      1.0  0.12716  0.11891  0.64761  1.0000
  H   H398      1.0  0.33901  0.01115  0.53323  1.0000
  H   H399      1.0  0.47751  0.14265  0.78293  1.0000
  C   C352      1.0  0.24934  0.02474  0.57857  1.0000
  C   C353      1.0  0.20071  0.03284  0.68823  1.0000
  C   C354      1.0  0.36815  0.05063  0.54183  1.0000
  H   H400      1.0  0.11953  0.16783  0.63727  1.0000
  C   C355      1.0  0.49023  0.10807  0.88350  1.0000
  N   N20       1.0  0.48101  0.02320  0.88234  1.0000
  H   H401      1.0  0.47887  0.06052  0.74260  1.0000
  H   H402      1.0  0.49191  0.14597  0.81423  1.0000
  N   N21       1.0  0.28475  0.11370  0.59034  1.0000
  C   C356      1.0  0.29772  0.11621  0.59413  1.0000
  C   C357      1.0  0.27151  0.12532  0.59481  1.0000
  C   C358      1.0  0.28170  0.09919  0.59926  1.0000
  C   C359      1.0  0.28820  0.11365  0.57441  1.0000
  C   C360      1.0  0.27930  0.12342  0.56452  1.0000
  C   C361      1.0  0.30076  0.10344  0.56837  1.0000
  C   C362      1.0  0.28272  0.12276  0.54963  1.0000
  C   C363      1.0  0.30402  0.10281  0.55349  1.0000
  C   C364      1.0  0.29499  0.11243  0.54414  1.0000
  H   H403      1.0  0.29531  0.11699  0.60588  1.0000
  H   H404      1.0  0.30774  0.10701  0.59273  1.0000
  H   H405      1.0  0.30095  0.12659  0.58703  1.0000
  H   H406      1.0  0.27308  0.13659  0.58866  1.0000
  H   H407      1.0  0.26117  0.12366  0.59292  1.0000
  H   H408      1.0  0.27891  0.09881  0.61132  1.0000
  H   H409      1.0  0.27218  0.09679  0.59657  1.0000
  H   H410      1.0  0.29144  0.08990  0.59734  1.0000
  H   H411      1.0  0.26943  0.13149  0.56804  1.0000
  H   H412      1.0  0.30805  0.09566  0.57518  1.0000
  H   H413      1.0  0.27561  0.13017  0.54238  1.0000
  H   H414      1.0  0.31350  0.09468  0.54925  1.0000
  H   H415      1.0  0.29748  0.11182  0.53265  1.0000
  C   C365      1.0  0.00071  0.11775  0.67074  1.0000
  H   H416      1.0  0.47367  0.01824  0.90605  1.0000
  H   H417      1.0  0.25592  0.01322  0.64481  1.0000
  C   C366      1.0  0.48266  0.11900  0.82536  1.0000
  H   H418      1.0  0.42572  0.16824  0.93743  1.0000
  C   C367      1.0  0.44989  0.15783  0.90475  1.0000
  C   C368      1.0  0.42130  0.14871  0.95384  1.0000
  C   C369      1.0  0.17812  0.01545  0.64281  1.0000
  C   C370      1.0  0.26092  0.02303  0.64187  1.0000
  H   H419      1.0  0.31420  0.98656  0.59002  1.0000
  C   C371      1.0  0.25994  0.98749  0.67803  1.0000
  S   S104      1.0  0.28227  0.01688  0.49932  1.0000
  H   H420      1.0  0.22789  0.11368  0.54732  1.0000
  C   C372      1.0  0.46237  0.14167  0.93815  1.0000
  H   H421      1.0  0.48713  0.14893  0.90373  1.0000
  H   H422      1.0  0.17525  0.07505  0.67541  1.0000
  H   H423      1.0  0.10795  0.09537  0.56239  1.0000
  H   H424      1.0  0.46561  0.04408  0.90008  1.0000
  N   N22       1.0  0.13299  0.15463  0.65283  1.0000
  C   C373      1.0  0.12047  0.15600  0.66594  1.0000
  H   H425      1.0  0.13907  0.16769  0.63084  1.0000
  Fe  Fe56      1.0  0.99928  0.06657  0.64209  1.0000
  C   C374      1.0  0.46454  0.04118  0.86590  1.0000
  C   C375      1.0  0.48478  0.10367  0.83074  1.0000
  C   C376      1.0  0.20138  0.01960  0.68467  1.0000
  H   H426      1.0  0.33035  0.05477  0.49313  1.0000
  H   H427      1.0  0.10947  0.15732  0.66338  1.0000
  H   H428      1.0  0.07254  0.10644  0.72473  1.0000
  C   C377      1.0  0.38300  0.99678  0.57402  1.0000
  C   C378      1.0  0.48818  0.03327  0.82211  1.0000
  C   C379      1.0  0.14667  0.15510  0.65698  1.0000
  H   H429      1.0  0.41934  0.00104  0.56631  1.0000
  H   H430      1.0  0.48181  0.15804  0.78622  1.0000
  H   H431      1.0  0.33639  0.00813  0.57874  1.0000
  C   C380      1.0  0.42164  0.16374  0.94900  1.0000
  H   H432      1.0  0.37388  0.02632  0.63969  1.0000
  N   N23       1.0  0.23958  0.02519  0.59349  1.0000
  C   C381      1.0  0.46223  0.15284  0.92492  1.0000
  C   C382      1.0  0.22683  0.02954  0.65001  1.0000
  H   H433      1.0  0.41879  0.02221  0.94697  1.0000
  H   H434      1.0  0.43970  0.15497  0.91290  1.0000
  H   H435      1.0  0.35038  0.99578  0.72003  1.0000
  H   H436      1.0  0.25668  0.98751  0.70102  1.0000
  S   S105      1.0  0.13018  0.02707  0.66959  1.0000
  H   H437      1.0  0.02099  0.09504  0.71873  1.0000
  H   H438      1.0  0.19918  0.04946  0.63193  1.0000
  C   C383      1.0  0.17881  0.06735  0.50033  1.0000
  H   H439      1.0  0.27211  0.01905  0.64473  1.0000
  C   C384      1.0  0.37764  0.03525  0.52342  1.0000
  S   S106      1.0  0.31747  0.00318  0.60899  1.0000
  C   C385      1.0  0.20765  0.06711  0.59310  1.0000
  H   H440      1.0  0.38916  0.03713  0.51918  1.0000
  H   H441      1.0  0.45622  0.99794  0.67260  1.0000
  C   C386      1.0  0.02310  0.09983  0.70664  1.0000
  S   S107      1.0  0.19630  0.01121  0.63195  1.0000
  C   C387      1.0  0.30300  0.99510  0.60958  1.0000
  H   H442      1.0  0.14140  0.06269  0.68084  1.0000
  Fe  Fe57      1.0  0.48612  0.03678  0.70026  1.0000
  C   C388      1.0  0.38410  0.05083  0.55777  1.0000
  N   N24       1.0  0.43512  0.00902  0.68440  1.0000
  C   C389      1.0  0.42764  0.99899  0.68131  1.0000
  C   C390      1.0  0.43416  0.02282  0.67276  1.0000
  C   C391      1.0  0.04413  0.10829  0.70851  1.0000
  C   C392      1.0  0.42769  0.01277  0.69896  1.0000
  C   C393      1.0  0.41196  0.01810  0.70258  1.0000
  C   C394      1.0  0.43572  0.01183  0.70966  1.0000
  C   C395      1.0  0.40472  0.02175  0.71624  1.0000
  C   C396      1.0  0.42837  0.01554  0.72327  1.0000
  C   C397      1.0  0.41290  0.02042  0.72658  1.0000
  C   C398      1.0  0.22120  0.00585  0.48162  1.0000
  H   H443      1.0  0.14018  0.10537  0.48119  1.0000
  H   H444      1.0  0.36751  0.01054  0.59466  1.0000
  H   H445      1.0  0.43882  0.02043  0.66156  1.0000
  H   H446      1.0  0.20576  0.12997  0.54474  1.0000
  C   C399      1.0  0.46034  0.16761  0.92618  1.0000
  H   H447      1.0  0.03067  0.17455  0.65809  1.0000
  S   S108      1.0  0.02260  0.05323  0.64389  1.0000
  S   S109      1.0  0.99506  0.09123  0.63375  1.0000
  H   H448      1.0  0.40512  0.01962  0.69485  1.0000
  H   H449      1.0  0.44772  0.00828  0.70780  1.0000
  C   C400      1.0  0.45117  0.00153  0.68324  1.0000
  H   H450      1.0  0.43473  0.01460  0.73131  1.0000
  H   H451      1.0  0.40720  0.02306  0.73724  1.0000
  Fe  Fe58      1.0  0.31009  0.02706  0.59867  1.0000
  H   H452      1.0  0.16387  0.06754  0.69298  1.0000
  H   H453      1.0  0.25813  0.07832  0.52881  1.0000
  H   H454      1.0  0.39365  0.02259  0.94469  1.0000
  H   H455      1.0  0.37296  0.05820  0.57791  1.0000
  H   H456      1.0  0.14608  0.04223  0.64184  1.0000
  S   S110      1.0  0.32621  0.03990  0.58230  1.0000
  H   H457      1.0  0.42247  0.02915  0.67291  1.0000
  C   C401      1.0  0.24957  0.02879  0.66582  1.0000
  H   H458      1.0  0.23866  0.06153  0.63208  1.0000
  C   C402      1.0  0.15103  0.05304  0.68185  1.0000
  H   H459      1.0  0.25043  0.08909  0.50502  1.0000
  C   C403      1.0  0.15364  0.03225  0.64600  1.0000
  H   H460      1.0  0.20515  0.12212  0.50958  1.0000
  N   N25       1.0  0.20925  0.07264  0.51544  1.0000
  C   C404      1.0  0.15837  0.00942  0.66414  1.0000
  C   C405      1.0  0.03324  0.06069  0.65095  1.0000
  C   C406      1.0  0.35737  0.05874  0.56530  1.0000
  H   H461      1.0  0.43986  0.99932  0.80659  1.0000
  H   H462      1.0  0.03266  0.09183  0.66115  1.0000
  H   H463      1.0  0.17208  0.03611  0.62762  1.0000
  H   H464      1.0  0.39259  0.04493  0.53700  1.0000
  C   C407      1.0  0.23661  0.03943  0.64550  1.0000
  S   S111      1.0  0.00242  0.17514  0.69416  1.0000
  C   C408      1.0  0.45821  0.15984  0.95264  1.0000
  H   H465      1.0  0.37421  0.05493  0.97109  1.0000
  H   H466      1.0  0.99641  0.10362  0.65926  1.0000
  H   H467      1.0  0.25653  0.03294  0.57485  1.0000
  H   H468      1.0  0.36123  0.07191  0.51869  1.0000
  H   H469      1.0  0.47174  0.12090  0.79394  1.0000
  H   H470      1.0  0.29254  0.98994  0.65264  1.0000
  H   H471      1.0  0.47564  0.16669  0.89749  1.0000
  C   C409      1.0  0.15063  0.12353  0.63205  1.0000
  C   C410      1.0  0.48225  0.09482  0.82292  1.0000
  H   H472      1.0  0.36424  0.01756  0.63226  1.0000
  S   S112      1.0  0.36265  0.04447  0.48764  1.0000
  H   H473      1.0  0.33464  0.98746  0.76717  1.0000
  C   C411      1.0  0.47980  0.15016  0.81432  1.0000
  H   H474      1.0  0.22609  0.01102  0.60989  1.0000
  H   H475      1.0  0.23096  0.06999  0.51989  1.0000
  H   H476      1.0  0.45009  0.15516  0.89421  1.0000
  H   H477      1.0  0.20349  0.14753  0.53244  1.0000
  H   H478      1.0  0.45554  0.16002  0.80356  1.0000
  C   C412      1.0  0.44455  0.98856  0.81281  1.0000
  H   H479      1.0  0.42700  0.98900  0.69044  1.0000
  S   S113      1.0  0.40499  0.02905  0.48863  1.0000
  C   C413      1.0  0.16835  0.02868  0.63789  1.0000
  H   H480      1.0  0.11942  0.16590  0.67015  1.0000
  S   S114      1.0  0.24102  0.98800  0.67935  1.0000
  N   N26       1.0  0.45503  0.03724  0.77824  1.0000
  C   C414      1.0  0.46508  0.02233  0.78027  1.0000
  C   C415      1.0  0.45312  0.04161  0.76274  1.0000
  C   C416      1.0  0.46247  0.04796  0.78016  1.0000
  C   C417      1.0  0.44074  0.03694  0.78934  1.0000
  C   C418      1.0  0.42674  0.03968  0.78546  1.0000
  C   C419      1.0  0.44056  0.03376  0.80465  1.0000
  C   C420      1.0  0.41344  0.03978  0.79625  1.0000
  C   C421      1.0  0.42718  0.03405  0.81533  1.0000
  C   C422      1.0  0.41363  0.03725  0.81110  1.0000
  H   H481      1.0  0.45971  0.01387  0.77939  1.0000
  N   N27       1.0  0.45813  0.99935  0.49260  1.0000
  H   H482      1.0  0.46813  0.01877  0.79122  1.0000
  H   H483      1.0  0.44779  0.03389  0.76044  1.0000
  H   H484      1.0  0.12221  0.14627  0.67521  1.0000
  H   H485      1.0  0.44619  0.05302  0.76025  1.0000
  H   H486      1.0  0.45495  0.05916  0.77959  1.0000
  S   S115      1.0  0.33539  0.99176  0.69683  1.0000
  H   H487      1.0  0.48842  0.02844  0.89905  1.0000
  H   H488      1.0  0.42569  0.04171  0.77420  1.0000
  H   H489      1.0  0.45080  0.03110  0.80842  1.0000
  H   H490      1.0  0.40289  0.04183  0.79308  1.0000
  H   H491      1.0  0.42724  0.03186  0.82696  1.0000
  H   H492      1.0  0.40323  0.03770  0.81934  1.0000
  N   N28       1.0  0.05100  0.15944  0.66351  1.0000
  C   C423      1.0  0.04358  0.15714  0.67939  1.0000
  H   H493      1.0  0.07281  0.15151  0.66876  1.0000
  C   C424      1.0  0.23432  0.00392  0.48640  1.0000
  C   C425      1.0  0.05064  0.14690  0.65771  1.0000
  C   C426      1.0  0.06352  0.13564  0.65425  1.0000
  C   C427      1.0  0.03694  0.14527  0.65603  1.0000
  C   C428      1.0  0.06265  0.12379  0.64910  1.0000
  C   C429      1.0  0.03623  0.13344  0.65078  1.0000
  S   S116      1.0  0.47905  0.05103  0.71701  1.0000
  H   H494      1.0  0.04957  0.14685  0.68587  1.0000
  C   C430      1.0  0.45064  0.98756  0.82465  1.0000
  H   H495      1.0  0.03184  0.15611  0.68130  1.0000
  C   C431      1.0  0.04763  0.08461  0.70123  1.0000
  H   H496      1.0  0.43526  0.01105  0.49858  1.0000
  C   C432      1.0  0.36009  0.00378  0.53990  1.0000
  C   C433      1.0  0.47152  0.99965  0.48032  1.0000
  C   C434      1.0  0.41683  0.17301  0.95907  1.0000
  H   H497      1.0  0.04331  0.07874  0.69544  1.0000
  H   H498      1.0  0.07438  0.13564  0.65552  1.0000
  H   H499      1.0  0.02654  0.15297  0.65905  1.0000
  S   S117      1.0  0.43075  0.99241  0.86415  1.0000
  H   H500      1.0  0.02558  0.13250  0.64964  1.0000
  C   C435      1.0  0.46276  0.04637  0.88950  1.0000
  H   H501      1.0  0.15539  0.07964  0.67842  1.0000
  C   C436      1.0  0.46940  0.03688  0.87939  1.0000
  C   C437      1.0  0.25937  0.04695  0.64565  1.0000
  H   H502      1.0  0.04332  0.16646  0.68421  1.0000
  H   H503      1.0  0.25253  0.05641  0.65073  1.0000
  C   C438      1.0  0.08747  0.08761  0.56991  1.0000
  H   H504      1.0  0.47547  0.12683  0.91505  1.0000
  H   H505      1.0  0.16598  0.05366  0.65396  1.0000
  C   C439      1.0  0.45847  0.14777  0.80751  1.0000
  C   C440      1.0  0.36642  0.01840  0.64269  1.0000
  H   H506      1.0  0.25721  0.01376  0.57830  1.0000
  H   H507      1.0  0.21538  0.06747  0.62402  1.0000
  H   H508      1.0  0.31101  0.04806  0.48504  1.0000
  C   C441      1.0  0.34340  0.00713  0.56798  1.0000
  S   S118      1.0  0.18207  0.10620  0.48663  1.0000
  C   C442      1.0  0.21855  0.05691  0.63143  1.0000
  H   H509      1.0  0.46515  0.00947  0.88819  1.0000
  C   C443      1.0  0.24970  0.08855  0.52756  1.0000
  H   H510      1.0  0.15868  0.07242  0.65578  1.0000
  C   C444      1.0  0.16513  0.07041  0.68077  1.0000
  C   C445      1.0  0.35150  0.04655  0.52858  1.0000
  N   N29       1.0  0.36662  0.04850  0.52777  1.0000
  H   H511      1.0  0.24427  0.10208  0.47916  1.0000
  S   S119      1.0  0.47055  0.04209  0.65304  1.0000
  C   C446      1.0  0.06637  0.16114  0.66201  1.0000
  N   N30       1.0  0.06895  0.07245  0.60993  1.0000
  C   C447      1.0  0.07702  0.05814  0.61765  1.0000
  C   C448      1.0  0.06310  0.08281  0.62009  1.0000
  C   C449      1.0  0.05589  0.06961  0.60655  1.0000
  C   C450      1.0  0.07942  0.07878  0.59673  1.0000
  C   C451      1.0  0.07726  0.08168  0.58211  1.0000
  C   C452      1.0  0.09233  0.08221  0.59829  1.0000
  Fe  Fe59      1.0  0.43909  0.08500  0.97240  1.0000
  C   C453      1.0  0.10245  0.08812  0.58602  1.0000
  H   H512      1.0  0.19976  0.07768  0.59313  1.0000
  H   H513      1.0  0.08237  0.05040  0.61005  1.0000
  H   H514      1.0  0.08592  0.05947  0.62218  1.0000
  H   H515      1.0  0.06938  0.05255  0.62716  1.0000
  H   H516      1.0  0.07180  0.08362  0.62525  1.0000
  H   H517      1.0  0.05400  0.07925  0.62935  1.0000
  H   H518      1.0  0.05838  0.09414  0.61420  1.0000
  H   H519      1.0  0.05939  0.06146  0.59938  1.0000
  H   H520      1.0  0.04825  0.06485  0.61678  1.0000
  H   H521      1.0  0.04897  0.08000  0.60117  1.0000
  H   H522      1.0  0.06779  0.07947  0.57979  1.0000
  H   H523      1.0  0.09478  0.08032  0.60903  1.0000
  C   C454      1.0  0.21000  0.06106  0.49449  1.0000
  H   H524      1.0  0.11226  0.09059  0.58753  1.0000
  C   C455      1.0  0.41586  0.05817  0.97492  1.0000
  H   H525      1.0  0.46346  0.13016  0.93842  1.0000
  H   H526      1.0  0.46648  0.13158  0.89996  1.0000
  C   C456      1.0  0.34282  0.01251  0.65688  1.0000
  Fe  Fe60      1.0  0.19177  0.12629  0.47933  1.0000
  C   C457      1.0  0.35608  0.02416  0.66684  1.0000
  C   C458      1.0  0.36349  0.01127  0.67561  1.0000
  C   C459      1.0  0.35252  0.03756  0.67181  1.0000
  C   C460      1.0  0.36675  0.01164  0.68871  1.0000
  C   C461      1.0  0.35587  0.03781  0.68492  1.0000
  C   C462      1.0  0.36287  0.02487  0.69340  1.0000
  H   H527      1.0  0.37287  0.00732  0.64725  1.0000
  N   N31       1.0  0.46355  0.14966  0.91041  1.0000
  H   H528      1.0  0.19855  0.11768  0.52931  1.0000
  H   H529      1.0  0.34847  0.00114  0.66163  1.0000
  S   S120      1.0  0.49103  0.11629  0.86473  1.0000
  H   H530      1.0  0.33235  0.01558  0.66512  1.0000
  C   C463      1.0  0.32436  0.99206  0.48837  1.0000
  C   C464      1.0  0.37158  0.05603  0.56800  1.0000
  H   H531      1.0  0.19075  0.05443  0.60278  1.0000
  H   H532      1.0  0.36674  0.00074  0.67245  1.0000
  C   C465      1.0  0.12467  0.13178  0.65272  1.0000
  H   H533      1.0  0.37219  0.00153  0.69528  1.0000
  H   H534      1.0  0.35298  0.04811  0.68857  1.0000
  H   H535      1.0  0.36527  0.02514  0.70363  1.0000
  H   H536      1.0  0.45540  0.12953  0.91834  1.0000
  H   H537      1.0  0.45278  0.99147  0.69224  1.0000
  H   H538      1.0  0.23464  0.01077  0.49336  1.0000
  H   H539      1.0  0.04704  0.17506  0.64335  1.0000
  N   N32       1.0  0.47480  0.14217  0.80616  1.0000
  H   H540      1.0  0.20911  0.03344  0.69348  1.0000
  C   C466      1.0  0.14816  0.13658  0.63685  1.0000
  H   H541      1.0  0.46590  0.04468  0.79092  1.0000
  H   H542      1.0  0.26272  0.02712  0.62965  1.0000
  C   C467      1.0  0.38246  0.04837  0.54478  1.0000
  H   H543      1.0  0.19391  0.09391  0.51553  1.0000
  H   H544      1.0  0.41368  0.98694  0.55138  1.0000
  C   C468      1.0  0.34460  0.00863  0.54227  1.0000
  H   H545      1.0  0.37784  0.02553  0.53286  1.0000
  N   N33       1.0  0.36643  0.99950  0.57847  1.0000
  H   H546      1.0  0.12552  0.15327  0.47892  1.0000
  C   C469      1.0  0.39856  0.04837  0.96720  1.0000
  H   H547      1.0  0.37518  0.03210  0.51425  1.0000
  C   C470      1.0  0.34435  0.03765  0.64552  1.0000
  C   C471      1.0  0.20939  0.04681  0.63587  1.0000
  H   H548      1.0  0.08566  0.08972  0.55885  1.0000
  C   C472      1.0  0.14859  0.02267  0.65918  1.0000
  C   C473      1.0  0.21349  0.03320  0.64519  1.0000
  H   H549      1.0  0.34282  0.05697  0.52910  1.0000
  C   C474      1.0  0.17799  0.04463  0.67849  1.0000
  C   C475      1.0  0.18923  0.04522  0.68521  1.0000
  H   H550      1.0  0.33960  0.01176  0.64695  1.0000
  C   C476      1.0  0.30418  0.98765  0.59868  1.0000
  C   C477      1.0  0.46031  0.14520  0.95178  1.0000
  H   H551      1.0  0.36837  0.06066  0.50518  1.0000
  C   C478      1.0  0.10004  0.09081  0.57186  1.0000
  N   N34       1.0  0.25133  0.03477  0.64963  1.0000
  H   H552      1.0  0.34767  0.06310  0.57316  1.0000
  C   C479      1.0  0.22783  0.11548  0.52408  1.0000
  H   H553      1.0  0.23134  0.11203  0.50186  1.0000
  H   H554      1.0  0.35086  0.04335  0.51860  1.0000
  C   C480      1.0  0.13526  0.14093  0.64764  1.0000
  H   H555      1.0  0.22397  0.13644  0.49819  1.0000
  H   H556      1.0  0.38078  0.06347  0.51454  1.0000
  C   C481      1.0  0.36939  0.06171  0.51603  1.0000
  C   C482      1.0  0.27938  0.98844  0.68938  1.0000
  C   C483      1.0  0.19062  0.01872  0.67797  1.0000
  H   H557      1.0  0.39518  0.04892  0.55980  1.0000
  H   H558      1.0  0.26249  0.05104  0.63345  1.0000
  H   H559      1.0  0.20947  0.06884  0.53854  1.0000
  H   H560      1.0  0.12797  0.17823  0.64425  1.0000
  H   H561      1.0  0.17839  0.06486  0.65336  1.0000
  C   C484      1.0  0.33483  0.99537  0.49384  1.0000
  H   H562      1.0  0.14481  0.16469  0.66207  1.0000
  S   S121      1.0  0.47520  0.98671  0.71150  1.0000
  Fe  Fe61      1.0  0.26618  0.01394  0.48794  1.0000
  H   H563      1.0  0.32421  0.01404  0.55810  1.0000
  H   H564      1.0  0.05793  0.13146  0.72743  1.0000
  C   C485      1.0  0.48360  0.98708  0.47989  1.0000
  C   C486      1.0  0.46204  0.99944  0.50636  1.0000
  H   H565      1.0  0.38671  0.00639  0.56569  1.0000
  S   S122      1.0  0.38712  0.98743  0.61450  1.0000
  H   H566      1.0  0.49406  0.02640  0.85989  1.0000
  C   C487      1.0  0.36735  0.00081  0.55148  1.0000
  H   H567      1.0  0.19852  0.17706  0.60546  1.0000
  H   H568      1.0  0.47087  0.98963  0.50956  1.0000
  H   H569      1.0  0.04692  0.07822  0.71284  1.0000
  H   H570      1.0  0.02618  0.12808  0.70578  1.0000
  H   H571      1.0  0.35836  0.99649  0.88227  1.0000
  H   H572      1.0  0.48240  0.06108  0.85743  1.0000
  C   C488      1.0  0.35174  0.99550  0.73085  1.0000
  H   H573      1.0  0.45215  0.99938  0.51584  1.0000
  H   H574      1.0  0.46626  0.00947  0.50506  1.0000
  H   H575      1.0  0.31295  0.99816  0.49089  1.0000
  C   C489      1.0  0.41544  0.99803  0.54647  1.0000
  H   H576      1.0  0.39859  0.99512  0.87278  1.0000
  C   C490      1.0  0.41100  0.03860  0.96029  1.0000
  H   H577      1.0  0.38793  0.98659  0.56956  1.0000
  H   H578      1.0  0.49244  0.00913  0.89942  1.0000
  H   H579      1.0  0.48824  0.09871  0.84115  1.0000
  H   H580      1.0  0.45639  0.18240  0.94060  1.0000
  S   S123      1.0  0.48670  0.08757  0.93265  1.0000
  H   H581      1.0  0.35008  0.98785  0.59395  1.0000
  C   C491      1.0  0.34290  0.99080  0.75741  1.0000
  C   C492      1.0  0.14492  0.99729  0.64167  1.0000
  H   H582      1.0  0.42197  0.06142  0.96330  1.0000
  C   C493      1.0  0.36127  0.01214  0.58594  1.0000
  Fe  Fe62      1.0  0.21354  0.99184  0.64075  1.0000
  H   H583      1.0  0.34933  0.01352  0.59177  1.0000
  S   S124      1.0  0.27447  0.05257  0.48295  1.0000
  S   S125      1.0  0.30762  0.99180  0.67346  1.0000
  H   H584      1.0  0.47344  0.14916  0.82599  1.0000
  H   H585      1.0  0.17610  0.00122  0.61483  1.0000
  H   H586      1.0  0.45234  0.14501  0.81923  1.0000
  C   C494      1.0  0.27809  0.99068  0.62085  1.0000
  C   C495      1.0  0.40913  0.02937  0.95239  1.0000
  H   H587      1.0  0.26679  0.98735  0.65491  1.0000
  H   H588      1.0  0.45402  0.14286  0.80097  1.0000
  C   C496      1.0  0.36235  0.98617  0.58928  1.0000
  H   H589      1.0  0.14101  0.18165  0.52529  1.0000
  C   C497      1.0  0.28991  0.99674  0.62057  1.0000
  C   C498      1.0  0.28478  0.98919  0.66324  1.0000
  H   H590      1.0  0.38817  0.99504  0.58354  1.0000
  H   H591      1.0  0.03475  0.11961  0.68324  1.0000
  C   C499      1.0  0.16867  0.99593  0.62427  1.0000
  S   S126      1.0  0.23553  0.99702  0.63884  1.0000
  H   H592      1.0  0.13391  0.00367  0.64573  1.0000
  C   C500      1.0  0.39494  0.02957  0.95109  1.0000
  H   H593      1.0  0.48371  0.08297  0.82711  1.0000
  C   C501      1.0  0.44555  0.01219  0.48987  1.0000
  C   C502      1.0  0.15429  0.00380  0.62918  1.0000
  H   H594      1.0  0.21026  0.00999  0.68707  1.0000
  C   C503      1.0  0.03611  0.12278  0.71014  1.0000
  H   H595      1.0  0.45078  0.99751  0.82771  1.0000
  C   C504      1.0  0.45258  0.98574  0.49496  1.0000
  H   H596      1.0  0.36287  0.02270  0.57791  1.0000
  C   C505      1.0  0.04096  0.13091  0.71709  1.0000
  H   H597      1.0  0.44270  0.01323  0.47918  1.0000
  H   H598      1.0  0.07260  0.16266  0.65029  1.0000
  C   C506      1.0  0.28945  0.98940  0.67568  1.0000
  S   S127      1.0  0.42019  0.99727  0.47822  1.0000
  H   H599      1.0  0.44165  0.98590  0.50309  1.0000
  H   H600      1.0  0.26803  0.99190  0.62936  1.0000
  S   S128      1.0  0.26386  0.99178  0.48684  1.0000
  H   H601      1.0  0.35661  0.99479  0.76963  1.0000
  C   C507      1.0  0.24691  0.99309  0.48227  1.0000
  S   S129      1.0  0.16957  0.16895  0.61477  1.0000
  H   H602      1.0  0.06625  0.17086  0.66618  1.0000
  C   C508      1.0  0.49355  0.04990  0.72536  1.0000
  C   C509      1.0  0.37002  0.99680  0.87605  1.0000
  H   H603      1.0  0.14854  0.17223  0.57268  1.0000
  C   C510      1.0  0.49342  0.07198  0.86638  1.0000
  H   H604      1.0  0.28285  0.98870  0.69902  1.0000
  C   C511      1.0  0.35535  0.99489  0.75883  1.0000
  H   H605      1.0  0.38171  0.99458  0.89795  1.0000
  H   H606      1.0  0.41566  0.13138  0.97263  1.0000
  C   C512      1.0  0.34986  0.98844  0.49040  1.0000
  S   S130      1.0  0.32519  0.98641  0.74176  1.0000
  S   S131      1.0  0.45046  0.98575  0.88912  1.0000
  C   C513      1.0  0.38421  0.04801  0.96596  1.0000
  H   H607      1.0  0.37145  0.03893  0.95689  1.0000
  C   C514      1.0  0.39280  0.07389  0.96966  1.0000
  S   S132      1.0  0.06873  0.18226  0.71790  1.0000
  S   S133      1.0  0.49320  0.15524  0.84279  1.0000
  H   H608      1.0  0.38057  0.07554  0.97109  1.0000
  H   H609      1.0  0.04428  0.18335  0.65866  1.0000
  C   C515      1.0  0.39590  0.98467  0.87268  1.0000
  H   H610      1.0  0.39678  0.98455  0.86099  1.0000
  C   C516      1.0  0.44895  0.98433  0.75273  1.0000
  H   H611      1.0  0.45104  0.98445  0.48443  1.0000
  S   S134      1.0  0.40820  0.98437  0.80196  1.0000
  C   C517      1.0  0.14480  0.18333  0.56645  1.0000
  H   H612      1.0  0.16622  0.31191  0.36269  1.0000
  S   S135      1.0  0.28713  0.30710  0.01640  1.0000
  C   C518      1.0  0.39600  0.23168  0.03215  1.0000
  H   H613      1.0  0.12579  0.31389  0.44524  1.0000
  S   S136      1.0  0.31974  0.30857  0.97947  1.0000
  C   C519      1.0  0.35829  0.25222  0.00634  1.0000
  H   H614      1.0  0.45729  0.19074  0.04197  1.0000
  C   C520      1.0  0.07047  0.36557  0.29127  1.0000
  H   H615      1.0  0.02524  0.24278  0.35698  1.0000
  S   S137      1.0  0.48559  0.19112  0.07926  1.0000
  Fe  Fe63      1.0  0.43016  0.19937  0.09276  1.0000
  S   S138      1.0  0.41523  0.21966  0.10027  1.0000
  Fe  Fe64      1.0  0.15348  0.37585  0.37654  1.0000
  S   S139      1.0  0.44497  0.20133  0.07007  1.0000
  Fe  Fe65      1.0  0.25758  0.33966  0.18227  1.0000
  S   S140      1.0  0.24806  0.35206  0.16240  1.0000
  S   S141      1.0  0.24411  0.33669  0.20555  1.0000
  Fe  Fe66      1.0  0.28902  0.33154  0.16393  1.0000
  S   S142      1.0  0.28196  0.34322  0.14264  1.0000
  S   S143      1.0  0.31295  0.31925  0.16140  1.0000
  H   H616      1.0  0.18949  0.30893  0.29776  1.0000
  Fe  Fe67      1.0  0.26207  0.33297  0.15234  1.0000
  S   S144      1.0  0.25504  0.31847  0.14212  1.0000
  H   H617      1.0  0.32673  0.26531  0.04096  1.0000
  S   S145      1.0  0.27011  0.31989  0.17283  1.0000
  Fe  Fe68      1.0  0.31590  0.28002  0.09135  1.0000
  S   S146      1.0  0.32366  0.30080  0.08821  1.0000
  S   S147      1.0  0.29211  0.28013  0.10386  1.0000
  Fe  Fe69      1.0  0.34645  0.26427  0.07661  1.0000
  S   S148      1.0  0.35671  0.28374  0.07197  1.0000
  S   S149      1.0  0.36043  0.24366  0.06927  1.0000
  Fe  Fe70      1.0  0.34430  0.28565  0.09499  1.0000
  S   S150      1.0  0.35495  0.28862  0.11161  1.0000
  Fe  Fe71      1.0  0.33520  0.29688  0.06563  1.0000
  S   S151      1.0  0.33487  0.31488  0.04520  1.0000
  S   S152      1.0  0.33559  0.26507  0.10022  1.0000
  S   S153      1.0  0.32596  0.27714  0.06815  1.0000
  S   S154      1.0  0.39508  0.36479  0.14401  1.0000
  Fe  Fe72      1.0  0.37831  0.35538  0.11616  1.0000
  S   S155      1.0  0.38887  0.33764  0.13313  1.0000
  S   S156      1.0  0.36785  0.35210  0.09951  1.0000
  Fe  Fe73      1.0  0.37656  0.35290  0.14862  1.0000
  S   S157      1.0  0.35993  0.34902  0.17016  1.0000
  Fe  Fe74      1.0  0.40637  0.35103  0.12680  1.0000
  S   S158      1.0  0.43062  0.34066  0.11882  1.0000
  H   H618      1.0  0.07730  0.23314  0.33785  1.0000
  S   S159      1.0  0.39649  0.36792  0.10871  1.0000
  Fe  Fe75      1.0  0.47760  0.26322  0.14310  1.0000
  S   S160      1.0  0.46163  0.28007  0.15551  1.0000
  Fe  Fe76      1.0  0.99751  0.32026  0.28922  1.0000
  H   H619      1.0  0.15537  0.29201  0.36121  1.0000
  S   S161      1.0  0.46855  0.24720  0.13721  1.0000
  Fe  Fe77      1.0  0.10364  0.30742  0.20447  1.0000
  S   S162      1.0  0.07930  0.31816  0.20763  1.0000
  S   S163      1.0  0.11021  0.29009  0.22403  1.0000
  Fe  Fe78      1.0  0.11098  0.32570  0.17311  1.0000
  S   S164      1.0  0.08714  0.33821  0.17400  1.0000
  S   S165      1.0  0.12869  0.33361  0.15381  1.0000
  Fe  Fe79      1.0  0.08728  0.33914  0.19691  1.0000
  S   S166      1.0  0.07640  0.35941  0.20619  1.0000
  Fe  Fe80      1.0  0.08148  0.31604  0.18459  1.0000
  S   S167      1.0  0.06560  0.30663  0.17827  1.0000
  S   S168      1.0  0.11150  0.32863  0.19513  1.0000
  S   S169      1.0  0.10542  0.30331  0.18219  1.0000
  Fe  Fe81      1.0  0.18887  0.30650  0.09106  1.0000
  S   S170      1.0  0.18649  0.33076  0.08043  1.0000
  S   S171      1.0  0.17145  0.29542  0.10821  1.0000
  Fe  Fe82      1.0  0.22171  0.29895  0.07589  1.0000
  S   S172      1.0  0.22188  0.32243  0.06441  1.0000
  S   S173      1.0  0.24297  0.28206  0.07074  1.0000
  Fe  Fe83      1.0  0.20863  0.32781  0.08609  1.0000
  S   S174      1.0  0.21407  0.34420  0.09546  1.0000
  Fe  Fe84      1.0  0.20001  0.32292  0.05972  1.0000
  S   S175      1.0  0.19854  0.33294  0.03585  1.0000
  S   S176      1.0  0.21002  0.30411  0.09804  1.0000
  S   S177      1.0  0.20071  0.29889  0.06987  1.0000
  Fe  Fe85      1.0  0.11369  0.29258  0.32558  1.0000
  S   S178      1.0  0.08946  0.29970  0.33606  1.0000
  S   S179      1.0  0.12921  0.27619  0.33922  1.0000
  Fe  Fe86      1.0  0.11010  0.31019  0.29505  1.0000
  S   S180      1.0  0.08564  0.31881  0.30284  1.0000
  S   S181      1.0  0.12067  0.31795  0.27122  1.0000
  Fe  Fe87      1.0  0.09194  0.32217  0.32221  1.0000
  S   S182      1.0  0.08068  0.34342  0.32986  1.0000
  Fe  Fe88      1.0  0.08553  0.29559  0.31588  1.0000
  S   S183      1.0  0.06870  0.28306  0.31641  1.0000
  S   S184      1.0  0.11649  0.31549  0.31335  1.0000
  S   S185      1.0  0.10961  0.28672  0.30639  1.0000
  H   H620      1.0  0.11129  0.29096  0.37271  1.0000
  S   S186      1.0  0.14176  0.34899  0.24457  1.0000
  H   H621      1.0  0.34754  0.24724  0.04394  1.0000
  H   H622      1.0  0.09248  0.33560  0.25387  1.0000
  S   S187      1.0  0.17418  0.35247  0.24738  1.0000
  Fe  Fe89      1.0  0.16412  0.35078  0.22971  1.0000
  S   S188      1.0  0.17638  0.33734  0.21276  1.0000
  H   H623      1.0  0.14731  0.18715  0.41721  1.0000
  H   H624      1.0  0.33933  0.37822  0.18455  1.0000
  H   H625      1.0  0.03984  0.26593  0.33164  1.0000
  S   S189      1.0  0.27741  0.35000  0.17563  1.0000
  Fe  Fe90      1.0  0.11852  0.20555  0.41148  1.0000
  S   S190      1.0  0.12878  0.19682  0.39083  1.0000
  S   S191      1.0  0.13332  0.21619  0.41764  1.0000
  Fe  Fe91      1.0  0.09001  0.19510  0.41681  1.0000
  C   C521      1.0  0.42709  0.24447  0.05779  1.0000
  C   C522      1.0  0.99722  0.30612  0.21661  1.0000
  Fe  Fe92      1.0  0.10612  0.20658  0.38586  1.0000
  S   S192      1.0  0.10158  0.21952  0.36390  1.0000
  S   S193      1.0  0.11129  0.18465  0.42471  1.0000
  S   S194      1.0  0.09644  0.21691  0.40551  1.0000
  H   H626      1.0  0.34037  0.35594  0.12905  1.0000
  Fe  Fe93      1.0  0.13614  0.37362  0.23727  1.0000
  C   C523      1.0  0.44985  0.21919  0.11800  1.0000
  S   S195      1.0  0.15303  0.29934  0.46294  1.0000
  H   H627      1.0  0.13749  0.31870  0.99125  1.0000
  H   H628      1.0  0.22330  0.25848  0.08450  1.0000
  H   H629      1.0  0.00964  0.31812  0.33680  1.0000
  H   H630      1.0  0.43483  0.19341  0.00065  1.0000
  S   S196      1.0  0.17144  0.35706  0.36877  1.0000
  Fe  Fe94      1.0  0.12920  0.36438  0.37108  1.0000
  S   S197      1.0  0.14526  0.34512  0.36305  1.0000
  S   S198      1.0  0.10499  0.36866  0.37038  1.0000
  Fe  Fe95      1.0  0.15538  0.34264  0.38213  1.0000
  S   S199      1.0  0.16198  0.31863  0.39334  1.0000
  Fe  Fe96      1.0  0.15956  0.36130  0.35059  1.0000
  H   H631      1.0  0.37201  0.21535  0.01793  1.0000
  S   S200      1.0  0.13811  0.36099  0.39136  1.0000
  S   S201      1.0  0.15068  0.25946  0.46107  1.0000
  H   H632      1.0  0.10105  0.28847  0.46329  1.0000
  S   S202      1.0  0.02114  0.22901  0.39175  1.0000
  C   C524      1.0  0.42576  0.23590  0.04891  1.0000
  C   C525      1.0  0.15680  0.30464  0.44350  1.0000
  C   C526      1.0  0.15429  0.31973  0.43660  1.0000
  C   C527      1.0  0.15610  0.32422  0.42116  1.0000
  C   C528      1.0  0.16069  0.31360  0.41255  1.0000
  C   C529      1.0  0.16368  0.29854  0.41941  1.0000
  C   C530      1.0  0.16169  0.29407  0.43484  1.0000
  H   H633      1.0  0.15064  0.32797  0.44325  1.0000
  H   H634      1.0  0.15387  0.33587  0.41594  1.0000
  H   H635      1.0  0.16753  0.29028  0.41279  1.0000
  H   H636      1.0  0.16407  0.28244  0.43999  1.0000
  C   C531      1.0  0.05414  0.20159  0.42041  1.0000
  C   C532      1.0  0.04220  0.19593  0.42029  1.0000
  C   C533      1.0  0.03187  0.20431  0.41156  1.0000
  C   C534      1.0  0.03331  0.21849  0.40331  1.0000
  C   C535      1.0  0.04496  0.22428  0.40383  1.0000
  C   C536      1.0  0.05549  0.21576  0.41217  1.0000
  S   S203      1.0  0.16452  0.30974  0.00196  1.0000
  C   C537      1.0  0.49080  0.30152  0.15917  1.0000
  H   H637      1.0  0.04598  0.23532  0.39763  1.0000
  H   H638      1.0  0.06448  0.22030  0.41247  1.0000
  C   C538      1.0  0.11601  0.24411  0.45249  1.0000
  C   C539      1.0  0.13130  0.23940  0.44702  1.0000
  C   C540      1.0  0.13641  0.23055  0.43660  1.0000
  C   C541      1.0  0.12629  0.22600  0.43179  1.0000
  C   C542      1.0  0.11095  0.23016  0.43763  1.0000
  C   C543      1.0  0.10581  0.23942  0.44782  1.0000
  H   H639      1.0  0.13928  0.24268  0.45064  1.0000
  H   H640      1.0  0.14829  0.22727  0.43220  1.0000
  H   H641      1.0  0.10307  0.22659  0.43400  1.0000
  H   H642      1.0  0.09394  0.24292  0.45210  1.0000
  H   H643      1.0  0.20356  0.26531  0.08934  1.0000
  C   C544      1.0  0.20021  0.26348  0.11735  1.0000
  H   H644      1.0  0.35044  0.27069  0.04107  1.0000
  C   C545      1.0  0.00718  0.30760  0.33750  1.0000
  H   H645      1.0  0.09491  0.28819  0.44771  1.0000
  C   C546      1.0  0.22952  0.30444  0.01096  1.0000
  C   C547      1.0  0.15186  0.34907  0.29684  1.0000
  C   C548      1.0  0.16297  0.35723  0.29071  1.0000
  C   C549      1.0  0.16895  0.36180  0.29995  1.0000
  C   C550      1.0  0.16367  0.35842  0.31530  1.0000
  C   C551      1.0  0.15245  0.35039  0.32136  1.0000
  C   C552      1.0  0.14670  0.34555  0.31217  1.0000
  H   H646      1.0  0.16705  0.35994  0.27886  1.0000
  H   H647      1.0  0.07070  0.24821  0.31480  1.0000
  H   H648      1.0  0.14833  0.34768  0.33314  1.0000
  H   H649      1.0  0.17760  0.36805  0.29519  1.0000
  C   C553      1.0  0.12231  0.25993  0.34548  1.0000
  C   C554      1.0  0.12935  0.24746  0.35463  1.0000
  C   C555      1.0  0.12295  0.23501  0.36058  1.0000
  C   C556      1.0  0.10984  0.23485  0.35691  1.0000
  C   C557      1.0  0.10305  0.24716  0.34750  1.0000
  C   C558      1.0  0.10914  0.25971  0.34200  1.0000
  H   H650      1.0  0.13966  0.24747  0.35717  1.0000
  H   H651      1.0  0.12834  0.22543  0.36772  1.0000
  H   H652      1.0  0.09291  0.24713  0.34463  1.0000
  H   H653      1.0  0.10351  0.26922  0.33510  1.0000
  C   C559      1.0  0.05259  0.29552  0.31190  1.0000
  C   C560      1.0  0.04291  0.29095  0.30649  1.0000
  C   C561      1.0  0.03025  0.30107  0.30239  1.0000
  C   C562      1.0  0.02736  0.31577  0.30356  1.0000
  C   C563      1.0  0.03695  0.32027  0.30916  1.0000
  C   C564      1.0  0.04950  0.31012  0.31342  1.0000
  H   H654      1.0  0.04530  0.27965  0.30528  1.0000
  C   C565      1.0  0.22729  0.30192  0.99802  1.0000
  H   H655      1.0  0.03465  0.33161  0.31021  1.0000
  H   H656      1.0  0.05667  0.31357  0.31806  1.0000
  C   C566      1.0  0.09920  0.36116  0.35875  1.0000
  C   C567      1.0  0.08462  0.36683  0.35663  1.0000
  C   C568      1.0  0.07927  0.36132  0.34765  1.0000
  C   C569      1.0  0.08832  0.34984  0.34087  1.0000
  C   C570      1.0  0.10304  0.34413  0.34281  1.0000
  C   C571      1.0  0.10851  0.34988  0.35168  1.0000
  C   C572      1.0  0.23389  0.38066  0.19099  1.0000
  H   H657      1.0  0.06792  0.36581  0.34619  1.0000
  H   H658      1.0  0.11016  0.33534  0.33750  1.0000
  H   H659      1.0  0.11980  0.34540  0.35319  1.0000
  C   C573      1.0  0.04730  0.31695  0.17741  1.0000
  C   C574      1.0  0.04255  0.33144  0.17954  1.0000
  C   C575      1.0  0.02805  0.33955  0.17821  1.0000
  C   C576      1.0  0.01821  0.33320  0.17486  1.0000
  C   C577      1.0  0.02280  0.31853  0.17325  1.0000
  C   C578      1.0  0.03732  0.31047  0.17447  1.0000
  H   H660      1.0  0.05015  0.33654  0.18183  1.0000
  H   H661      1.0  0.02458  0.35089  0.17944  1.0000
  H   H662      1.0  0.01529  0.31352  0.17073  1.0000
  H   H663      1.0  0.04089  0.29922  0.17292  1.0000
  C   C579      1.0  0.08720  0.36618  0.21373  1.0000
  C   C580      1.0  0.34297  0.28220  0.00679  1.0000
  H   H664      1.0  0.12046  0.28688  0.01034  1.0000
  H   H665      1.0  0.04072  0.38085  0.27495  1.0000
  C   C581      1.0  0.10891  0.36352  0.22354  1.0000
  C   C582      1.0  0.10069  0.35762  0.21747  1.0000
  H   H666      1.0  0.42756  0.20173  0.14785  1.0000
  H   H667      1.0  0.02283  0.29750  0.29824  1.0000
  H   H668      1.0  0.11921  0.35686  0.22654  1.0000
  H   H669      1.0  0.10464  0.34640  0.21600  1.0000
  C   C583      1.0  0.11406  0.29731  0.23705  1.0000
  C   C584      1.0  0.11843  0.31082  0.23284  1.0000
  C   C585      1.0  0.12090  0.31679  0.24336  1.0000
  C   C586      1.0  0.11875  0.30942  0.25824  1.0000
  C   C587      1.0  0.11464  0.29577  0.26249  1.0000
  C   C588      1.0  0.11248  0.28963  0.25186  1.0000
  H   H670      1.0  0.12021  0.31656  0.22145  1.0000
  H   H671      1.0  0.12428  0.32726  0.23999  1.0000
  H   H672      1.0  0.11318  0.28990  0.27392  1.0000
  H   H673      1.0  0.10945  0.27900  0.25517  1.0000
  C   C589      1.0  0.14040  0.32263  0.14144  1.0000
  C   C590      1.0  0.15100  0.32876  0.12983  1.0000
  C   C591      1.0  0.16059  0.32045  0.11967  1.0000
  C   C592      1.0  0.15951  0.30599  0.12092  1.0000
  C   C593      1.0  0.14886  0.29983  0.13254  1.0000
  C   C594      1.0  0.13935  0.30811  0.14284  1.0000
  H   H674      1.0  0.15179  0.34002  0.12863  1.0000
  H   H675      1.0  0.16876  0.32530  0.11082  1.0000
  H   H676      1.0  0.14802  0.28861  0.13360  1.0000
  H   H677      1.0  0.13127  0.30325  0.15183  1.0000
  C   C595      1.0  0.43891  0.32375  0.12916  1.0000
  C   C596      1.0  0.43268  0.31877  0.14407  1.0000
  C   C597      1.0  0.43971  0.30529  0.15206  1.0000
  C   C598      1.0  0.45274  0.29658  0.14509  1.0000
  C   C599      1.0  0.45875  0.30140  0.13009  1.0000
  C   C600      1.0  0.45196  0.31505  0.12220  1.0000
  H   H678      1.0  0.42262  0.32543  0.14951  1.0000
  H   H679      1.0  0.43504  0.30161  0.16369  1.0000
  H   H680      1.0  0.46882  0.29479  0.12464  1.0000
  H   H681      1.0  0.45682  0.31890  0.11066  1.0000
  C   C601      1.0  0.35813  0.30640  0.10821  1.0000
  C   C602      1.0  0.36188  0.31061  0.11919  1.0000
  C   C603      1.0  0.36451  0.32478  0.11670  1.0000
  C   C604      1.0  0.36376  0.33464  0.10310  1.0000
  C   C605      1.0  0.35975  0.33052  0.09220  1.0000
  C   C606      1.0  0.35690  0.31641  0.09476  1.0000
  H   H682      1.0  0.36263  0.30295  0.12969  1.0000
  H   H683      1.0  0.36715  0.32802  0.12530  1.0000
  H   H684      1.0  0.35905  0.33817  0.08168  1.0000
  H   H685      1.0  0.35393  0.31323  0.08626  1.0000
  C   C607      1.0  0.27883  0.28081  0.09416  1.0000
  C   C608      1.0  0.26371  0.28596  0.10016  1.0000
  C   C609      1.0  0.25271  0.28665  0.09284  1.0000
  C   C610      1.0  0.25676  0.28192  0.07958  1.0000
  C   C611      1.0  0.27190  0.27677  0.07352  1.0000
  C   C612      1.0  0.28295  0.27637  0.08072  1.0000
  H   H686      1.0  0.26052  0.28932  0.11057  1.0000
  H   H687      1.0  0.24109  0.29042  0.09770  1.0000
  H   H688      1.0  0.27508  0.27314  0.06322  1.0000
  H   H689      1.0  0.29460  0.27235  0.07602  1.0000
  C   C613      1.0  0.22530  0.33687  0.20738  1.0000
  C   C614      1.0  0.21836  0.34323  0.19542  1.0000
  C   C615      1.0  0.20328  0.34342  0.19710  1.0000
  C   C616      1.0  0.19515  0.33714  0.21074  1.0000
  C   C617      1.0  0.20195  0.33104  0.22280  1.0000
  C   C618      1.0  0.21702  0.33094  0.22113  1.0000
  H   H690      1.0  0.22442  0.34833  0.18499  1.0000
  H   H691      1.0  0.19785  0.34864  0.18794  1.0000
  H   H692      1.0  0.19562  0.32631  0.23341  1.0000
  H   H693      1.0  0.22229  0.32618  0.23047  1.0000
  C   C619      1.0  0.32562  0.32777  0.16412  1.0000
  C   C620      1.0  0.32135  0.33693  0.17423  1.0000
  C   C621      1.0  0.33194  0.34333  0.17628  1.0000
  C   C622      1.0  0.34667  0.34083  0.16798  1.0000
  C   C623      1.0  0.35076  0.33190  0.15772  1.0000
  C   C624      1.0  0.34032  0.32525  0.15592  1.0000
  H   H694      1.0  0.31002  0.33878  0.18070  1.0000
  H   H695      1.0  0.32874  0.35020  0.18427  1.0000
  H   H696      1.0  0.36212  0.32971  0.15150  1.0000
  H   H697      1.0  0.34366  0.31812  0.14816  1.0000
  C   C625      1.0  0.24403  0.32614  0.12891  1.0000
  C   C626      1.0  0.24026  0.31648  0.12287  1.0000
  C   C627      1.0  0.23104  0.32196  0.11269  1.0000
  C   C628      1.0  0.22550  0.33716  0.10843  1.0000
  C   C629      1.0  0.22926  0.34689  0.11449  1.0000
  C   C630      1.0  0.23855  0.34139  0.12473  1.0000
  H   H698      1.0  0.24438  0.30467  0.12619  1.0000
  H   H699      1.0  0.22840  0.31437  0.10803  1.0000
  H   H700      1.0  0.22503  0.35870  0.11122  1.0000
  H   H701      1.0  0.24140  0.34892  0.12941  1.0000
  C   C631      1.0  0.39958  0.22587  0.09228  1.0000
  C   C632      1.0  0.39740  0.21795  0.08325  1.0000
  C   C633      1.0  0.38500  0.22316  0.07666  1.0000
  C   C634      1.0  0.37498  0.23646  0.07881  1.0000
  C   C635      1.0  0.37701  0.24425  0.08807  1.0000
  C   C636      1.0  0.38927  0.23892  0.09484  1.0000
  H   H702      1.0  0.40524  0.20780  0.08135  1.0000
  H   H703      1.0  0.38317  0.21693  0.06988  1.0000
  H   H704      1.0  0.36924  0.25444  0.08994  1.0000
  H   H705      1.0  0.39079  0.24495  0.10200  1.0000
  H   H706      1.0  0.02536  0.27586  0.36827  1.0000
  H   H707      1.0  0.46144  0.24270  0.08143  1.0000
  S   S204      1.0  0.01262  0.19949  0.37661  1.0000
  H   H708      1.0  0.44159  0.22289  0.11085  1.0000
  C   C637      1.0  0.29380  0.34724  0.03935  1.0000
  S   S205      1.0  0.36472  0.36939  0.13207  1.0000
  H   H709      1.0  0.20340  0.28626  0.03579  1.0000
  H   H710      1.0  0.09455  0.36342  0.30366  1.0000
  C   C638      1.0  0.07200  0.34929  0.13875  1.0000
  S   S206      1.0  0.48144  0.20844  0.16255  1.0000
  H   H711      1.0  0.29629  0.37755  0.12234  1.0000
  C   C639      1.0  0.21298  0.24070  0.10974  1.0000
  S   S207      1.0  0.09768  0.18583  0.39653  1.0000
  C   C640      1.0  0.21037  0.29033  0.02527  1.0000
  H   H712      1.0  0.40668  0.21065  0.05417  1.0000
  C   C641      1.0  0.43419  0.20388  0.13629  1.0000
  C   C642      1.0  0.17441  0.31571  0.01136  1.0000
  C   C643      1.0  0.18453  0.32471  0.00359  1.0000
  C   C644      1.0  0.19171  0.33000  0.01125  1.0000
  C   C645      1.0  0.18920  0.32600  0.02673  1.0000
  C   C646      1.0  0.17925  0.31679  0.03454  1.0000
  C   C647      1.0  0.17174  0.31183  0.02687  1.0000
  C   C648      1.0  0.09079  0.32391  0.41157  1.0000
  H   H713      1.0  0.19918  0.33728  0.00512  1.0000
  H   H714      1.0  0.17716  0.31373  0.04647  1.0000
  H   H715      1.0  0.16387  0.30493  0.03296  1.0000
  C   C649      1.0  0.17237  0.19275  0.44152  1.0000
  C   C650      1.0  0.04276  0.22949  0.32687  1.0000
  H   H716      1.0  0.02490  0.29517  0.34813  1.0000
  C   C651      1.0  0.43982  0.19288  0.00956  1.0000
  H   H717      1.0  0.30403  0.35117  0.03663  1.0000
  C   C652      1.0  0.45650  0.20066  0.01913  1.0000
  C   C653      1.0  0.10153  0.33145  0.40206  1.0000
  H   H718      1.0  0.22375  0.33372  0.00902  1.0000
  S   S208      1.0  0.29163  0.29397  0.98116  1.0000
  H   H719      1.0  0.46437  0.20740  0.01759  1.0000
  C   C654      1.0  0.29949  0.31077  0.02450  1.0000
  C   C655      1.0  0.31098  0.31780  0.01576  1.0000
  C   C656      1.0  0.32157  0.31962  0.02221  1.0000
  C   C657      1.0  0.32065  0.31440  0.03740  1.0000
  C   C658      1.0  0.30878  0.30799  0.04621  1.0000
  C   C659      1.0  0.29818  0.30617  0.03979  1.0000
  H   H720      1.0  0.31168  0.32189  0.00405  1.0000
  H   H721      1.0  0.33064  0.32479  0.01541  1.0000
  H   H722      1.0  0.30781  0.30442  0.05799  1.0000
  H   H723      1.0  0.28918  0.30090  0.04659  1.0000
  Fe  Fe97      1.0  0.14883  0.27641  0.47366  1.0000
  H   H724      1.0  0.22195  0.36412  0.21598  1.0000
  C   C660      1.0  0.31144  0.36304  0.14349  1.0000
  H   H725      1.0  0.17798  0.32751  0.33979  1.0000
  H   H726      1.0  0.29314  0.34147  0.06235  1.0000
  N   N35       1.0  0.31800  0.36848  0.12766  1.0000
  H   H727      1.0  0.13656  0.26973  0.40713  1.0000
  C   C661      1.0  0.09366  0.31418  0.42478  1.0000
  N   N36       1.0  0.34333  0.27167  0.02132  1.0000
  H   H728      1.0  0.16992  0.27791  0.31781  1.0000
  S   S209      1.0  0.49360  0.24535  0.15500  1.0000
  H   H729      1.0  0.12631  0.28153  0.44964  1.0000
  C   C662      1.0  0.06385  0.24055  0.32192  1.0000
  H   H730      1.0  0.08010  0.35532  0.13833  1.0000
  C   C663      1.0  0.12190  0.29848  0.00601  1.0000
  C   C664      1.0  0.18329  0.36170  0.15653  1.0000
  H   H731      1.0  0.25918  0.29550  0.00540  1.0000
  H   H732      1.0  0.46394  0.21878  0.07516  1.0000
  H   H733      1.0  0.09964  0.29404  0.99967  1.0000
  H   H734      1.0  0.11579  0.38166  0.33789  1.0000
  H   H735      1.0  0.44166  0.19317  0.13420  1.0000
  C   C665      1.0  0.22064  0.29845  0.02467  1.0000
  C   C666      1.0  0.04571  0.34962  0.14289  1.0000
  H   H736      1.0  0.36031  0.22190  0.04233  1.0000
  S   S210      1.0  0.41204  0.21716  0.98876  1.0000
  C   C667      1.0  0.48050  0.23496  0.09149  1.0000
  H   H737      1.0  0.08762  0.30525  0.14624  1.0000
  S   S211      1.0  0.00420  0.22201  0.33903  1.0000
  H   H738      1.0  0.33679  0.29359  0.00813  1.0000
  C   C668      1.0  0.24266  0.31340  0.02439  1.0000
  H   H739      1.0  0.04041  0.21099  0.37129  1.0000
  H   H740      1.0  0.23229  0.31898  0.03124  1.0000
  C   C669      1.0  0.47042  0.23344  0.08421  1.0000
  H   H741      1.0  0.34497  0.28893  0.03061  1.0000
  H   H742      1.0  0.17820  0.30789  0.28621  1.0000
  H   H743      1.0  0.03500  0.27709  0.21639  1.0000
  N   N37       1.0  0.16927  0.30138  0.30968  1.0000
  H   H744      1.0  0.13790  0.25446  0.37969  1.0000
  C   C670      1.0  0.32762  0.27178  0.02938  1.0000
  H   H745      1.0  0.22109  0.30024  0.03506  1.0000
  H   H746      1.0  0.15391  0.30277  0.29636  1.0000
  H   H747      1.0  0.12365  0.33493  0.39816  1.0000
  H   H748      1.0  0.12052  0.28275  0.43317  1.0000
  C   C671      1.0  0.20864  0.28790  0.01237  1.0000
  H   H749      1.0  0.08456  0.29113  0.98467  1.0000
  H   H750      1.0  0.26965  0.34174  0.02263  1.0000
  C   C672      1.0  0.40167  0.25803  0.05799  1.0000
  H   H751      1.0  0.01022  0.24403  0.31229  1.0000
  C   C673      1.0  0.21717  0.29359  0.99879  1.0000
  H   H752      1.0  0.32185  0.26716  0.02377  1.0000
  H   H753      1.0  0.09170  0.31638  0.15583  1.0000
  Fe  Fe98      1.0  0.00509  0.21712  0.38962  1.0000
  H   H754      1.0  0.09922  0.33912  0.39191  1.0000
  H   H755      1.0  0.25140  0.31951  0.02315  1.0000
  H   H756      1.0  0.05496  0.19798  0.37921  1.0000
  H   H757      1.0  0.19878  0.25768  0.12919  1.0000
  H   H758      1.0  0.19190  0.36749  0.15542  1.0000
  H   H759      1.0  0.08195  0.30670  0.26058  1.0000
  H   H760      1.0  0.20245  0.24030  0.10719  1.0000
  H   H761      1.0  0.24304  0.24570  0.09436  1.0000
  C   C674      1.0  0.21425  0.26408  0.09252  1.0000
  N   N38       1.0  0.14654  0.35445  0.18301  1.0000
  H   H762      1.0  0.05130  0.19556  0.36296  1.0000
  H   H763      1.0  0.10705  0.31603  0.11569  1.0000
  H   H764      1.0  0.08845  0.31356  0.11967  1.0000
  C   C675      1.0  0.06365  0.38096  0.26396  1.0000
  H   H765      1.0  0.04675  0.36711  0.29913  1.0000
  H   H766      1.0  0.07735  0.37553  0.36201  1.0000
  H   H767      1.0  0.29240  0.35151  0.01666  1.0000
  N   N39       1.0  0.04905  0.28687  0.22324  1.0000
  C   C676      1.0  0.03763  0.27793  0.22661  1.0000
  C   C677      1.0  0.04248  0.30242  0.21687  1.0000
  C   C678      1.0  0.06164  0.28111  0.21175  1.0000
  C   C679      1.0  0.05371  0.28632  0.23683  1.0000
  C   C680      1.0  0.04291  0.28814  0.25009  1.0000
  C   C681      1.0  0.06890  0.28453  0.23721  1.0000
  C   C682      1.0  0.04712  0.28732  0.26309  1.0000
  C   C683      1.0  0.07297  0.28386  0.25024  1.0000
  C   C684      1.0  0.06213  0.28510  0.26319  1.0000
  H   H768      1.0  0.45580  0.22827  0.11573  1.0000
  H   H769      1.0  0.04148  0.26651  0.23287  1.0000
  H   H770      1.0  0.02671  0.28292  0.23310  1.0000
  H   H771      1.0  0.03318  0.30751  0.22499  1.0000
  H   H772      1.0  0.03792  0.30326  0.20718  1.0000
  H   H773      1.0  0.05091  0.30936  0.21309  1.0000
  H   H774      1.0  0.06753  0.26967  0.21614  1.0000
  H   H775      1.0  0.05776  0.28091  0.20197  1.0000
  H   H776      1.0  0.06989  0.28830  0.20721  1.0000
  H   H777      1.0  0.03110  0.29033  0.25053  1.0000
  H   H778      1.0  0.07793  0.28363  0.22761  1.0000
  H   H779      1.0  0.08466  0.28232  0.25021  1.0000
  C   C685      1.0  0.35063  0.27735  0.02960  1.0000
  N   N40       1.0  0.06259  0.21324  0.35914  1.0000
  S   S212      1.0  0.14380  0.37793  0.25528  1.0000
  C   C686      1.0  0.06327  0.22323  0.36803  1.0000
  H   H780      1.0  0.16797  0.20333  0.44472  1.0000
  H   H781      1.0  0.43744  0.24239  0.06133  1.0000
  H   H782      1.0  0.32111  0.28320  0.03007  1.0000
  H   H783      1.0  0.15184  0.19271  0.43713  1.0000
  C   C687      1.0  0.08320  0.33534  0.24916  1.0000
  C   C688      1.0  0.41436  0.21268  0.04320  1.0000
  H   H784      1.0  0.39551  0.22420  0.02545  1.0000
  Fe  Fe99      1.0  0.12766  0.25799  0.47456  1.0000
  S   S213      1.0  0.06777  0.19081  0.43029  1.0000
  H   H785      1.0  0.24837  0.36169  0.21180  1.0000
  H   H786      1.0  0.07152  0.23022  0.36227  1.0000
  H   H787      1.0  0.06677  0.21688  0.37853  1.0000
  H   H788      1.0  0.05220  0.23072  0.37094  1.0000
  H   H789      1.0  0.06536  0.28446  0.27329  1.0000
  C   C689      1.0  0.14259  0.29124  0.98688  1.0000
  C   C690      1.0  0.41220  0.23796  0.04452  1.0000
  C   C691      1.0  0.40017  0.24941  0.04925  1.0000
  H   H790      1.0  0.13226  0.37131  0.17009  1.0000
  H   H791      1.0  0.02430  0.31965  0.26728  1.0000
  C   C692      1.0  0.17130  0.36163  0.16883  1.0000
  H   H792      1.0  0.21612  0.27534  0.09071  1.0000
  H   H793      1.0  0.38722  0.23010  0.04250  1.0000
  H   H794      1.0  0.04111  0.18499  0.42675  1.0000
  H   H795      1.0  0.15010  0.29171  0.99363  1.0000
  C   C693      1.0  0.13348  0.30410  0.38516  1.0000
  C   C694      1.0  0.24135  0.26130  0.12770  1.0000
  H   H796      1.0  0.04055  0.32967  0.14208  1.0000
  H   H797      1.0  0.13596  0.36393  0.20222  1.0000
  H   H798      1.0  0.41332  0.20518  0.03682  1.0000
  H   H799      1.0  0.36253  0.27727  0.02401  1.0000
  C   C695      1.0  0.16138  0.29614  0.33744  1.0000
  H   H800      1.0  0.14788  0.31573  0.30806  1.0000
  C   C696      1.0  0.17443  0.31600  0.32531  1.0000
  H   H801      1.0  0.02275  0.19989  0.41132  1.0000
  C   C697      1.0  0.16679  0.30990  0.35202  1.0000
  H   H802      1.0  0.18589  0.38121  0.33604  1.0000
  H   H803      1.0  0.34278  0.37929  0.15775  1.0000
  C   C698      1.0  0.42200  0.23047  0.02111  1.0000
  H   H804      1.0  0.99511  0.26855  0.30249  1.0000
  H   H805      1.0  0.42133  0.22363  0.01385  1.0000
  H   H806      1.0  0.41606  0.26206  0.06928  1.0000
  N   N41       1.0  0.21183  0.31283  0.17121  1.0000
  C   C699      1.0  0.21474  0.32789  0.16484  1.0000
  C   C700      1.0  0.20803  0.31073  0.18756  1.0000
  C   C701      1.0  0.22583  0.30183  0.16727  1.0000
  C   C702      1.0  0.19996  0.31107  0.16515  1.0000
  C   C703      1.0  0.20206  0.31248  0.14971  1.0000
  C   C704      1.0  0.18613  0.30794  0.17417  1.0000
  C   C705      1.0  0.19121  0.31052  0.14371  1.0000
  C   C706      1.0  0.17533  0.30606  0.16804  1.0000
  C   C707      1.0  0.17792  0.30723  0.15288  1.0000
  H   H807      1.0  0.22358  0.32965  0.16921  1.0000
  H   H808      1.0  0.21873  0.33003  0.15265  1.0000
  H   H809      1.0  0.20445  0.33646  0.16742  1.0000
  H   H810      1.0  0.19774  0.31884  0.19134  1.0000
  H   H811      1.0  0.21704  0.31240  0.19176  1.0000
  H   H812      1.0  0.20633  0.29938  0.19316  1.0000
  H   H813      1.0  0.23020  0.30336  0.15514  1.0000
  H   H814      1.0  0.23499  0.30280  0.17175  1.0000
  H   H815      1.0  0.22411  0.29033  0.17161  1.0000
  H   H816      1.0  0.21212  0.31515  0.14213  1.0000
  H   H817      1.0  0.18336  0.30685  0.18600  1.0000
  H   H818      1.0  0.19306  0.31170  0.13186  1.0000
  H   H819      1.0  0.16487  0.30364  0.17508  1.0000
  H   H820      1.0  0.16957  0.30565  0.14823  1.0000
  N   N42       1.0  0.24030  0.31334  0.00984  1.0000
  C   C708      1.0  0.25502  0.25513  0.11945  1.0000
  H   H821      1.0  0.32886  0.34576  0.12628  1.0000
  C   C709      1.0  0.35979  0.23037  0.03224  1.0000
  H   H822      1.0  0.42634  0.20708  0.12876  1.0000
  C   C710      1.0  0.49265  0.19375  0.13980  1.0000
  C   C711      1.0  0.05857  0.22208  0.34502  1.0000
  H   H823      1.0  0.30450  0.35902  0.11997  1.0000
  S   S214      1.0  0.00417  0.30844  0.24118  1.0000
  H   H824      1.0  0.10148  0.34535  0.27189  1.0000
  H   H825      1.0  0.45053  0.20541  0.15423  1.0000
  H   H826      1.0  0.06975  0.30951  0.27800  1.0000
  H   H827      1.0  0.10768  0.36057  0.25821  1.0000
  H   H828      1.0  0.43372  0.22708  0.02252  1.0000
  H   H829      1.0  0.35804  0.26001  0.99590  1.0000
  C   C712      1.0  0.35138  0.25635  0.02012  1.0000
  H   H830      1.0  0.00656  0.25298  0.35724  1.0000
  C   C713      1.0  0.99928  0.24813  0.31864  1.0000
  H   H831      1.0  0.18996  0.26368  0.11385  1.0000
  N   N43       1.0  0.21403  0.25614  0.10810  1.0000
  C   C714      1.0  0.10372  0.37803  0.22569  1.0000
  C   C715      1.0  0.48854  0.19258  0.15509  1.0000
  N   N44       1.0  0.30748  0.29050  0.14023  1.0000
  C   C716      1.0  0.30547  0.27890  0.13410  1.0000
  C   C717      1.0  0.32186  0.28494  0.14513  1.0000
  C   C718      1.0  0.29535  0.29248  0.15345  1.0000
  C   C719      1.0  0.30676  0.30464  0.12903  1.0000
  C   C720      1.0  0.29402  0.31096  0.12272  1.0000
  C   C721      1.0  0.31844  0.31250  0.12405  1.0000
  C   C722      1.0  0.29303  0.32426  0.11213  1.0000
  C   C723      1.0  0.31748  0.32564  0.11322  1.0000
  C   C724      1.0  0.30480  0.33153  0.10728  1.0000
  H   H832      1.0  0.31333  0.27827  0.12324  1.0000
  H   H833      1.0  0.30746  0.26775  0.14152  1.0000
  H   H834      1.0  0.29399  0.28104  0.13235  1.0000
  H   H835      1.0  0.33143  0.28283  0.13572  1.0000
  H   H836      1.0  0.32208  0.27433  0.15352  1.0000
  H   H837      1.0  0.32391  0.29287  0.15036  1.0000
  H   H838      1.0  0.28407  0.29605  0.15085  1.0000
  H   H839      1.0  0.29548  0.28209  0.16215  1.0000
  H   H840      1.0  0.29655  0.30106  0.15838  1.0000
  H   H841      1.0  0.28470  0.30563  0.12596  1.0000
  H   H842      1.0  0.32852  0.30865  0.12826  1.0000
  H   H843      1.0  0.28305  0.32889  0.10773  1.0000
  H   H844      1.0  0.32676  0.33113  0.10930  1.0000
  H   H845      1.0  0.30414  0.34170  0.09888  1.0000
  H   H846      1.0  0.07904  0.34688  0.24334  1.0000
  Fe  Fe100     1.0  0.48655  0.24942  0.11663  1.0000
  H   H847      1.0  0.03867  0.28860  0.27310  1.0000
  S   S215      1.0  0.14449  0.34293  0.28557  1.0000
  H   H848      1.0  0.46220  0.19833  0.13861  1.0000
  H   H849      1.0  0.10171  0.34550  0.12237  1.0000
  H   H850      1.0  0.37090  0.23474  0.99499  1.0000
  H   H851      1.0  0.09702  0.27338  0.38613  1.0000
  H   H852      1.0  0.07462  0.34055  0.27554  1.0000
  H   H853      1.0  0.11843  0.34994  0.27156  1.0000
  H   H854      1.0  0.12971  0.29988  0.01197  1.0000
  Fe  Fe101     1.0  0.15104  0.35332  0.26149  1.0000
  H   H855      1.0  0.08013  0.32573  0.40871  1.0000
  H   H856      1.0  0.11108  0.30624  0.00915  1.0000
  H   H857      1.0  0.11631  0.37500  0.27755  1.0000
  C   C725      1.0  0.07777  0.31435  0.26830  1.0000
  H   H858      1.0  0.02433  0.32783  0.24061  1.0000
  H   H859      1.0  0.42012  0.24224  0.01500  1.0000
  H   H860      1.0  0.39298  0.24318  0.02566  1.0000
  H   H861      1.0  0.24263  0.33594  0.00127  1.0000
  H   H862      1.0  0.17963  0.32331  0.31580  1.0000
  C   C726      1.0  0.05183  0.20404  0.36848  1.0000
  H   H863      1.0  0.05400  0.36773  0.14381  1.0000
  C   C727      1.0  0.16118  0.34682  0.15924  1.0000
  C   C728      1.0  0.03382  0.32344  0.25950  1.0000
  H   H864      1.0  0.30992  0.35153  0.14574  1.0000
  C   C729      1.0  0.13790  0.29188  0.39597  1.0000
  C   C730      1.0  0.15967  0.35440  0.17041  1.0000
  C   C731      1.0  0.11855  0.29067  0.37962  1.0000
  C   C732      1.0  0.13269  0.27899  0.39872  1.0000
  C   C733      1.0  0.12286  0.27796  0.39061  1.0000
  C   C734      1.0  0.11525  0.32915  0.40562  1.0000
  H   H865      1.0  0.11294  0.26728  0.37226  1.0000
  C   C735      1.0  0.16069  0.29872  0.35117  1.0000
  H   H866      1.0  0.17389  0.34137  0.13845  1.0000
  C   C736      1.0  0.12343  0.28926  0.43938  1.0000
  H   H867      1.0  0.12736  0.24129  0.39190  1.0000
  C   C737      1.0  0.16319  0.18651  0.43721  1.0000
  S   S216      1.0  0.17131  0.36428  0.32663  1.0000
  C   C738      1.0  0.02134  0.26660  0.36711  1.0000
  C   C739      1.0  0.13079  0.25171  0.39093  1.0000
  H   H868      1.0  0.05940  0.35021  0.26651  1.0000
  H   H869      1.0  0.01966  0.25180  0.33985  1.0000
  H   H870      1.0  0.17138  0.36736  0.17693  1.0000
  H   H871      1.0  0.06730  0.33741  0.23132  1.0000
  H   H872      1.0  0.48954  0.30597  0.16901  1.0000
  H   H873      1.0  0.04548  0.32004  0.27632  1.0000
  N   N45       1.0  0.26836  0.32930  0.07360  1.0000
  C   C740      1.0  0.27991  0.31725  0.07994  1.0000
  C   C741      1.0  0.26352  0.34100  0.08220  1.0000
  C   C742      1.0  0.25526  0.32296  0.07565  1.0000
  C   C743      1.0  0.12379  0.30352  0.37704  1.0000
  H   H874      1.0  0.08485  0.30875  0.43164  1.0000
  H   H875      1.0  0.26539  0.25511  0.12197  1.0000
  H   H876      1.0  0.28999  0.32098  0.07961  1.0000
  H   H877      1.0  0.27561  0.31231  0.09175  1.0000
  H   H878      1.0  0.28366  0.30816  0.07385  1.0000
  H   H879      1.0  0.25853  0.33669  0.09401  1.0000
  H   H880      1.0  0.25485  0.35030  0.07772  1.0000
  H   H881      1.0  0.27293  0.34568  0.08207  1.0000
  H   H882      1.0  0.24562  0.33164  0.07222  1.0000
  H   H883      1.0  0.25807  0.31404  0.06943  1.0000
  H   H884      1.0  0.25125  0.31782  0.08741  1.0000
  H   H885      1.0  0.15302  0.34076  0.15985  1.0000
  C   C744      1.0  0.18420  0.35445  0.14560  1.0000
  N   N46       1.0  0.09822  0.36464  0.28027  1.0000
  S   S217      1.0  0.00072  0.29790  0.28462  1.0000
  H   H886      1.0  0.07228  0.35960  0.30211  1.0000
  S   S218      1.0  0.14281  0.38094  0.35735  1.0000
  H   H887      1.0  0.08832  0.32833  0.24084  1.0000
  H   H888      1.0  0.15620  0.28753  0.33738  1.0000
  C   C745      1.0  0.35245  0.24496  0.03305  1.0000
  H   H889      1.0  0.04608  0.33667  0.22287  1.0000
  C   C746      1.0  0.24210  0.24995  0.10388  1.0000
  H   H890      1.0  0.24646  0.30195  0.03066  1.0000
  H   H891      1.0  0.46252  0.21621  0.14002  1.0000
  H   H892      1.0  0.30014  0.36968  0.14724  1.0000
  C   C747      1.0  0.09458  0.31320  0.14502  1.0000
  H   H893      1.0  0.28325  0.37753  0.16894  1.0000
  C   C748      1.0  0.10678  0.35478  0.27001  1.0000
  C   C749      1.0  0.25509  0.30749  0.00088  1.0000
  C   C750      1.0  0.05697  0.35661  0.14192  1.0000
  H   H894      1.0  0.33715  0.27887  0.00014  1.0000
  H   H895      1.0  0.18782  0.28280  0.31224  1.0000
  C   C751      1.0  0.27457  0.33560  0.05794  1.0000
  H   H896      1.0  0.39222  0.26642  0.06181  1.0000
  H   H897      1.0  0.20047  0.28186  0.01283  1.0000
  H   H898      1.0  0.13769  0.31400  0.38298  1.0000
  N   N47       1.0  0.07108  0.32941  0.26074  1.0000
  H   H899      1.0  0.20012  0.27529  0.11635  1.0000
  H   H900      1.0  0.22234  0.23484  0.10215  1.0000
  H   H901      1.0  0.02808  0.25624  0.37276  1.0000
  H   H902      1.0  0.43542  0.22748  0.04567  1.0000
  H   H903      1.0  0.21580  0.29170  0.98877  1.0000
  C   C752      1.0  0.44993  0.20165  0.00754  1.0000
  C   C753      1.0  0.45496  0.20858  0.14210  1.0000
  H   H904      1.0  0.35441  0.28314  0.00026  1.0000
  H   H905      1.0  0.17798  0.28308  0.29871  1.0000
  H   H906      1.0  0.11252  0.35344  0.29579  1.0000
  H   H907      1.0  0.04886  0.24584  0.30730  1.0000
  N   N48       1.0  0.02262  0.26659  0.35145  1.0000
  H   H908      1.0  0.13748  0.33875  0.20185  1.0000
  H   H909      1.0  0.10416  0.25408  0.38631  1.0000
  C   C754      1.0  0.17353  0.31859  0.33911  1.0000
  H   H910      1.0  0.21326  0.23421  0.12121  1.0000
  C   C755      1.0  0.15395  0.30419  0.30740  1.0000
  H   H911      1.0  0.23320  0.30655  0.98715  1.0000
  H   H912      1.0  0.17234  0.32255  0.29564  1.0000
  C   C756      1.0  0.04940  0.33521  0.14086  1.0000
  C   C757      1.0  0.04601  0.32371  0.26461  1.0000
  H   H913      1.0  0.11467  0.32905  0.12855  1.0000
  C   C758      1.0  0.25539  0.24954  0.10752  1.0000
  H   H914      1.0  0.10646  0.30705  0.14320  1.0000
  C   C759      1.0  0.05828  0.33336  0.23961  1.0000
  C   C760      1.0  0.36572  0.23761  0.00565  1.0000
  H   H915      1.0  0.03405  0.35522  0.14559  1.0000
  H   H916      1.0  0.00954  0.26743  0.37344  1.0000
  C   C761      1.0  0.33140  0.35694  0.12332  1.0000
  C   C762      1.0  0.45244  0.19131  0.03292  1.0000
  C   C763      1.0  0.43261  0.22875  0.13852  1.0000
  C   C764      1.0  0.43507  0.23524  0.14890  1.0000
  C   C765      1.0  0.41992  0.23594  0.13230  1.0000
  C   C766      1.0  0.42550  0.24824  0.15258  1.0000
  C   C767      1.0  0.41030  0.24882  0.13621  1.0000
  C   C768      1.0  0.41314  0.25500  0.14627  1.0000
  H   H917      1.0  0.31146  0.37427  0.10689  1.0000
  C   C769      1.0  0.28728  0.34744  0.02809  1.0000
  C   C770      1.0  0.05564  0.36982  0.28969  1.0000
  N   N49       1.0  0.23297  0.38245  0.20601  1.0000
  H   H918      1.0  0.10188  0.33869  0.14181  1.0000
  H   H919      1.0  0.18653  0.32796  0.99168  1.0000
  S   S219      1.0  0.47816  0.25183  0.09637  1.0000
  C   C771      1.0  0.01833  0.25299  0.35130  1.0000
  H   H920      1.0  0.26366  0.31334  0.00066  1.0000
  H   H921      1.0  0.44438  0.23057  0.15428  1.0000
  H   H922      1.0  0.41739  0.23171  0.12425  1.0000
  H   H923      1.0  0.42774  0.25310  0.16038  1.0000
  H   H924      1.0  0.40067  0.25407  0.13130  1.0000
  H   H925      1.0  0.40572  0.26503  0.14922  1.0000
  N   N50       1.0  0.09193  0.32646  0.13300  1.0000
  C   C772      1.0  0.10293  0.33538  0.13136  1.0000
  H   H926      1.0  0.04582  0.25517  0.34825  1.0000
  C   C773      1.0  0.09509  0.32162  0.11894  1.0000
  C   C774      1.0  0.07616  0.33460  0.13645  1.0000
  H   H927      1.0  0.47946  0.30058  0.15902  1.0000
  C   C775      1.0  0.06436  0.32774  0.13778  1.0000
  Fe  Fe102     1.0  0.48611  0.22962  0.14703  1.0000
  H   H928      1.0  0.15576  0.35964  0.19843  1.0000
  S   S220      1.0  0.01231  0.32892  0.29748  1.0000
  H   H929      1.0  0.19342  0.35463  0.13598  1.0000
  C   C776      1.0  0.47181  0.21990  0.08069  1.0000
  C   C777      1.0  0.48363  0.20800  0.08391  1.0000
  H   H930      1.0  0.45824  0.20961  0.11417  1.0000
  H   H931      1.0  0.10003  0.26981  0.41188  1.0000
  H   H932      1.0  0.13809  0.33925  0.31698  1.0000
  S   S221      1.0  0.45292  0.21492  0.99107  1.0000
  H   H933      1.0  0.09251  0.33124  0.10977  1.0000
  H   H934      1.0  0.00577  0.31222  0.21041  1.0000
  C   C778      1.0  0.10049  0.35661  0.29530  1.0000
  H   H935      1.0  0.06659  0.31642  0.13674  1.0000
  C   C779      1.0  0.36639  0.22669  0.01856  1.0000
  Fe  Fe103     1.0  0.26889  0.36100  0.15500  1.0000
  C   C780      1.0  0.28753  0.34151  0.05406  1.0000
  H   H936      1.0  0.11689  0.25825  0.41710  1.0000
  C   C781      1.0  0.14679  0.33913  0.19185  1.0000
  H   H937      1.0  0.42585  0.20892  0.04516  1.0000
  H   H938      1.0  0.09665  0.34605  0.29880  1.0000
  C   C782      1.0  0.27444  0.34193  0.03149  1.0000
  C   C783      1.0  0.10749  0.26480  0.38417  1.0000
  H   H939      1.0  0.14724  0.29665  0.31578  1.0000
  C   C784      1.0  0.30709  0.36988  0.11882  1.0000
  C   C785      1.0  0.04606  0.33297  0.23457  1.0000
  C   C786      1.0  0.10958  0.26055  0.40920  1.0000
  H   H940      1.0  0.13377  0.29296  0.43272  1.0000
  H   H941      1.0  0.38932  0.25170  0.04674  1.0000
  H   H942      1.0  0.12044  0.31307  0.36856  1.0000
  C   C787      1.0  0.22795  0.25606  0.11209  1.0000
  C   C788      1.0  0.17658  0.28562  0.30963  1.0000
  H   H943      1.0  0.05753  0.33448  0.28157  1.0000
  H   H944      1.0  0.24118  0.26593  0.13676  1.0000
  H   H945      1.0  0.21781  0.26686  0.13091  1.0000
  H   H946      1.0  0.10511  0.25043  0.41160  1.0000
  C   C789      1.0  0.99570  0.30737  0.33142  1.0000
  C   C790      1.0  0.17776  0.31058  0.29683  1.0000
  H   H947      1.0  0.25488  0.30895  0.98911  1.0000
  C   C791      1.0  0.41506  0.25552  0.06230  1.0000
  H   H948      1.0  0.15742  0.33426  0.19574  1.0000
  N   N51       1.0  0.41822  0.30285  0.10805  1.0000
  C   C792      1.0  0.40455  0.31412  0.10500  1.0000
  C   C793      1.0  0.41819  0.30063  0.12386  1.0000
  C   C794      1.0  0.43127  0.30913  0.09892  1.0000
  C   C795      1.0  0.41914  0.28842  0.10487  1.0000
  C   C796      1.0  0.40693  0.28493  0.10186  1.0000
  C   C797      1.0  0.43238  0.27711  0.10527  1.0000
  C   C798      1.0  0.40822  0.27120  0.09885  1.0000
  C   C799      1.0  0.43358  0.26348  0.10213  1.0000
  C   C800      1.0  0.42155  0.26055  0.09884  1.0000
  H   H949      1.0  0.39428  0.31102  0.11268  1.0000
  H   H950      1.0  0.40459  0.32514  0.10651  1.0000
  H   H951      1.0  0.40349  0.31581  0.09343  1.0000
  H   H952      1.0  0.40889  0.29543  0.13112  1.0000
  H   H953      1.0  0.41678  0.31133  0.12689  1.0000
  H   H954      1.0  0.42883  0.29344  0.12667  1.0000
  H   H955      1.0  0.43234  0.30997  0.08697  1.0000
  H   H956      1.0  0.43032  0.32043  0.10045  1.0000
  H   H957      1.0  0.44198  0.30250  0.10190  1.0000
  H   H958      1.0  0.39620  0.29257  0.10180  1.0000
  H   H959      1.0  0.44195  0.27866  0.10806  1.0000
  H   H960      1.0  0.39874  0.26881  0.09658  1.0000
  H   H961      1.0  0.44393  0.25516  0.10230  1.0000
  H   H962      1.0  0.42247  0.24991  0.09652  1.0000
  N   N52       1.0  0.11092  0.30183  0.44281  1.0000
  C   C801      1.0  0.09816  0.29556  0.45274  1.0000
  C   C802      1.0  0.11540  0.30999  0.45121  1.0000
  C   C803      1.0  0.10750  0.31179  0.42884  1.0000
  C   C804      1.0  0.11828  0.31939  0.41870  1.0000
  S   S222      1.0  0.00059  0.34415  0.17204  1.0000
  S   S223      1.0  0.10961  0.25640  0.46454  1.0000
  H   H963      1.0  0.13542  0.37794  0.32961  1.0000
  H   H964      1.0  0.11784  0.30290  0.46192  1.0000
  H   H965      1.0  0.10652  0.31985  0.45359  1.0000
  H   H966      1.0  0.12918  0.31787  0.42082  1.0000
  H   H967      1.0  0.25708  0.37692  0.20285  1.0000
  C   C805      1.0  0.04610  0.22104  0.34038  1.0000
  Fe  Fe104     1.0  0.29588  0.30962  0.99198  1.0000
  C   C806      1.0  0.05155  0.23929  0.31771  1.0000
  H   H968      1.0  0.33601  0.35924  0.11119  1.0000
  C   C807      1.0  0.23477  0.32887  0.00250  1.0000
  H   H969      1.0  0.03327  0.22840  0.32351  1.0000
  C   C808      1.0  0.08237  0.36902  0.27914  1.0000
  H   H970      1.0  0.12242  0.36102  0.18674  1.0000
  H   H971      1.0  0.08829  0.30441  0.45578  1.0000
  H   H972      1.0  0.13795  0.24891  0.39906  1.0000
  C   C809      1.0  0.26809  0.33612  0.04616  1.0000
  N   N53       1.0  0.41103  0.22845  0.03542  1.0000
  C   C810      1.0  0.06744  0.23198  0.33526  1.0000
  C   C811      1.0  0.13250  0.36014  0.17752  1.0000
  H   H973      1.0  0.04304  0.27479  0.34403  1.0000
  C   C812      1.0  0.07849  0.37678  0.26544  1.0000
  N   N54       1.0  0.11770  0.26407  0.39358  1.0000
  C   C813      1.0  0.16848  0.30454  0.32407  1.0000
  H   H974      1.0  0.25827  0.33188  0.04792  1.0000
  H   H975      1.0  0.14570  0.33170  0.18544  1.0000
  C   C814      1.0  0.05858  0.32879  0.25487  1.0000
  H   H976      1.0  0.13097  0.35282  0.17125  1.0000
  C   C815      1.0  0.03383  0.32804  0.24450  1.0000
  C   C816      1.0  0.06540  0.33908  0.27156  1.0000
  H   H977      1.0  0.08741  0.31440  0.27259  1.0000
  C   C817      1.0  0.17319  0.34698  0.14699  1.0000
  N   N55       1.0  0.44277  0.21531  0.13391  1.0000
  H   H978      1.0  0.26607  0.24525  0.10079  1.0000
  H   H979      1.0  0.14557  0.29243  0.40213  1.0000
  H   H980      1.0  0.20953  0.38188  0.21316  1.0000
  C   C818      1.0  0.22796  0.26180  0.12415  1.0000
  H   H981      1.0  0.14581  0.37556  0.18711  1.0000
  H   H982      1.0  0.12690  0.37152  0.31006  1.0000
  H   H983      1.0  0.99864  0.27057  0.33786  1.0000
  H   H984      1.0  0.23329  0.32977  0.99123  1.0000
  C   C819      1.0  0.01589  0.29437  0.34389  1.0000
  C   C820      1.0  0.10459  0.37795  0.27615  1.0000
  C   C821      1.0  0.03848  0.26558  0.34354  1.0000
  C   C822      1.0  0.01325  0.28042  0.34451  1.0000
  S   S224      1.0  0.15777  0.37521  0.22086  1.0000
  Fe  Fe105     1.0  0.38378  0.38046  0.12636  1.0000
  H   H985      1.0  0.36293  0.37880  0.16814  1.0000
  C   C823      1.0  0.14799  0.19929  0.47464  1.0000
  H   H986      1.0  0.49127  0.20449  0.13235  1.0000
  Fe  Fe106     1.0  0.16616  0.37689  0.23960  1.0000
  H   H987      1.0  0.03871  0.21377  0.34691  1.0000
  H   H988      1.0  0.13712  0.20198  0.47198  1.0000
  C   C824      1.0  0.11807  0.29981  0.98119  1.0000
  C   C825      1.0  0.14607  0.36383  0.19305  1.0000
  H   H989      1.0  0.31874  0.36307  0.15065  1.0000
  C   C826      1.0  0.07744  0.20315  0.35601  1.0000
  C   C827      1.0  0.05223  0.37755  0.27610  1.0000
  C   C828      1.0  0.13000  0.31698  0.98517  1.0000
  H   H990      1.0  0.08117  0.19665  0.36636  1.0000
  C   C829      1.0  0.49216  0.22297  0.09495  1.0000
  Fe  Fe107     1.0  0.43651  0.21463  0.97860  1.0000
  H   H991      1.0  0.08632  0.20922  0.34945  1.0000
  H   H992      1.0  0.99608  0.36290  0.21132  1.0000
  N   N56       1.0  0.12785  0.30156  0.98977  1.0000
  H   H993      1.0  0.11916  0.32507  0.98724  1.0000
  H   H994      1.0  0.07732  0.19524  0.34962  1.0000
  H   H995      1.0  0.21951  0.37612  0.22788  1.0000
  H   H996      1.0  0.24700  0.37534  0.22175  1.0000
  H   H997      1.0  0.23458  0.36895  0.19096  1.0000
  C   C830      1.0  0.24695  0.37376  0.21079  1.0000
  H   H998      1.0  0.19392  0.19001  0.44588  1.0000
  C   C831      1.0  0.22044  0.37594  0.21619  1.0000
  H   H999      1.0  0.09245  0.18985  0.46273  1.0000
  H   H1000     1.0  0.14139  0.27959  0.98938  1.0000
  H   H1001     1.0  0.34403  0.37883  0.11158  1.0000
  C   C832      1.0  0.10402  0.29591  0.98788  1.0000
  C   C833      1.0  0.32134  0.38316  0.12535  1.0000
  Fe  Fe108     1.0  0.46291  0.18720  0.08194  1.0000
  H   H1002     1.0  0.14838  0.22204  0.47212  1.0000
  C   C834      1.0  0.00142  0.28057  0.33817  1.0000
  H   H1003     1.0  0.08696  0.37970  0.25573  1.0000
  H   H1004     1.0  0.10791  0.37738  0.31891  1.0000
  C   C835      1.0  0.08187  0.38047  0.21636  1.0000
  S   S225      1.0  0.49454  0.26695  0.12167  1.0000
  S   S226      1.0  0.44852  0.18684  0.10458  1.0000
  H   H1005     1.0  0.48344  0.27645  0.17246  1.0000
  H   H1006     1.0  0.49207  0.28219  0.14440  1.0000
  C   C836      1.0  0.11754  0.38139  0.31070  1.0000
  C   C837      1.0  0.18700  0.18526  0.44215  1.0000
  C   C838      1.0  0.09520  0.29419  0.97937  1.0000
  Fe  Fe109     1.0  0.17611  0.30713  0.97864  1.0000
  H   H1007     1.0  0.49408  0.30981  0.14894  1.0000
  C   C839      1.0  0.15431  0.21067  0.47483  1.0000
  Fe  Fe110     1.0  0.99596  0.21425  0.36342  1.0000
  C   C840      1.0  0.49384  0.20956  0.09099  1.0000
  C   C841      1.0  0.19000  0.18638  0.60867  1.0000
  H   H1008     1.0  0.07558  0.23039  0.74518  1.0000
  Fe  Fe111     1.0  0.19987  0.37756  0.81249  1.0000
  H   H1009     1.0  0.48638  0.22994  0.95081  1.0000
  Fe  Fe112     1.0  0.28378  0.36482  0.84686  1.0000
  H   H1010     1.0  0.12787  0.23612  0.69085  1.0000
  H   H1011     1.0  0.20561  0.20011  0.60511  1.0000
  C   C842      1.0  0.14135  0.20013  0.54269  1.0000
  H   H1012     1.0  0.49452  0.32670  0.85364  1.0000
  Fe  Fe113     1.0  0.00712  0.26464  0.74818  1.0000
  S   S227      1.0  0.02851  0.27222  0.73905  1.0000
  H   H1013     1.0  0.31424  0.36961  0.88061  1.0000
  H   H1014     1.0  0.00013  0.31756  0.91256  1.0000
  S   S228      1.0  0.48310  0.28775  0.90645  1.0000
  H   H1015     1.0  0.41724  0.18456  0.95519  1.0000
  C   C843      1.0  0.34203  0.37447  0.81705  1.0000
  C   C844      1.0  0.15296  0.21323  0.51892  1.0000
  C   C845      1.0  0.22278  0.38002  0.74520  1.0000
  H   H1016     1.0  0.48026  0.20717  0.88222  1.0000
  S   S229      1.0  0.18563  0.37577  0.76672  1.0000
  Fe  Fe114     1.0  0.01119  0.28202  0.86579  1.0000
  S   S230      1.0  0.03515  0.27400  0.86803  1.0000
  C   C846      1.0  0.19399  0.19939  0.60854  1.0000
  H   H1017     1.0  0.19726  0.38115  0.87619  1.0000
  H   H1018     1.0  0.21414  0.33846  0.86063  1.0000
  Fe  Fe115     1.0  0.26810  0.34543  0.87373  1.0000
  S   S231      1.0  0.29084  0.34141  0.85885  1.0000
  S   S232      1.0  0.25565  0.32717  0.88139  1.0000
  S   S233      1.0  0.41862  0.35306  0.90409  1.0000
  C   C847      1.0  0.05350  0.22521  0.75587  1.0000
  H   H1019     1.0  0.11756  0.30170  0.94527  1.0000
  H   H1020     1.0  0.03886  0.20361  0.75840  1.0000
  C   C848      1.0  0.11593  0.23681  0.83380  1.0000
  Fe  Fe116     1.0  0.28413  0.31442  0.96483  1.0000
  C   C849      1.0  0.05694  0.23566  0.77912  1.0000
  S   S234      1.0  0.26389  0.32081  0.95535  1.0000
  Fe  Fe117     1.0  0.31464  0.29466  0.96722  1.0000
  H   H1021     1.0  0.15996  0.18404  0.52184  1.0000
  C   C850      1.0  0.14860  0.21566  0.70336  1.0000
  H   H1022     1.0  0.03317  0.27070  0.91534  1.0000
  Fe  Fe118     1.0  0.30971  0.32780  0.96312  1.0000
  C   C851      1.0  0.13438  0.28438  0.81047  1.0000
  H   H1023     1.0  0.33950  0.33023  0.96787  1.0000
  S   S235      1.0  0.30668  0.31377  0.94976  1.0000
  H   H1024     1.0  0.40119  0.28233  0.94399  1.0000
  H   H1025     1.0  0.47347  0.24471  0.97711  1.0000
  H   H1026     1.0  0.34865  0.36409  0.81344  1.0000
  H   H1027     1.0  0.23493  0.37484  0.74376  1.0000
  Fe  Fe119     1.0  0.26965  0.37580  0.87487  1.0000
  C   C852      1.0  0.16264  0.28436  0.78217  1.0000
  S   S236      1.0  0.40780  0.21690  0.95598  1.0000
  S   S237      1.0  0.12443  0.19220  0.67066  1.0000
  H   H1028     1.0  0.33197  0.37796  0.81220  1.0000
  H   H1029     1.0  0.43924  0.29453  0.93847  1.0000
  C   C853      1.0  0.10067  0.19851  0.74394  1.0000
  S   S238      1.0  0.43352  0.23214  0.95835  1.0000
  S   S239      1.0  0.43802  0.19609  0.96829  1.0000
  C   C854      1.0  0.11370  0.30019  0.95718  1.0000
  Fe  Fe120     1.0  0.18036  0.33520  0.71058  1.0000
  S   S240      1.0  0.16048  0.35414  0.70917  1.0000
  S   S241      1.0  0.19262  0.32890  0.72916  1.0000
  Fe  Fe121     1.0  0.17793  0.32584  0.68343  1.0000
  S   S242      1.0  0.15818  0.34447  0.67968  1.0000
  S   S243      1.0  0.18628  0.30640  0.67211  1.0000
  Fe  Fe122     1.0  0.17067  0.35834  0.68485  1.0000
  S   S244      1.0  0.00323  0.24691  0.76863  1.0000
  Fe  Fe123     1.0  0.15002  0.33856  0.70423  1.0000
  S   S245      1.0  0.12637  0.33608  0.71391  1.0000
  S   S246      1.0  0.19137  0.34023  0.68645  1.0000
  S   S247      1.0  0.16894  0.31908  0.70779  1.0000
  Fe  Fe124     1.0  0.15951  0.28056  0.61494  1.0000
  S   S248      1.0  0.13908  0.28422  0.60614  1.0000
  S   S249      1.0  0.16116  0.30171  0.61965  1.0000
  Fe  Fe125     1.0  0.16948  0.24838  0.61141  1.0000
  S   S250      1.0  0.14978  0.24976  0.60243  1.0000
  Fe  Fe126     1.0  0.15390  0.27187  0.58900  1.0000
  S   S251      1.0  0.15563  0.28089  0.56446  1.0000
  Fe  Fe127     1.0  0.13696  0.26198  0.62042  1.0000
  S   S252      1.0  0.11508  0.25847  0.63539  1.0000
  S   S253      1.0  0.17463  0.26971  0.59669  1.0000
  S   S254      1.0  0.15633  0.25900  0.63053  1.0000
  C   C855      1.0  0.35091  0.36632  0.87986  1.0000
  S   S255      1.0  0.05714  0.27083  0.79093  1.0000
  Fe  Fe128     1.0  0.11140  0.27255  0.77815  1.0000
  S   S256      1.0  0.12288  0.29069  0.77530  1.0000
  S   S257      1.0  0.09509  0.26711  0.79941  1.0000
  Fe  Fe129     1.0  0.20481  0.34539  0.81211  1.0000
  S   S258      1.0  0.21649  0.34834  0.78822  1.0000
  S   S259      1.0  0.20102  0.32319  0.82553  1.0000
  C   C856      1.0  0.14589  0.18573  0.55126  1.0000
  H   H1030     1.0  0.99858  0.18763  0.71943  1.0000
  S   S260      1.0  0.39631  0.25701  0.96791  1.0000
  Fe  Fe130     1.0  0.19778  0.36831  0.78539  1.0000
  H   H1031     1.0  0.05825  0.23980  0.78791  1.0000
  Fe  Fe131     1.0  0.22783  0.36293  0.79371  1.0000
  S   S261      1.0  0.25130  0.36570  0.78331  1.0000
  S   S262      1.0  0.18540  0.36472  0.80912  1.0000
  S   S263      1.0  0.21802  0.35790  0.81803  1.0000
  Fe  Fe132     1.0  0.12320  0.30475  0.87838  1.0000
  S   S264      1.0  0.11301  0.32255  0.86107  1.0000
  S   S265      1.0  0.13326  0.31469  0.89096  1.0000
  Fe  Fe133     1.0  0.11759  0.28053  0.86718  1.0000
  S   S266      1.0  0.10745  0.29660  0.84901  1.0000
  S   S267      1.0  0.12041  0.25593  0.87033  1.0000
  Fe  Fe134     1.0  0.12610  0.30778  0.84555  1.0000
  S   S268      1.0  0.13809  0.31732  0.82269  1.0000
  Fe  Fe135     1.0  0.09540  0.30956  0.86640  1.0000
  S   S269      1.0  0.07094  0.31999  0.86807  1.0000
  S   S270      1.0  0.13738  0.29065  0.86242  1.0000
  S   S271      1.0  0.10432  0.29287  0.88507  1.0000
  Fe  Fe136     1.0  0.18960  0.31871  0.94611  1.0000
  S   S272      1.0  0.19614  0.29619  0.94103  1.0000
  S   S273      1.0  0.19488  0.33849  0.92815  1.0000
  C   C857      1.0  0.12774  0.21034  0.52301  1.0000
  H   H1032     1.0  0.09326  0.29484  0.95751  1.0000
  Fe  Fe137     1.0  0.20367  0.28884  0.96232  1.0000
  S   S274      1.0  0.22597  0.27396  0.96457  1.0000
  Fe  Fe138     1.0  0.17355  0.29362  0.95471  1.0000
  S   S275      1.0  0.15956  0.28230  0.94798  1.0000
  S   S276      1.0  0.19863  0.31158  0.96669  1.0000
  S   S277      1.0  0.16621  0.31675  0.95843  1.0000
  Fe  Fe139     1.0  0.13573  0.25822  0.50330  1.0000
  C   C858      1.0  0.13554  0.21186  0.55031  1.0000
  S   S278      1.0  0.12806  0.25364  0.52826  1.0000
  C   C859      1.0  0.44171  0.28404  0.94620  1.0000
  S   S279      1.0  0.13546  0.24026  0.49298  1.0000
  H   H1033     1.0  0.01047  0.31119  0.64794  1.0000
  H   H1034     1.0  0.29496  0.29455  0.89698  1.0000
  Fe  Fe140     1.0  0.15842  0.24277  0.48036  1.0000
  C   C860      1.0  0.13968  0.30552  0.90728  1.0000
  C   C861      1.0  0.14522  0.31348  0.91387  1.0000
  C   C862      1.0  0.15098  0.30654  0.92657  1.0000
  C   C863      1.0  0.15139  0.29153  0.93269  1.0000
  C   C864      1.0  0.14556  0.28362  0.92631  1.0000
  C   C865      1.0  0.13978  0.29057  0.91357  1.0000
  H   H1035     1.0  0.14503  0.32509  0.90916  1.0000
  H   H1036     1.0  0.15524  0.31279  0.93154  1.0000
  H   H1037     1.0  0.14577  0.27200  0.93107  1.0000
  H   H1038     1.0  0.13549  0.28436  0.90857  1.0000
  C   C866      1.0  0.18461  0.32035  0.82321  1.0000
  C   C867      1.0  0.17709  0.33023  0.81260  1.0000
  C   C868      1.0  0.16285  0.32918  0.81233  1.0000
  C   C869      1.0  0.15625  0.31807  0.82249  1.0000
  C   C870      1.0  0.16422  0.30762  0.83243  1.0000
  C   C871      1.0  0.17839  0.30873  0.83278  1.0000
  H   H1039     1.0  0.18216  0.33875  0.80466  1.0000
  H   H1040     1.0  0.15680  0.33725  0.80455  1.0000
  H   H1041     1.0  0.15961  0.29856  0.83972  1.0000
  H   H1042     1.0  0.18433  0.30079  0.84072  1.0000
  C   C872      1.0  0.11852  0.24889  0.85614  1.0000
  C   C873      1.0  0.11459  0.25817  0.84317  1.0000
  C   C874      1.0  0.10745  0.21991  0.66270  1.0000
  H   H1043     1.0  0.11243  0.26997  0.84175  1.0000
  H   H1044     1.0  0.31793  0.36522  0.83498  1.0000
  C   C875      1.0  0.14747  0.27358  0.55461  1.0000
  C   C876      1.0  0.15158  0.27667  0.53912  1.0000
  C   C877      1.0  0.14566  0.27065  0.53094  1.0000
  C   C878      1.0  0.13548  0.26159  0.53819  1.0000
  C   C879      1.0  0.13125  0.25862  0.55369  1.0000
  C   C880      1.0  0.13724  0.26457  0.56189  1.0000
  H   H1045     1.0  0.15943  0.28369  0.53340  1.0000
  H   H1046     1.0  0.14889  0.27313  0.51900  1.0000
  H   H1047     1.0  0.12324  0.25177  0.55935  1.0000
  H   H1048     1.0  0.13383  0.26232  0.57381  1.0000
  C   C881      1.0  0.11747  0.23997  0.64488  1.0000
  H   H1049     1.0  0.32770  0.38052  0.93692  1.0000
  C   C882      1.0  0.10542  0.23473  0.65498  1.0000
  H   H1050     1.0  0.14081  0.23448  0.63475  1.0000
  H   H1051     1.0  0.09454  0.24212  0.65681  1.0000
  C   C883      1.0  0.36064  0.34993  0.93035  1.0000
  C   C884      1.0  0.12541  0.32313  0.73078  1.0000
  C   C885      1.0  0.13722  0.31893  0.73800  1.0000
  C   C886      1.0  0.13645  0.30863  0.75150  1.0000
  C   C887      1.0  0.12386  0.30258  0.75787  1.0000
  C   C888      1.0  0.11206  0.30662  0.75063  1.0000
  C   C889      1.0  0.11281  0.31698  0.73709  1.0000
  H   H1052     1.0  0.14677  0.32394  0.73339  1.0000
  H   H1053     1.0  0.14556  0.30530  0.75709  1.0000
  H   H1054     1.0  0.10221  0.30210  0.75565  1.0000
  H   H1055     1.0  0.10358  0.32033  0.73160  1.0000
  C   C890      1.0  0.19186  0.34249  0.73851  1.0000
  C   C891      1.0  0.18445  0.35723  0.73431  1.0000
  C   C892      1.0  0.18275  0.36743  0.74292  1.0000
  C   C893      1.0  0.18838  0.36293  0.75579  1.0000
  C   C894      1.0  0.19588  0.34824  0.75990  1.0000
  C   C895      1.0  0.19772  0.33810  0.75124  1.0000
  H   H1056     1.0  0.17992  0.36076  0.72451  1.0000
  C   C896      1.0  0.04403  0.23095  0.78051  1.0000
  H   H1057     1.0  0.20008  0.34457  0.76988  1.0000
  H   H1058     1.0  0.20340  0.32671  0.75459  1.0000
  C   C897      1.0  0.17892  0.30522  0.65773  1.0000
  C   C898      1.0  0.17024  0.31761  0.65006  1.0000
  C   C899      1.0  0.16490  0.31634  0.63841  1.0000
  C   C900      1.0  0.16792  0.30264  0.63453  1.0000
  C   C901      1.0  0.17633  0.29018  0.64238  1.0000
  C   C902      1.0  0.18189  0.29150  0.65388  1.0000
  H   H1059     1.0  0.16793  0.32823  0.65290  1.0000
  H   H1060     1.0  0.15841  0.32603  0.63236  1.0000
  H   H1061     1.0  0.17879  0.27963  0.63939  1.0000
  H   H1062     1.0  0.18864  0.28189  0.65974  1.0000
  H   H1063     1.0  0.47912  0.29173  0.87664  1.0000
  H   H1064     1.0  0.14093  0.26720  0.79196  1.0000
  H   H1065     1.0  0.13518  0.32002  0.97325  1.0000
  H   H1066     1.0  0.03211  0.22223  0.77062  1.0000
  H   H1067     1.0  0.14438  0.20821  0.64804  1.0000
  C   C903      1.0  0.00124  0.19881  0.73464  1.0000
  C   C904      1.0  0.04663  0.21853  0.67157  1.0000
  C   C905      1.0  0.13128  0.22553  0.68713  1.0000
  H   H1068     1.0  0.14915  0.19234  0.50814  1.0000
  H   H1069     1.0  0.15197  0.23200  0.56183  1.0000
  H   H1070     1.0  0.09311  0.19539  0.76758  1.0000
  H   H1071     1.0  0.18705  0.23014  0.53289  1.0000
  H   H1072     1.0  0.11807  0.22591  0.72202  1.0000
  C   C906      1.0  0.34782  0.26902  0.96352  1.0000
  H   H1073     1.0  0.48293  0.25915  0.92996  1.0000
  C   C907      1.0  0.47492  0.23714  0.95224  1.0000
  H   H1074     1.0  0.36025  0.37264  0.83442  1.0000
  C   C908      1.0  0.37151  0.25107  0.96372  1.0000
  C   C909      1.0  0.35658  0.25487  0.96240  1.0000
  C   C910      1.0  0.03795  0.22941  0.73854  1.0000
  H   H1075     1.0  0.17688  0.31965  0.85720  1.0000
  H   H1076     1.0  0.18384  0.25210  0.65024  1.0000
  H   H1077     1.0  0.04777  0.19990  0.74068  1.0000
  H   H1078     1.0  0.17696  0.37879  0.73961  1.0000
  C   C911      1.0  0.34540  0.33566  0.95738  1.0000
  C   C912      1.0  0.36103  0.33331  0.95429  1.0000
  H   H1079     1.0  0.00387  0.31382  0.67381  1.0000
  C   C913      1.0  0.13150  0.23041  0.64245  1.0000
  H   H1080     1.0  0.36720  0.32600  0.96238  1.0000
  C   C914      1.0  0.25445  0.30701  0.95733  1.0000
  C   C915      1.0  0.24276  0.31050  0.95006  1.0000
  C   C916      1.0  0.23466  0.29995  0.95166  1.0000
  C   C917      1.0  0.23782  0.28604  0.96097  1.0000
  C   C918      1.0  0.24966  0.28239  0.96811  1.0000
  C   C919      1.0  0.25810  0.29286  0.96617  1.0000
  H   H1081     1.0  0.23982  0.32145  0.94328  1.0000
  H   H1082     1.0  0.22574  0.30273  0.94586  1.0000
  H   H1083     1.0  0.07456  0.21254  0.73420  1.0000
  C   C920      1.0  0.10924  0.35124  0.74820  1.0000
  H   H1084     1.0  0.17282  0.19819  0.57284  1.0000
  H   H1085     1.0  0.16470  0.36372  0.59872  1.0000
  C   C921      1.0  0.25743  0.36424  0.81012  1.0000
  H   H1086     1.0  0.16762  0.21273  0.66154  1.0000
  C   C922      1.0  0.46763  0.37408  0.87106  1.0000
  H   H1087     1.0  0.14866  0.29376  0.97519  1.0000
  C   C923      1.0  0.45979  0.26155  0.95466  1.0000
  H   H1088     1.0  0.24799  0.35920  0.81535  1.0000
  S   S280      1.0  0.15925  0.25984  0.49170  1.0000
  Fe  Fe141     1.0  0.10366  0.18880  0.68773  1.0000
  C   C924      1.0  0.23957  0.33038  0.89526  1.0000
  C   C925      1.0  0.23306  0.31852  0.90361  1.0000
  C   C926      1.0  0.21972  0.32088  0.91418  1.0000
  C   C927      1.0  0.21264  0.33515  0.91633  1.0000
  C   C928      1.0  0.21941  0.34700  0.90825  1.0000
  C   C929      1.0  0.23301  0.34457  0.89787  1.0000
  H   H1089     1.0  0.23838  0.30746  0.90191  1.0000
  H   H1090     1.0  0.21484  0.31166  0.92043  1.0000
  H   H1091     1.0  0.21413  0.35803  0.91007  1.0000
  H   H1092     1.0  0.23833  0.35365  0.89174  1.0000
  H   H1093     1.0  0.04310  0.21627  0.65133  1.0000
  S   S281      1.0  0.00439  0.21323  0.75387  1.0000
  H   H1094     1.0  0.17558  0.34360  0.83974  1.0000
  C   C930      1.0  0.06806  0.23541  0.76625  1.0000
  C   C931      1.0  0.46448  0.21219  0.92510  1.0000
  C   C932      1.0  0.48879  0.21007  0.87257  1.0000
  H   H1095     1.0  0.44601  0.37363  0.89568  1.0000
  H   H1096     1.0  0.18947  0.24176  0.54979  1.0000
  C   C933      1.0  0.17623  0.19258  0.48102  1.0000
  H   H1097     1.0  0.22041  0.37470  0.88275  1.0000
  C   C934      1.0  0.18494  0.34533  0.88918  1.0000
  C   C935      1.0  0.48460  0.20831  0.93744  1.0000
  H   H1098     1.0  0.35776  0.35463  0.83552  1.0000
  H   H1099     1.0  0.46462  0.27990  0.93579  1.0000
  C   C936      1.0  0.49333  0.22341  0.86982  1.0000
  S   S282      1.0  0.32943  0.27370  0.96098  1.0000
  C   C937      1.0  0.04479  0.28699  0.86818  1.0000
  C   C938      1.0  0.05988  0.28224  0.86888  1.0000
  C   C939      1.0  0.06796  0.29235  0.86875  1.0000
  C   C940      1.0  0.06095  0.30727  0.86805  1.0000
  C   C941      1.0  0.04580  0.31203  0.86753  1.0000
  C   C942      1.0  0.03773  0.30190  0.86757  1.0000
  H   H1100     1.0  0.06539  0.27070  0.86961  1.0000
  H   H1101     1.0  0.07957  0.28854  0.86942  1.0000
  H   H1102     1.0  0.04034  0.32356  0.86707  1.0000
  H   H1103     1.0  0.02610  0.30568  0.86710  1.0000
  H   H1104     1.0  0.01615  0.25110  0.83141  1.0000
  C   C943      1.0  0.03619  0.27246  0.75341  1.0000
  C   C944      1.0  0.02736  0.27241  0.76768  1.0000
  C   C945      1.0  0.03375  0.27232  0.77913  1.0000
  C   C946      1.0  0.04901  0.27203  0.77634  1.0000
  C   C947      1.0  0.05775  0.27217  0.76206  1.0000
  C   C948      1.0  0.05133  0.27249  0.75058  1.0000
  H   H1105     1.0  0.01559  0.27256  0.76988  1.0000
  H   H1106     1.0  0.02692  0.27224  0.79016  1.0000
  H   H1107     1.0  0.06949  0.27191  0.75980  1.0000
  H   H1108     1.0  0.05819  0.27250  0.73957  1.0000
  C   C949      1.0  0.48039  0.25048  0.96700  1.0000
  H   H1109     1.0  0.14517  0.28411  0.64884  1.0000
  H   H1110     1.0  0.14775  0.36911  0.58174  1.0000
  C   C950      1.0  0.18723  0.19409  0.53769  1.0000
  S   S283      1.0  0.09302  0.23915  0.78759  1.0000
  Fe  Fe142     1.0  0.41322  0.20013  0.97638  1.0000
  H   H1111     1.0  0.12321  0.21860  0.69411  1.0000
  S   S284      1.0  0.40714  0.36982  0.87324  1.0000
  H   H1112     1.0  0.01333  0.19589  0.73176  1.0000
  H   H1113     1.0  0.46371  0.36476  0.90018  1.0000
  S   S285      1.0  0.38523  0.37488  0.90529  1.0000
  H   H1114     1.0  0.05046  0.31769  0.89944  1.0000
  H   H1115     1.0  0.47040  0.23779  0.94260  1.0000
  C   C951      1.0  0.10005  0.29629  0.96406  1.0000
  H   H1116     1.0  0.15628  0.28057  0.77689  1.0000
  S   S286      1.0  0.17589  0.22154  0.47941  1.0000
  C   C952      1.0  0.32819  0.36154  0.83951  1.0000
  H   H1117     1.0  0.47581  0.34971  0.85532  1.0000
  H   H1118     1.0  0.14760  0.20366  0.67404  1.0000
  C   C953      1.0  0.43331  0.26575  0.96743  1.0000
  S   S287      1.0  0.09201  0.20460  0.70258  1.0000
  H   H1119     1.0  0.43754  0.32573  0.90269  1.0000
  H   H1120     1.0  0.20818  0.29683  0.84777  1.0000
  C   C954      1.0  0.10363  0.21406  0.75847  1.0000
  H   H1121     1.0  0.33386  0.35048  0.83699  1.0000
  C   C955      1.0  0.47005  0.29916  0.88232  1.0000
  N   N57       1.0  0.17481  0.22738  0.56354  1.0000
  H   H1122     1.0  0.41642  0.31250  0.90418  1.0000
  H   H1123     1.0  0.42033  0.26183  0.93569  1.0000
  C   C956      1.0  0.13428  0.20932  0.56554  1.0000
  N   N58       1.0  0.14263  0.20314  0.52654  1.0000
  H   H1124     1.0  0.15770  0.25504  0.79718  1.0000
  Fe  Fe143     1.0  0.08208  0.26323  0.78548  1.0000
  H   H1125     1.0  0.21064  0.27135  0.90439  1.0000
  H   H1126     1.0  0.17400  0.25035  0.56218  1.0000
  H   H1127     1.0  0.46968  0.21993  0.90153  1.0000
  H   H1128     1.0  0.19577  0.31084  0.90651  1.0000
  H   H1129     1.0  0.18074  0.30228  0.91699  1.0000
  H   H1130     1.0  0.13188  0.22312  0.54450  1.0000
  H   H1131     1.0  0.12954  0.21845  0.57111  1.0000
  C   C957      1.0  0.27882  0.37198  0.81205  1.0000
  C   C958      1.0  0.27390  0.37462  0.78801  1.0000
  H   H1132     1.0  0.19201  0.28974  0.87165  1.0000
  N   N59       1.0  0.14737  0.33833  0.76827  1.0000
  C   C959      1.0  0.14591  0.32701  0.78234  1.0000
  C   C960      1.0  0.16043  0.33191  0.75766  1.0000
  C   C961      1.0  0.15053  0.35133  0.77116  1.0000
  C   C962      1.0  0.13396  0.34298  0.76186  1.0000
  C   C963      1.0  0.13378  0.35352  0.74824  1.0000
  C   C964      1.0  0.12100  0.33702  0.76854  1.0000
  C   C965      1.0  0.12164  0.35746  0.74150  1.0000
  C   C966      1.0  0.10887  0.34112  0.76173  1.0000
  H   H1133     1.0  0.47735  0.37456  0.87497  1.0000
  H   H1134     1.0  0.15622  0.32363  0.78676  1.0000
  H   H1135     1.0  0.12808  0.21174  0.51108  1.0000
  H   H1136     1.0  0.14398  0.31672  0.78085  1.0000
  H   H1137     1.0  0.17079  0.32840  0.76198  1.0000
  H   H1138     1.0  0.18683  0.37095  0.69642  1.0000
  H   H1139     1.0  0.15871  0.32213  0.75506  1.0000
  C   C967      1.0  0.16704  0.22285  0.66460  1.0000
  C   C968      1.0  0.01990  0.20906  0.68511  1.0000
  H   H1140     1.0  0.15321  0.35976  0.76087  1.0000
  H   H1141     1.0  0.14322  0.35851  0.74245  1.0000
  H   H1142     1.0  0.12009  0.32882  0.77879  1.0000
  H   H1143     1.0  0.18042  0.33859  0.60465  1.0000
  H   H1144     1.0  0.09935  0.33604  0.76672  1.0000
  H   H1145     1.0  0.37382  0.28368  0.96898  1.0000
  H   H1146     1.0  0.18001  0.31335  0.89875  1.0000
  S   S288      1.0  0.31886  0.33840  0.88141  1.0000
  S   S289      1.0  0.18182  0.28376  0.97572  1.0000
  H   H1147     1.0  0.17435  0.29252  0.89326  1.0000
  H   H1148     1.0  0.11812  0.31518  0.70516  1.0000
  H   H1149     1.0  0.27703  0.37786  0.77609  1.0000
  C   C969      1.0  0.16837  0.20736  0.47817  1.0000
  H   H1150     1.0  0.21239  0.28605  0.91136  1.0000
  C   C970      1.0  0.33745  0.34533  0.94699  1.0000
  C   C971      1.0  0.14965  0.20298  0.68498  1.0000
  C   C972      1.0  0.13350  0.21557  0.65002  1.0000
  H   H1151     1.0  0.14080  0.35683  0.77873  1.0000
  H   H1152     1.0  0.03897  0.24116  0.73480  1.0000
  H   H1153     1.0  0.15489  0.21513  0.50672  1.0000
  H   H1154     1.0  0.48009  0.26150  0.96874  1.0000
  N   N60       1.0  0.16186  0.32077  0.57441  1.0000
  C   C973      1.0  0.16317  0.32573  0.55818  1.0000
  C   C974      1.0  0.17338  0.30688  0.57701  1.0000
  C   C975      1.0  0.14700  0.31721  0.58136  1.0000
  C   C976      1.0  0.16329  0.33256  0.58065  1.0000
  C   C977      1.0  0.17285  0.32988  0.59051  1.0000
  C   C978      1.0  0.15421  0.34704  0.57774  1.0000
  C   C979      1.0  0.17331  0.34105  0.59688  1.0000
  C   C980      1.0  0.15486  0.35817  0.58406  1.0000
  C   C981      1.0  0.16439  0.35516  0.59362  1.0000
  H   H1155     1.0  0.17380  0.32943  0.55265  1.0000
  H   H1156     1.0  0.16298  0.31664  0.55324  1.0000
  H   H1157     1.0  0.15378  0.33491  0.55514  1.0000
  H   H1158     1.0  0.18487  0.30889  0.57247  1.0000
  H   H1159     1.0  0.17240  0.29840  0.57173  1.0000
  H   H1160     1.0  0.17217  0.30166  0.58897  1.0000
  H   H1161     1.0  0.14558  0.30795  0.57748  1.0000
  H   H1162     1.0  0.14546  0.31388  0.59362  1.0000
  H   H1163     1.0  0.13771  0.32680  0.57889  1.0000
  H   H1164     1.0  0.17977  0.31913  0.59389  1.0000
  H   H1165     1.0  0.14626  0.34977  0.57083  1.0000
  H   H1166     1.0  0.26334  0.36226  0.83068  1.0000
  S   S290      1.0  0.49382  0.25077  0.89446  1.0000
  H   H1167     1.0  0.26717  0.29006  0.97173  1.0000
  N   N61       1.0  0.16417  0.34035  0.86288  1.0000
  H   H1168     1.0  0.02417  0.31885  0.90256  1.0000
  H   H1169     1.0  0.12833  0.26665  0.65830  1.0000
  H   H1170     1.0  0.14866  0.22432  0.52171  1.0000
  C   C982      1.0  0.17609  0.34179  0.86909  1.0000
  Fe  Fe144     1.0  0.43269  0.21393  0.94883  1.0000
  C   C983      1.0  0.17329  0.34472  0.88338  1.0000
  S   S291      1.0  0.18807  0.22788  0.61214  1.0000
  H   H1171     1.0  0.03527  0.23148  0.79041  1.0000
  C   C984      1.0  0.05657  0.29401  0.90554  1.0000
  S   S292      1.0  0.09347  0.18394  0.74295  1.0000
  C   C985      1.0  0.04231  0.22575  0.76909  1.0000
  C   C986      1.0  0.06645  0.23028  0.75477  1.0000
  C   C987      1.0  0.18264  0.28479  0.89958  1.0000
  N   N62       1.0  0.46131  0.36113  0.87996  1.0000
  C   C988      1.0  0.17929  0.21612  0.55448  1.0000
  S   S293      1.0  0.12518  0.27597  0.48618  1.0000
  H   H1172     1.0  0.12413  0.22627  0.86788  1.0000
  H   H1173     1.0  0.16224  0.34642  0.89039  1.0000
  Fe  Fe145     1.0  0.10922  0.24701  0.76686  1.0000
  H   H1174     1.0  0.19746  0.27688  0.92031  1.0000
  H   H1175     1.0  0.13312  0.30492  0.95967  1.0000
  N   N63       1.0  0.05132  0.21980  0.74390  1.0000
  C   C989      1.0  0.17897  0.29619  0.79402  1.0000
  C   C990      1.0  0.17337  0.29212  0.77286  1.0000
  C   C991      1.0  0.18163  0.29788  0.77877  1.0000
  C   C992      1.0  0.28252  0.37648  0.79666  1.0000
  C   C993      1.0  0.21037  0.29837  0.85760  1.0000
  H   H1176     1.0  0.11043  0.25941  0.82203  1.0000
  H   H1177     1.0  0.18511  0.30105  0.79861  1.0000
  H   H1178     1.0  0.17528  0.29371  0.76095  1.0000
  H   H1179     1.0  0.18997  0.30386  0.77150  1.0000
  N   N64       1.0  0.35251  0.30975  0.92071  1.0000
  C   C994      1.0  0.35938  0.32274  0.91351  1.0000
  C   C995      1.0  0.33990  0.31146  0.91378  1.0000
  C   C996      1.0  0.34643  0.31023  0.93650  1.0000
  C   C997      1.0  0.36311  0.29539  0.91951  1.0000
  C   C998      1.0  0.35814  0.28196  0.92562  1.0000
  C   C999      1.0  0.37849  0.29421  0.91248  1.0000
  C   C1000     1.0  0.36796  0.26823  0.92501  1.0000
  C   C1001     1.0  0.38818  0.28040  0.91175  1.0000
  C   C1002     1.0  0.38296  0.26743  0.91815  1.0000
  H   H1180     1.0  0.36426  0.32309  0.90158  1.0000
  H   H1181     1.0  0.35101  0.33337  0.91419  1.0000
  H   H1182     1.0  0.36825  0.32276  0.91893  1.0000
  H   H1183     1.0  0.34403  0.31015  0.90214  1.0000
  H   H1184     1.0  0.33219  0.32257  0.91362  1.0000
  H   H1185     1.0  0.33292  0.30324  0.91981  1.0000
  H   H1186     1.0  0.35550  0.30908  0.94216  1.0000
  H   H1187     1.0  0.33829  0.32083  0.93783  1.0000
  H   H1188     1.0  0.34038  0.30129  0.94263  1.0000
  H   H1189     1.0  0.34663  0.28194  0.93120  1.0000
  H   H1190     1.0  0.38338  0.30376  0.90755  1.0000
  H   H1191     1.0  0.36390  0.25813  0.93009  1.0000
  H   H1192     1.0  0.39985  0.27977  0.90637  1.0000
  H   H1193     1.0  0.39055  0.25674  0.91786  1.0000
  N   N65       1.0  0.04287  0.30277  0.81801  1.0000
  C   C1003     1.0  0.03978  0.30752  0.80293  1.0000
  C   C1004     1.0  0.04356  0.28667  0.82334  1.0000
  C   C1005     1.0  0.02992  0.31059  0.82779  1.0000
  C   C1006     1.0  0.05735  0.30569  0.81779  1.0000
  C   C1007     1.0  0.07043  0.30103  0.80730  1.0000
  C   C1008     1.0  0.05913  0.31249  0.82829  1.0000
  C   C1009     1.0  0.08429  0.30339  0.80709  1.0000
  C   C1010     1.0  0.07308  0.31463  0.82810  1.0000
  C   C1011     1.0  0.08561  0.31013  0.81751  1.0000
  H   H1194     1.0  0.04753  0.30059  0.79528  1.0000
  H   H1195     1.0  0.02841  0.30655  0.80299  1.0000
  H   H1196     1.0  0.04056  0.31925  0.79798  1.0000
  H   H1197     1.0  0.05338  0.28006  0.81691  1.0000
  H   H1198     1.0  0.03350  0.28368  0.82238  1.0000
  H   H1199     1.0  0.04442  0.28289  0.83513  1.0000
  H   H1200     1.0  0.02915  0.32275  0.82475  1.0000
  H   H1201     1.0  0.01912  0.30892  0.82702  1.0000
  H   H1202     1.0  0.03042  0.30640  0.83963  1.0000
  H   H1203     1.0  0.07008  0.29535  0.79926  1.0000
  H   H1204     1.0  0.04995  0.31621  0.83682  1.0000
  H   H1205     1.0  0.09409  0.29985  0.79887  1.0000
  H   H1206     1.0  0.07418  0.31976  0.83630  1.0000
  H   H1207     1.0  0.09637  0.31184  0.81744  1.0000
  Fe  Fe146     1.0  0.40905  0.23358  0.96760  1.0000
  Fe  Fe147     1.0  0.29754  0.35104  0.87394  1.0000
  N   N66       1.0  0.44146  0.26239  0.90946  1.0000
  C   C1012     1.0  0.43433  0.25043  0.90983  1.0000
  C   C1013     1.0  0.45039  0.26641  0.89421  1.0000
  C   C1014     1.0  0.45203  0.25650  0.91947  1.0000
  C   C1015     1.0  0.42989  0.27496  0.91443  1.0000
  C   C1016     1.0  0.41980  0.27268  0.92839  1.0000
  C   C1017     1.0  0.42828  0.28969  0.90579  1.0000
  C   C1018     1.0  0.40884  0.28438  0.93333  1.0000
  C   C1019     1.0  0.41736  0.30133  0.91093  1.0000
  C   C1020     1.0  0.40774  0.29871  0.92471  1.0000
  H   H1208     1.0  0.42545  0.25467  0.90336  1.0000
  H   H1209     1.0  0.44258  0.24126  0.90512  1.0000
  H   H1210     1.0  0.42926  0.24514  0.92125  1.0000
  H   H1211     1.0  0.45881  0.25666  0.89075  1.0000
  H   H1212     1.0  0.45685  0.27470  0.89331  1.0000
  H   H1213     1.0  0.44318  0.27088  0.88599  1.0000
  H   H1214     1.0  0.44631  0.25276  0.93112  1.0000
  H   H1215     1.0  0.46068  0.24676  0.91631  1.0000
  H   H1216     1.0  0.45791  0.26509  0.91915  1.0000
  H   H1217     1.0  0.43536  0.29258  0.89504  1.0000
  H   H1218     1.0  0.39939  0.30781  0.92871  1.0000
  N   N67       1.0  0.06762  0.24121  0.84905  1.0000
  C   C1021     1.0  0.06603  0.23787  0.86533  1.0000
  C   C1022     1.0  0.07849  0.22854  0.84350  1.0000
  C   C1023     1.0  0.07386  0.25466  0.84273  1.0000
  C   C1024     1.0  0.05342  0.24367  0.84448  1.0000
  C   C1025     1.0  0.03951  0.24313  0.85475  1.0000
  C   C1026     1.0  0.05321  0.24680  0.82926  1.0000
  C   C1027     1.0  0.02631  0.24566  0.85000  1.0000
  C   C1028     1.0  0.03991  0.24930  0.82465  1.0000
  C   C1029     1.0  0.02650  0.24881  0.83500  1.0000
  H   H1219     1.0  0.06174  0.22763  0.87080  1.0000
  H   H1220     1.0  0.07695  0.23608  0.86833  1.0000
  H   H1221     1.0  0.05842  0.24720  0.87021  1.0000
  H   H1222     1.0  0.07385  0.21841  0.84731  1.0000
  H   H1223     1.0  0.08909  0.22585  0.84733  1.0000
  H   H1224     1.0  0.08175  0.23078  0.83123  1.0000
  H   H1225     1.0  0.06554  0.26461  0.84579  1.0000
  H   H1226     1.0  0.08395  0.25369  0.84684  1.0000
  H   H1227     1.0  0.07735  0.25682  0.83049  1.0000
  H   H1228     1.0  0.03844  0.24111  0.86653  1.0000
  H   H1229     1.0  0.06331  0.24749  0.82077  1.0000
  H   H1230     1.0  0.01577  0.24541  0.85799  1.0000
  H   H1231     1.0  0.03998  0.25179  0.81298  1.0000
  C   C1030     1.0  0.19958  0.34315  0.88096  1.0000
  C   C1031     1.0  0.43026  0.27923  0.95754  1.0000
  H   H1232     1.0  0.14855  0.28095  0.70563  1.0000
  C   C1032     1.0  0.15275  0.26579  0.82226  1.0000
  H   H1233     1.0  0.16440  0.31795  0.87508  1.0000
  C   C1033     1.0  0.14844  0.18965  0.52029  1.0000
  H   H1234     1.0  0.18264  0.34740  0.90019  1.0000
  C   C1034     1.0  0.04641  0.30752  0.90322  1.0000
  C   C1035     1.0  0.06414  0.21972  0.73099  1.0000
  C   C1036     1.0  0.13900  0.19509  0.57359  1.0000
  C   C1037     1.0  0.34597  0.34258  0.88132  1.0000
  C   C1038     1.0  0.20423  0.28109  0.90922  1.0000
  H   H1235     1.0  0.19017  0.18565  0.53132  1.0000
  H   H1236     1.0  0.20607  0.38002  0.65491  1.0000
  C   C1039     1.0  0.45771  0.30907  0.90413  1.0000
  Fe  Fe148     1.0  0.09075  0.18412  0.72043  1.0000
  Fe  Fe149     1.0  0.38426  0.36680  0.88604  1.0000
  H   H1237     1.0  0.14195  0.19621  0.69312  1.0000
  C   C1040     1.0  0.47839  0.33783  0.89152  1.0000
  C   C1041     1.0  0.37775  0.26146  0.96605  1.0000
  C   C1042     1.0  0.49350  0.21395  0.92402  1.0000
  S   S294      1.0  0.00134  0.25385  0.73351  1.0000
  H   H1238     1.0  0.16640  0.26051  0.67206  1.0000
  Fe  Fe150     1.0  0.10767  0.24382  0.79955  1.0000
  C   C1043     1.0  0.20399  0.29611  0.88447  1.0000
  N   N68       1.0  0.28225  0.30702  0.91347  1.0000
  C   C1044     1.0  0.29382  0.31523  0.91198  1.0000
  C   C1045     1.0  0.28448  0.30306  0.89912  1.0000
  C   C1046     1.0  0.26748  0.31730  0.91634  1.0000
  C   C1047     1.0  0.28277  0.29344  0.92540  1.0000
  C   C1048     1.0  0.29353  0.28863  0.93434  1.0000
  C   C1049     1.0  0.27243  0.28439  0.92819  1.0000
  C   C1050     1.0  0.29378  0.27566  0.94540  1.0000
  C   C1051     1.0  0.27279  0.27143  0.93925  1.0000
  C   C1052     1.0  0.28343  0.26708  0.94785  1.0000
  H   H1239     1.0  0.30530  0.30843  0.90916  1.0000
  H   H1240     1.0  0.29310  0.32537  0.90297  1.0000
  H   H1241     1.0  0.29240  0.31902  0.92227  1.0000
  H   H1242     1.0  0.28514  0.31287  0.88972  1.0000
  H   H1243     1.0  0.27504  0.29874  0.89862  1.0000
  H   H1244     1.0  0.26576  0.32139  0.92645  1.0000
  H   H1245     1.0  0.26636  0.32717  0.90715  1.0000
  H   H1246     1.0  0.25801  0.31217  0.91775  1.0000
  H   H1247     1.0  0.30182  0.29473  0.93313  1.0000
  H   H1248     1.0  0.26381  0.28739  0.92199  1.0000
  H   H1249     1.0  0.30194  0.27232  0.95224  1.0000
  H   H1250     1.0  0.26445  0.26496  0.94151  1.0000
  H   H1251     1.0  0.28346  0.25721  0.95663  1.0000
  Fe  Fe151     1.0  0.39499  0.35096  0.91397  1.0000
  C   C1053     1.0  0.14883  0.34605  0.87100  1.0000
  C   C1054     1.0  0.33092  0.34922  0.88127  1.0000
  C   C1055     1.0  0.03127  0.30798  0.90494  1.0000
  H   H1252     1.0  0.36641  0.35517  0.91975  1.0000
  H   H1253     1.0  0.34980  0.36283  0.85112  1.0000
  H   H1254     1.0  0.06837  0.29377  0.90362  1.0000
  H   H1255     1.0  0.06599  0.23106  0.72560  1.0000
  H   H1256     1.0  0.35180  0.24684  0.96048  1.0000
  H   H1257     1.0  0.20858  0.34354  0.88550  1.0000
  H   H1258     1.0  0.45718  0.30926  0.91540  1.0000
  S   S295      1.0  0.27520  0.35353  0.88971  1.0000
  C   C1056     1.0  0.16407  0.19740  0.61768  1.0000
  S   S296      1.0  0.99632  0.30410  0.86815  1.0000
  S   S297      1.0  0.11379  0.22881  0.82043  1.0000
  C   C1057     1.0  0.11058  0.22277  0.74561  1.0000
  C   C1058     1.0  0.16574  0.32449  0.86349  1.0000
  H   H1259     1.0  0.13145  0.29134  0.79995  1.0000
  H   H1260     1.0  0.03619  0.22593  0.72919  1.0000
  S   S298      1.0  0.44575  0.21316  0.92584  1.0000
  H   H1261     1.0  0.99668  0.28545  0.90264  1.0000
  H   H1262     1.0  0.47150  0.37378  0.85916  1.0000
  H   H1263     1.0  0.17078  0.24691  0.54629  1.0000
  H   H1264     1.0  0.18394  0.22841  0.64509  1.0000
  S   S299      1.0  0.17113  0.38190  0.67263  1.0000
  Fe  Fe152     1.0  0.40870  0.37621  0.89326  1.0000
  H   H1265     1.0  0.00518  0.31434  0.89398  1.0000
  H   H1266     1.0  0.01441  0.28781  0.89063  1.0000
  C   C1059     1.0  0.15713  0.22710  0.67751  1.0000
  H   H1267     1.0  0.44438  0.35068  0.87973  1.0000
  C   C1060     1.0  0.09865  0.20198  0.75762  1.0000
  C   C1061     1.0  0.36901  0.27562  0.96716  1.0000
  C   C1062     1.0  0.45630  0.27542  0.94476  1.0000
  S   S300      1.0  0.09726  0.27097  0.76402  1.0000
  H   H1268     1.0  0.32462  0.35988  0.85174  1.0000
  H   H1269     1.0  0.00965  0.20527  0.69039  1.0000
  H   H1270     1.0  0.11007  0.20414  0.72066  1.0000
  H   H1271     1.0  0.21905  0.30418  0.89200  1.0000
  S   S301      1.0  0.39227  0.34273  0.89564  1.0000
  H   H1272     1.0  0.14424  0.31464  0.69515  1.0000
  H   H1273     1.0  0.14514  0.25831  0.82906  1.0000
  H   H1274     1.0  0.06232  0.21520  0.72243  1.0000
  N   N69       1.0  0.03221  0.26630  0.68983  1.0000
  C   C1063     1.0  0.04811  0.25944  0.68420  1.0000
  C   C1064     1.0  0.03152  0.27092  0.70349  1.0000
  C   C1065     1.0  0.02321  0.25495  0.69388  1.0000
  C   C1066     1.0  0.02632  0.27874  0.67843  1.0000
  C   C1067     1.0  0.02945  0.27744  0.66352  1.0000
  C   C1068     1.0  0.01665  0.29211  0.68188  1.0000
  C   C1069     1.0  0.02388  0.28907  0.65266  1.0000
  C   C1070     1.0  0.01105  0.30361  0.67096  1.0000
  C   C1071     1.0  0.01474  0.30214  0.65637  1.0000
  H   H1275     1.0  0.05494  0.26797  0.67913  1.0000
  H   H1276     1.0  0.05329  0.25136  0.69313  1.0000
  H   H1277     1.0  0.04950  0.25283  0.67596  1.0000
  H   H1278     1.0  0.03721  0.28022  0.70102  1.0000
  H   H1279     1.0  0.03703  0.26173  0.71147  1.0000
  H   H1280     1.0  0.01986  0.27427  0.70970  1.0000
  H   H1281     1.0  0.02697  0.24550  0.70272  1.0000
  H   H1282     1.0  0.01118  0.25966  0.69802  1.0000
  H   H1283     1.0  0.02411  0.25023  0.68431  1.0000
  H   H1284     1.0  0.03620  0.26742  0.66012  1.0000
  H   H1285     1.0  0.01329  0.29402  0.69294  1.0000
  H   H1286     1.0  0.02672  0.28797  0.64128  1.0000
  H   H1287     1.0  0.23486  0.31112  0.86770  1.0000
  S   S302      1.0  0.28642  0.33009  0.97679  1.0000
  C   C1072     1.0  0.18753  0.30516  0.90563  1.0000
  C   C1073     1.0  0.22546  0.30638  0.86875  1.0000
  H   H1288     1.0  0.02333  0.21158  0.70532  1.0000
  H   H1289     1.0  0.05886  0.19692  0.75395  1.0000
  C   C1074     1.0  0.36863  0.34053  0.94080  1.0000
  C   C1075     1.0  0.12257  0.30199  0.96556  1.0000
  H   H1290     1.0  0.16578  0.36031  0.84604  1.0000
  H   H1291     1.0  0.45003  0.35406  0.90256  1.0000
  S   S303      1.0  0.12501  0.24940  0.77905  1.0000
  H   H1292     1.0  0.21791  0.37393  0.74015  1.0000
  H   H1293     1.0  0.15713  0.32279  0.85876  1.0000
  C   C1076     1.0  0.18932  0.20835  0.53080  1.0000
  S   S304      1.0  0.11682  0.23815  0.74601  1.0000
  H   H1294     1.0  0.43925  0.37057  0.87544  1.0000
  S   S305      1.0  0.29018  0.37408  0.82251  1.0000
  H   H1295     1.0  0.12206  0.36501  0.73076  1.0000
  C   C1077     1.0  0.44785  0.25707  0.96613  1.0000
  H   H1296     1.0  0.14708  0.35788  0.87126  1.0000
  C   C1078     1.0  0.46995  0.20779  0.93803  1.0000
  C   C1079     1.0  0.03645  0.28120  0.91186  1.0000
  C   C1080     1.0  0.11977  0.22754  0.84680  1.0000
  C   C1081     1.0  0.20118  0.29431  0.87146  1.0000
  C   C1082     1.0  0.47385  0.21660  0.91154  1.0000
  H   H1297     1.0  0.18090  0.21209  0.58321  1.0000
  H   H1298     1.0  0.48756  0.26884  0.94101  1.0000
  H   H1299     1.0  0.11933  0.20364  0.52949  1.0000
  H   H1300     1.0  0.13966  0.25484  0.80928  1.0000
  C   C1083     1.0  0.32584  0.36441  0.88064  1.0000
  C   C1084     1.0  0.11820  0.30780  0.69813  1.0000
  H   H1301     1.0  0.01338  0.27300  0.90661  1.0000
  C   C1085     1.0  0.16833  0.28836  0.80342  1.0000
  H   H1302     1.0  0.18715  0.18998  0.48350  1.0000
  S   S306      1.0  0.00533  0.28255  0.84480  1.0000
  C   C1086     1.0  0.17743  0.24218  0.55500  1.0000
  C   C1087     1.0  0.46942  0.29935  0.89690  1.0000
  H   H1303     1.0  0.07796  0.23940  0.76501  1.0000
  H   H1304     1.0  0.30886  0.38121  0.93711  1.0000
  H   H1305     1.0  0.16047  0.21097  0.70419  1.0000
  H   H1306     1.0  0.16275  0.33986  0.74695  1.0000
  C   C1088     1.0  0.16018  0.28175  0.79782  1.0000
  C   C1089     1.0  0.17737  0.20146  0.56112  1.0000
  C   C1090     1.0  0.17647  0.24520  0.65780  1.0000
  C   C1091     1.0  0.12152  0.21037  0.66027  1.0000
  C   C1092     1.0  0.15701  0.24106  0.67979  1.0000
  C   C1093     1.0  0.04106  0.21720  0.68676  1.0000
  H   H1307     1.0  0.10212  0.21658  0.76907  1.0000
  C   C1094     1.0  0.10794  0.20703  0.73115  1.0000
  H   H1308     1.0  0.45184  0.36095  0.86203  1.0000
  H   H1309     1.0  0.02758  0.22903  0.74727  1.0000
  C   C1095     1.0  0.12331  0.27877  0.68964  1.0000
  H   H1310     1.0  0.00908  0.27789  0.93111  1.0000
  Fe  Fe153     1.0  0.99561  0.23718  0.75430  1.0000
  H   H1311     1.0  0.49296  0.31746  0.89994  1.0000
  H   H1312     1.0  0.46288  0.20423  0.94854  1.0000
  C   C1096     1.0  0.03876  0.21528  0.66310  1.0000
  H   H1313     1.0  0.37818  0.24011  0.96290  1.0000
  C   C1097     1.0  0.14403  0.30803  0.68746  1.0000
  H   H1314     1.0  0.15596  0.34854  0.84269  1.0000
  H   H1315     1.0  0.34740  0.29026  0.96695  1.0000
  H   H1316     1.0  0.19439  0.33641  0.85056  1.0000
  C   C1098     1.0  0.04910  0.20442  0.74953  1.0000
  H   H1317     1.0  0.14634  0.33949  0.88250  1.0000
  H   H1318     1.0  0.00605  0.23915  0.65810  1.0000
  C   C1099     1.0  0.13752  0.28868  0.70810  1.0000
  H   H1319     1.0  0.22168  0.37667  0.85706  1.0000
  C   C1100     1.0  0.14677  0.26222  0.80122  1.0000
  C   C1101     1.0  0.02758  0.21269  0.69353  1.0000
  C   C1102     1.0  0.44870  0.36083  0.87402  1.0000
  H   H1320     1.0  0.17618  0.28136  0.91103  1.0000
  H   H1321     1.0  0.15168  0.27351  0.82934  1.0000
  H   H1322     1.0  0.19389  0.21101  0.51897  1.0000
  C   C1103     1.0  0.45893  0.30870  0.87503  1.0000
  H   H1323     1.0  0.16128  0.19667  0.68539  1.0000
  H   H1324     1.0  0.18725  0.27456  0.89513  1.0000
  N   N70       1.0  0.13323  0.29824  0.69428  1.0000
  S   S307      1.0  0.36338  0.37758  0.87724  1.0000
  C   C1104     1.0  0.17502  0.18532  0.61343  1.0000
  H   H1325     1.0  0.18047  0.23086  0.58228  1.0000
  S   S308      1.0  0.26032  0.36800  0.86033  1.0000
  H   H1326     1.0  0.15593  0.21907  0.57853  1.0000
  H   H1327     1.0  0.16041  0.34817  0.77627  1.0000
  N   N71       1.0  0.33808  0.37224  0.83339  1.0000
  H   H1328     1.0  0.13666  0.33128  0.79112  1.0000
  H   H1329     1.0  0.12980  0.22814  0.67557  1.0000
  C   C1105     1.0  0.99969  0.24593  0.66604  1.0000
  H   H1330     1.0  0.16650  0.28774  0.81508  1.0000
  H   H1331     1.0  0.47423  0.34001  0.90247  1.0000
  S   S309      1.0  0.29264  0.37418  0.86047  1.0000
  C   C1106     1.0  0.47298  0.34734  0.87904  1.0000
  C   C1107     1.0  0.18527  0.38286  0.69334  1.0000
  C   C1108     1.0  0.18533  0.21929  0.53898  1.0000
  C   C1109     1.0  0.18120  0.19070  0.55279  1.0000
  H   H1332     1.0  0.15461  0.23824  0.57654  1.0000
  C   C1110     1.0  0.15864  0.22919  0.57041  1.0000
  C   C1111     1.0  0.21636  0.30234  0.88265  1.0000
  C   C1112     1.0  0.00073  0.30967  0.90584  1.0000
  H   H1333     1.0  0.15247  0.19662  0.62146  1.0000
  H   H1334     1.0  0.09809  0.21591  0.67045  1.0000
  S   S310      1.0  0.05123  0.22073  0.69732  1.0000
  C   C1113     1.0  0.16802  0.21051  0.61713  1.0000
  C   C1114     1.0  0.48616  0.25793  0.94052  1.0000
  H   H1335     1.0  0.33900  0.35941  0.92522  1.0000
  S   S311      1.0  0.01634  0.20564  0.65918  1.0000
  C   C1115     1.0  0.33583  0.37291  0.87996  1.0000
  C   C1116     1.0  0.47932  0.34305  0.86529  1.0000
  C   C1117     1.0  0.17656  0.23179  0.65497  1.0000
  C   C1118     1.0  0.12107  0.23355  0.85790  1.0000
  Fe  Fe154     1.0  0.00015  0.19167  0.67291  1.0000
  N   N72       1.0  0.19470  0.29182  0.89938  1.0000
  H   H1336     1.0  0.10961  0.30131  0.70444  1.0000
  H   H1337     1.0  0.16434  0.25890  0.82073  1.0000
  C   C1119     1.0  0.16545  0.34858  0.84723  1.0000
  H   H1338     1.0  0.15565  0.30154  0.68446  1.0000
  H   H1339     1.0  0.25208  0.27163  0.97537  1.0000
  C   C1120     1.0  0.11340  0.25216  0.83197  1.0000
  C   C1121     1.0  0.44719  0.31846  0.88228  1.0000
  H   H1340     1.0  0.16404  0.20853  0.52177  1.0000
  C   C1122     1.0  0.13273  0.28906  0.68451  1.0000
  H   H1341     1.0  0.14181  0.20792  0.71137  1.0000
  H   H1342     1.0  0.14940  0.24531  0.68903  1.0000
  H   H1343     1.0  0.14483  0.22607  0.70747  1.0000
  H   H1344     1.0  0.12348  0.22163  0.52534  1.0000
  C   C1123     1.0  0.34508  0.35238  0.93347  1.0000
  C   C1124     1.0  0.35403  0.27934  0.96605  1.0000
  C   C1125     1.0  0.13917  0.28252  0.66031  1.0000
  H   H1345     1.0  0.14012  0.34515  0.86586  1.0000
  C   C1126     1.0  0.12179  0.27077  0.68029  1.0000
  C   C1127     1.0  0.35209  0.36535  0.83884  1.0000
  C   C1128     1.0  0.05159  0.28088  0.90993  1.0000
  C   C1129     1.0  0.19122  0.33931  0.86120  1.0000
  N   N73       1.0  0.14878  0.27359  0.80777  1.0000
  C   C1130     1.0  0.22241  0.30446  0.85623  1.0000
  C   C1131     1.0  0.16663  0.24989  0.67011  1.0000
  C   C1132     1.0  0.02554  0.21033  0.66990  1.0000
  S   S312      1.0  0.31806  0.34821  0.95026  1.0000
  C   C1133     1.0  0.14073  0.29061  0.66954  1.0000
  Fe  Fe155     1.0  0.41539  0.34644  0.88495  1.0000
  C   C1134     1.0  0.12969  0.27267  0.66564  1.0000
  N   N74       1.0  0.14691  0.21790  0.68801  1.0000
  Fe  Fe156     1.0  0.07104  0.20170  0.69899  1.0000
  H   H1346     1.0  0.12921  0.28201  0.71488  1.0000
  H   H1347     1.0  0.05959  0.27039  0.91160  1.0000
  C   C1135     1.0  0.18329  0.22248  0.57542  1.0000
  H   H1348     1.0  0.12505  0.27882  0.81664  1.0000
  H   H1349     1.0  0.11420  0.26331  0.68431  1.0000
  C   C1136     1.0  0.18299  0.21150  0.61274  1.0000
  H   H1350     1.0  0.15951  0.21974  0.62041  1.0000
  C   C1137     1.0  0.45507  0.36342  0.89528  1.0000
  S   S313      1.0  0.38810  0.33763  0.93670  1.0000
  H   H1351     1.0  0.14811  0.29817  0.66458  1.0000
  N   N75       1.0  0.47506  0.25206  0.95351  1.0000
  C   C1138     1.0  0.20270  0.34025  0.86697  1.0000
  C   C1139     1.0  0.26137  0.36844  0.79468  1.0000
  H   H1352     1.0  0.45942  0.30852  0.86376  1.0000
  C   C1140     1.0  0.44664  0.31858  0.89685  1.0000
  H   H1353     1.0  0.22935  0.30774  0.84539  1.0000
  H   H1354     1.0  0.35001  0.33092  0.88138  1.0000
  C   C1141     1.0  0.26620  0.36593  0.81881  1.0000
  H   H1355     1.0  0.11672  0.27713  0.70084  1.0000
  H   H1356     1.0  0.11448  0.31504  0.68802  1.0000
  H   H1357     1.0  0.05708  0.22196  0.66636  1.0000
  C   C1142     1.0  0.11274  0.21919  0.73197  1.0000
  H   H1358     1.0  0.36766  0.34604  0.88020  1.0000
  H   H1359     1.0  0.13848  0.29538  0.71539  1.0000
  H   H1360     1.0  0.19556  0.22048  0.57079  1.0000
  H   H1361     1.0  0.14110  0.31626  0.67746  1.0000
  H   H1362     1.0  0.12176  0.21566  0.84831  1.0000
  C   C1143     1.0  0.02584  0.29476  0.90914  1.0000
  H   H1363     1.0  0.13479  0.29206  0.81693  1.0000
  H   H1364     1.0  0.13814  0.19312  0.58538  1.0000
  C   C1144     1.0  0.35596  0.35111  0.88067  1.0000
  S   S314      1.0  0.43307  0.32996  0.87311  1.0000
  H   H1365     1.0  0.00855  0.26500  0.65355  1.0000
  H   H1366     1.0  0.21749  0.37788  0.75719  1.0000
  C   C1145     1.0  0.00118  0.26043  0.66351  1.0000
  H   H1367     1.0  0.10009  0.35395  0.74267  1.0000
  S   S315      1.0  0.08277  0.18800  0.68210  1.0000
  H   H1368     1.0  0.29224  0.38118  0.79136  1.0000
  H   H1369     1.0  0.42429  0.26193  0.97607  1.0000
  H   H1370     1.0  0.99882  0.24107  0.82571  1.0000
  C   C1146     1.0  0.49012  0.32995  0.86418  1.0000
  C   C1147     1.0  0.48929  0.32482  0.89023  1.0000
  H   H1371     1.0  0.00426  0.29651  0.93364  1.0000
  C   C1148     1.0  0.00857  0.28483  0.90237  1.0000
  H   H1372     1.0  0.22002  0.37695  0.67390  1.0000
  H   H1373     1.0  0.49207  0.24382  0.96634  1.0000
  C   C1149     1.0  0.00337  0.28941  0.92675  1.0000
  H   H1374     1.0  0.41896  0.28593  0.95866  1.0000
  N   N76       1.0  0.00991  0.29479  0.91094  1.0000
  H   H1375     1.0  0.44964  0.24673  0.97416  1.0000
  H   H1376     1.0  0.48869  0.20514  0.94751  1.0000
  H   H1377     1.0  0.46813  0.23110  0.96222  1.0000
  H   H1378     1.0  0.48818  0.23087  0.87723  1.0000
  C   C1150     1.0  0.48836  0.21746  0.91102  1.0000
  S   S316      1.0  0.48913  0.18384  0.86682  1.0000
  H   H1379     1.0  0.99481  0.31451  0.70632  1.0000
  S   S317      1.0  0.21027  0.38326  0.78843  1.0000
  H   H1380     1.0  0.34873  0.38310  0.81195  1.0000
  C   C1151     1.0  0.15575  0.18452  0.47761  1.0000
  Fe  Fe157     1.0  0.45854  0.56809  0.13712  1.0000
  H   H1381     1.0  0.13900  0.52068  0.40728  1.0000
  S   S318      1.0  0.44485  0.55952  0.12695  1.0000
  H   H1382     1.0  0.34821  0.52846  0.98938  1.0000
  H   H1383     1.0  0.13126  0.43150  0.45401  1.0000
  C   C1152     1.0  0.29983  0.52915  0.13911  1.0000
  C   C1153     1.0  0.03641  0.53668  0.18505  1.0000
  H   H1384     1.0  0.00401  0.49657  0.27510  1.0000
  C   C1154     1.0  0.28041  0.56044  0.08321  1.0000
  C   C1155     1.0  0.05866  0.55306  0.17502  1.0000
  S   S319      1.0  0.46783  0.55869  0.15766  1.0000
  Fe  Fe158     1.0  0.37294  0.49225  0.14926  1.0000
  S   S320      1.0  0.38018  0.47815  0.13259  1.0000
  S   S321      1.0  0.34882  0.49960  0.16043  1.0000
  Fe  Fe159     1.0  0.40470  0.49392  0.14780  1.0000
  S   S322      1.0  0.41479  0.47983  0.13096  1.0000
  S   S323      1.0  0.41801  0.50248  0.15837  1.0000
  Fe  Fe160     1.0  0.39572  0.49329  0.12034  1.0000
  S   S324      1.0  0.39820  0.50251  0.09593  1.0000
  Fe  Fe161     1.0  0.39847  0.46561  0.14450  1.0000
  S   S325      1.0  0.40583  0.44062  0.14857  1.0000
  S   S326      1.0  0.38699  0.50860  0.13594  1.0000
  S   S327      1.0  0.39000  0.47848  0.16241  1.0000
  S   S328      1.0  0.33401  0.53921  0.08863  1.0000
  Fe  Fe162     1.0  0.28123  0.47754  0.15062  1.0000
  S   S329      1.0  0.27971  0.45715  0.14499  1.0000
  S   S330      1.0  0.29979  0.48802  0.13538  1.0000
  Fe  Fe163     1.0  0.25274  0.47793  0.17424  1.0000
  S   S331      1.0  0.24876  0.45752  0.17077  1.0000
  S   S332      1.0  0.23517  0.49076  0.18973  1.0000
  Fe  Fe164     1.0  0.27331  0.44874  0.16938  1.0000
  S   S333      1.0  0.28246  0.42480  0.17857  1.0000
  Fe  Fe165     1.0  0.25544  0.46754  0.14675  1.0000
  S   S334      1.0  0.24391  0.46415  0.13120  1.0000
  S   S335      1.0  0.27695  0.46832  0.17512  1.0000
  S   S336      1.0  0.25733  0.48886  0.15011  1.0000
  S   S337      1.0  0.15546  0.56603  0.31699  1.0000
  Fe  Fe166     1.0  0.19196  0.45993  0.26407  1.0000
  S   S338      1.0  0.17537  0.47344  0.25057  1.0000
  S   S339      1.0  0.21521  0.45069  0.25262  1.0000
  Fe  Fe167     1.0  0.16924  0.45981  0.29292  1.0000
  S   S340      1.0  0.15032  0.47332  0.28208  1.0000
  S   S341      1.0  0.16437  0.45037  0.31738  1.0000
  Fe  Fe168     1.0  0.16018  0.45905  0.26553  1.0000
  S   S342      1.0  0.14594  0.45119  0.25588  1.0000
  Fe  Fe169     1.0  0.16680  0.48682  0.26798  1.0000
  S   S343      1.0  0.15899  0.51145  0.26109  1.0000
  S   S344      1.0  0.17746  0.44413  0.27770  1.0000
  S   S345      1.0  0.18507  0.47473  0.28022  1.0000
  Fe  Fe170     1.0  0.12681  0.53777  0.19270  1.0000
  S   S346      1.0  0.14483  0.51834  0.19931  1.0000
  S   S347      1.0  0.11560  0.53676  0.17573  1.0000
  Fe  Fe171     1.0  0.20758  0.53774  0.08989  1.0000
  S   S348      1.0  0.19864  0.51736  0.10126  1.0000
  H   H1385     1.0  0.40815  0.46262  0.07156  1.0000
  C   C1156     1.0  0.24214  0.40610  0.19626  1.0000
  H   H1386     1.0  0.36131  0.41814  0.15971  1.0000
  C   C1157     1.0  0.07827  0.58089  0.27733  1.0000
  Fe  Fe172     1.0  0.16882  0.56037  0.44985  1.0000
  C   C1158     1.0  0.24127  0.42077  0.19635  1.0000
  S   S349      1.0  0.17027  0.55155  0.42975  1.0000
  C   C1159     1.0  0.37181  0.53295  0.16032  1.0000
  C   C1160     1.0  0.00710  0.51476  0.23660  1.0000
  C   C1161     1.0  0.20431  0.41339  0.28727  1.0000
  H   H1387     1.0  0.34908  0.40266  0.10958  1.0000
  S   S350      1.0  0.99897  0.52706  0.19713  1.0000
  Fe  Fe173     1.0  0.13582  0.50634  0.38155  1.0000
  S   S351      1.0  0.15880  0.50549  0.38372  1.0000
  S   S352      1.0  0.12062  0.52773  0.37317  1.0000
  Fe  Fe174     1.0  0.13905  0.47281  0.39250  1.0000
  S   S353      1.0  0.16225  0.46940  0.39576  1.0000
  S   S354      1.0  0.12669  0.45447  0.39776  1.0000
  Fe  Fe175     1.0  0.15317  0.48980  0.40539  1.0000
  S   S355      1.0  0.15533  0.49210  0.42741  1.0000
  Fe  Fe176     1.0  0.16540  0.48548  0.37385  1.0000
  S   S356      1.0  0.18453  0.48235  0.35445  1.0000
  S   S357      1.0  0.12962  0.49190  0.40388  1.0000
  S   S358      1.0  0.14276  0.48767  0.36999  1.0000
  H   H1388     1.0  0.00686  0.57665  0.10697  1.0000
  C   C1162     1.0  0.48549  0.53517  0.11267  1.0000
  S   S359      1.0  0.37607  0.40529  0.12275  1.0000
  H   H1389     1.0  0.45854  0.48616  0.15274  1.0000
  C   C1163     1.0  0.16217  0.58082  0.13054  1.0000
  C   C1164     1.0  0.13653  0.43801  0.39166  1.0000
  C   C1165     1.0  0.12892  0.42699  0.39310  1.0000
  C   C1166     1.0  0.13670  0.41347  0.38901  1.0000
  C   C1167     1.0  0.15219  0.41086  0.38364  1.0000
  C   C1168     1.0  0.15972  0.42200  0.38194  1.0000
  C   C1169     1.0  0.15194  0.43551  0.38591  1.0000
  H   H1390     1.0  0.11698  0.42885  0.39754  1.0000
  H   H1391     1.0  0.13079  0.40494  0.39042  1.0000
  H   H1392     1.0  0.17172  0.42003  0.37797  1.0000
  H   H1393     1.0  0.15796  0.44380  0.38495  1.0000
  C   C1170     1.0  0.33521  0.38664  0.11700  1.0000
  C   C1171     1.0  0.04729  0.55606  0.16722  1.0000
  C   C1172     1.0  0.23348  0.57306  0.47734  1.0000
  C   C1173     1.0  0.16698  0.53439  0.42979  1.0000
  C   C1174     1.0  0.16099  0.52503  0.44271  1.0000
  C   C1175     1.0  0.15783  0.51186  0.44194  1.0000
  C   C1176     1.0  0.16058  0.50801  0.42827  1.0000
  C   C1177     1.0  0.16690  0.51720  0.41545  1.0000
  C   C1178     1.0  0.17000  0.53033  0.41620  1.0000
  H   H1394     1.0  0.15868  0.52800  0.45325  1.0000
  H   H1395     1.0  0.15306  0.50476  0.45195  1.0000
  H   H1396     1.0  0.16946  0.51419  0.40492  1.0000
  H   H1397     1.0  0.17486  0.53733  0.40619  1.0000
  H   H1398     1.0  0.06714  0.55948  0.17129  1.0000
  C   C1179     1.0  0.14045  0.40909  0.30765  1.0000
  C   C1180     1.0  0.27029  0.52960  0.13495  1.0000
  C   C1181     1.0  0.15611  0.43527  0.24935  1.0000
  C   C1182     1.0  0.17163  0.43106  0.24781  1.0000
  C   C1183     1.0  0.17955  0.41772  0.24365  1.0000
  C   C1184     1.0  0.17198  0.40867  0.24083  1.0000
  C   C1185     1.0  0.15656  0.41317  0.24179  1.0000
  C   C1186     1.0  0.14862  0.42646  0.24608  1.0000
  H   H1399     1.0  0.17752  0.43796  0.25004  1.0000
  H   H1400     1.0  0.19145  0.41421  0.24302  1.0000
  H   H1401     1.0  0.15073  0.40642  0.23927  1.0000
  H   H1402     1.0  0.13664  0.42978  0.24711  1.0000
  C   C1187     1.0  0.15381  0.51425  0.24429  1.0000
  C   C1188     1.0  0.15441  0.52747  0.23362  1.0000
  C   C1189     1.0  0.15104  0.52909  0.21991  1.0000
  C   C1190     1.0  0.14740  0.51736  0.21682  1.0000
  C   C1191     1.0  0.14638  0.50438  0.22764  1.0000
  C   C1192     1.0  0.14931  0.50295  0.24142  1.0000
  H   H1403     1.0  0.15776  0.53633  0.23580  1.0000
  H   H1404     1.0  0.15177  0.53920  0.21156  1.0000
  H   H1405     1.0  0.14317  0.49544  0.22545  1.0000
  H   H1406     1.0  0.14791  0.49308  0.24988  1.0000
  C   C1193     1.0  0.18085  0.47138  0.34473  1.0000
  C   C1194     1.0  0.16998  0.46301  0.35143  1.0000
  C   C1195     1.0  0.16552  0.45595  0.34309  1.0000
  C   C1196     1.0  0.17179  0.45741  0.32795  1.0000
  C   C1197     1.0  0.18332  0.46501  0.32143  1.0000
  C   C1198     1.0  0.18791  0.47192  0.32986  1.0000
  H   H1407     1.0  0.16487  0.46210  0.36302  1.0000
  H   H1408     1.0  0.15679  0.44982  0.34829  1.0000
  H   H1409     1.0  0.18863  0.46566  0.30991  1.0000
  H   H1410     1.0  0.19665  0.47798  0.32482  1.0000
  C   C1199     1.0  0.14564  0.55525  0.33228  1.0000
  C   C1200     1.0  0.13007  0.55936  0.33658  1.0000
  C   C1201     1.0  0.12240  0.55094  0.34925  1.0000
  C   C1202     1.0  0.13024  0.53816  0.35730  1.0000
  C   C1203     1.0  0.14573  0.53380  0.35261  1.0000
  C   C1204     1.0  0.15346  0.54245  0.34027  1.0000
  H   H1411     1.0  0.12397  0.56904  0.33020  1.0000
  H   H1412     1.0  0.11039  0.55417  0.35267  1.0000
  H   H1413     1.0  0.15185  0.52377  0.35841  1.0000
  H   H1414     1.0  0.16549  0.53915  0.33686  1.0000
  C   C1205     1.0  0.23020  0.47975  0.20742  1.0000
  C   C1206     1.0  0.21846  0.48580  0.21797  1.0000
  C   C1207     1.0  0.21383  0.47694  0.23189  1.0000
  C   C1208     1.0  0.22111  0.46205  0.23539  1.0000
  C   C1209     1.0  0.23305  0.45609  0.22495  1.0000
  C   C1210     1.0  0.23752  0.46489  0.21093  1.0000
  H   H1415     1.0  0.21291  0.49735  0.21537  1.0000
  H   H1416     1.0  0.20482  0.48170  0.24001  1.0000
  H   H1417     1.0  0.23880  0.44462  0.22767  1.0000
  H   H1418     1.0  0.24672  0.46019  0.20290  1.0000
  C   C1211     1.0  0.27810  0.41366  0.16951  1.0000
  C   C1212     1.0  0.26994  0.42009  0.15846  1.0000
  C   C1213     1.0  0.26671  0.41118  0.15107  1.0000
  C   C1214     1.0  0.27133  0.39577  0.15486  1.0000
  H   H1419     1.0  0.19673  0.41337  0.34152  1.0000
  C   C1215     1.0  0.28276  0.39825  0.17333  1.0000
  H   H1420     1.0  0.26607  0.43194  0.15554  1.0000
  H   H1421     1.0  0.26059  0.41629  0.14237  1.0000
  C   C1216     1.0  0.37222  0.55976  0.99056  1.0000
  C   C1217     1.0  0.28958  0.56849  0.03386  1.0000
  C   C1218     1.0  0.23137  0.47925  0.12324  1.0000
  C   C1219     1.0  0.22149  0.47657  0.11655  1.0000
  C   C1220     1.0  0.21137  0.48836  0.10998  1.0000
  C   C1221     1.0  0.21153  0.50291  0.10949  1.0000
  C   C1222     1.0  0.22153  0.50567  0.11604  1.0000
  C   C1223     1.0  0.23121  0.49379  0.12326  1.0000
  H   H1422     1.0  0.22159  0.46532  0.11655  1.0000
  H   H1423     1.0  0.20363  0.48620  0.10495  1.0000
  H   H1424     1.0  0.22157  0.51692  0.11581  1.0000
  H   H1425     1.0  0.23862  0.49583  0.12868  1.0000
  C   C1224     1.0  0.39670  0.43059  0.14253  1.0000
  C   C1225     1.0  0.38445  0.43771  0.13605  1.0000
  C   C1226     1.0  0.37821  0.42982  0.13005  1.0000
  C   C1227     1.0  0.38389  0.41464  0.13087  1.0000
  C   C1228     1.0  0.39567  0.40730  0.13800  1.0000
  C   C1229     1.0  0.40214  0.41530  0.14370  1.0000
  H   H1426     1.0  0.37976  0.44928  0.13563  1.0000
  H   H1427     1.0  0.36888  0.43549  0.12483  1.0000
  H   H1428     1.0  0.40013  0.39557  0.13871  1.0000
  H   H1429     1.0  0.41155  0.40966  0.14881  1.0000
  C   C1230     1.0  0.38051  0.51188  0.09250  1.0000
  C   C1231     1.0  0.36783  0.50671  0.10114  1.0000
  C   C1232     1.0  0.35357  0.51476  0.09928  1.0000
  C   C1233     1.0  0.35194  0.52819  0.08896  1.0000
  C   C1234     1.0  0.36460  0.53312  0.07985  1.0000
  C   C1235     1.0  0.37891  0.52490  0.08156  1.0000
  H   H1430     1.0  0.36894  0.49649  0.10925  1.0000
  H   H1431     1.0  0.36339  0.54323  0.07149  1.0000
  H   H1432     1.0  0.38870  0.52886  0.07471  1.0000
  C   C1236     1.0  0.33570  0.49508  0.15379  1.0000
  C   C1237     1.0  0.33847  0.49441  0.13899  1.0000
  C   C1238     1.0  0.32747  0.49191  0.13353  1.0000
  C   C1239     1.0  0.31379  0.48968  0.14294  1.0000
  C   C1240     1.0  0.31112  0.49000  0.15784  1.0000
  C   C1241     1.0  0.32198  0.49294  0.16319  1.0000
  H   H1433     1.0  0.34895  0.49619  0.13168  1.0000
  H   H1434     1.0  0.32955  0.49171  0.12199  1.0000
  H   H1435     1.0  0.30054  0.48843  0.16515  1.0000
  H   H1436     1.0  0.31978  0.49349  0.17466  1.0000
  H   H1437     1.0  0.47688  0.50065  0.14958  1.0000
  H   H1438     1.0  0.02822  0.52999  0.18876  1.0000
  S   S360      1.0  0.19270  0.55756  0.07868  1.0000
  C   C1242     1.0  0.26329  0.49196  0.98393  1.0000
  C   C1243     1.0  0.01159  0.53827  0.24509  1.0000
  H   H1439     1.0  0.22911  0.43940  0.20599  1.0000
  Fe  Fe177     1.0  0.10770  0.56778  0.19658  1.0000
  C   C1244     1.0  0.18967  0.39928  0.30826  1.0000
  H   H1440     1.0  0.28906  0.39323  0.18188  1.0000
  C   C1245     1.0  0.43695  0.54400  0.13610  1.0000
  C   C1246     1.0  0.42932  0.53900  0.12864  1.0000
  C   C1247     1.0  0.42321  0.52643  0.13544  1.0000
  C   C1248     1.0  0.42478  0.51875  0.14971  1.0000
  C   C1249     1.0  0.43222  0.52389  0.15723  1.0000
  C   C1250     1.0  0.43823  0.53652  0.15049  1.0000
  H   H1441     1.0  0.42831  0.54472  0.11749  1.0000
  H   H1442     1.0  0.41752  0.52252  0.12956  1.0000
  H   H1443     1.0  0.43341  0.51801  0.16830  1.0000
  H   H1444     1.0  0.44387  0.54039  0.15644  1.0000
  H   H1445     1.0  0.12568  0.44907  0.43140  1.0000
  H   H1446     1.0  0.39296  0.53603  0.16112  1.0000
  H   H1447     1.0  0.36152  0.55683  0.99276  1.0000
  S   S361      1.0  0.02200  0.56043  0.27024  1.0000
  C   C1251     1.0  0.15968  0.40913  0.28518  1.0000
  H   H1448     1.0  0.13907  0.45916  0.41948  1.0000
  C   C1252     1.0  0.34944  0.56983  0.03122  1.0000
  H   H1449     1.0  0.31217  0.52667  0.13786  1.0000
  H   H1450     1.0  0.22977  0.55700  0.00851  1.0000
  H   H1451     1.0  0.26219  0.51843  0.98992  1.0000
  H   H1452     1.0  0.35209  0.54942  0.10444  1.0000
  H   H1453     1.0  0.16020  0.40547  0.34683  1.0000
  H   H1454     1.0  0.14676  0.57008  0.22751  1.0000
  C   C1253     1.0  0.41659  0.42926  0.10556  1.0000
  S   S362      1.0  0.18592  0.55609  0.46361  1.0000
  H   H1455     1.0  0.24987  0.42641  0.18912  1.0000
  C   C1254     1.0  0.31928  0.43604  0.16186  1.0000
  H   H1456     1.0  0.16297  0.58081  0.33826  1.0000
  H   H1457     1.0  0.14269  0.56219  0.11290  1.0000
  H   H1458     1.0  0.48846  0.53749  0.13794  1.0000
  H   H1459     1.0  0.38801  0.47552  0.09839  1.0000
  H   H1460     1.0  0.44886  0.50976  0.11071  1.0000
  H   H1461     1.0  0.26663  0.55310  0.01523  1.0000
  H   H1462     1.0  0.16641  0.56957  0.09901  1.0000
  H   H1463     1.0  0.42180  0.43172  0.11290  1.0000
  C   C1255     1.0  0.33328  0.58353  0.00915  1.0000
  C   C1256     1.0  0.40800  0.44045  0.09622  1.0000
  C   C1257     1.0  0.14816  0.56725  0.11794  1.0000
  S   S363      1.0  0.22770  0.53939  0.07137  1.0000
  C   C1258     1.0  0.36148  0.53544  0.15163  1.0000
  H   H1464     1.0  0.00575  0.50608  0.23241  1.0000
  H   H1465     1.0  0.20969  0.41555  0.27562  1.0000
  C   C1259     1.0  0.33820  0.40044  0.11556  1.0000
  H   H1466     1.0  0.13536  0.41359  0.31740  1.0000
  C   C1260     1.0  0.16167  0.57134  0.11007  1.0000
  H   H1467     1.0  0.17321  0.40052  0.40786  1.0000
  H   H1468     1.0  0.36994  0.52637  0.17153  1.0000
  H   H1469     1.0  0.19407  0.55626  0.26634  1.0000
  H   H1470     1.0  0.38430  0.46359  0.08949  1.0000
  H   H1471     1.0  0.47448  0.54312  0.11246  1.0000
  C   C1261     1.0  0.18705  0.55996  0.01889  1.0000
  C   C1262     1.0  0.27379  0.55736  0.01965  1.0000
  H   H1472     1.0  0.08599  0.39756  0.22398  1.0000
  C   C1263     1.0  0.33495  0.56829  0.01497  1.0000
  S   S364      1.0  0.18569  0.55752  0.99153  1.0000
  H   H1473     1.0  0.44466  0.49042  0.13345  1.0000
  C   C1264     1.0  0.16865  0.57830  0.11626  1.0000
  N   N77       1.0  0.29531  0.53662  0.12485  1.0000
  S   S365      1.0  0.11358  0.38614  0.23297  1.0000
  H   H1474     1.0  0.17952  0.42628  0.33817  1.0000
  C   C1265     1.0  0.10859  0.40560  0.31591  1.0000
  H   H1475     1.0  0.23530  0.54915  0.13136  1.0000
  N   N78       1.0  0.48465  0.52324  0.12631  1.0000
  C   C1266     1.0  0.46545  0.51648  0.11706  1.0000
  C   C1267     1.0  0.31034  0.39471  0.13111  1.0000
  S   S366      1.0  0.16281  0.39351  0.38004  1.0000
  C   C1268     1.0  0.31337  0.40848  0.12957  1.0000
  C   C1269     1.0  0.32735  0.41129  0.12194  1.0000
  H   H1476     1.0  0.40808  0.58187  0.11444  1.0000
  C   C1270     1.0  0.15283  0.41147  0.42041  1.0000
  H   H1477     1.0  0.07629  0.56991  0.21113  1.0000
  H   H1478     1.0  0.12781  0.51879  0.43237  1.0000
  Fe  Fe178     1.0  0.48911  0.56474  0.14310  1.0000
  H   H1479     1.0  0.27557  0.51845  0.13969  1.0000
  C   C1271     1.0  0.19676  0.40191  0.29330  1.0000
  C   C1272     1.0  0.21942  0.40606  0.21533  1.0000
  C   C1273     1.0  0.38646  0.57857  0.98699  1.0000
  H   H1480     1.0  0.02774  0.57181  0.21715  1.0000
  C   C1274     1.0  0.15268  0.41440  0.29799  1.0000
  C   C1275     1.0  0.15425  0.43225  0.42959  1.0000
  H   H1481     1.0  0.30478  0.41701  0.13430  1.0000
  H   H1482     1.0  0.32978  0.42190  0.12088  1.0000
  N   N79       1.0  0.14649  0.50535  0.31941  1.0000
  C   C1276     1.0  0.15530  0.50831  0.32829  1.0000
  C   C1277     1.0  0.14001  0.49238  0.32794  1.0000
  C   C1278     1.0  0.15702  0.50127  0.30586  1.0000
  C   C1279     1.0  0.13429  0.51843  0.31637  1.0000
  C   C1280     1.0  0.12363  0.52396  0.32823  1.0000
  C   C1281     1.0  0.13254  0.52599  0.30181  1.0000
  C   C1282     1.0  0.11197  0.53625  0.32569  1.0000
  C   C1283     1.0  0.12093  0.53840  0.29942  1.0000
  C   C1284     1.0  0.11061  0.54346  0.31132  1.0000
  H   H1483     1.0  0.14880  0.50926  0.33961  1.0000
  H   H1484     1.0  0.16530  0.49921  0.32986  1.0000
  H   H1485     1.0  0.15919  0.51878  0.32295  1.0000
  H   H1486     1.0  0.14887  0.48230  0.33029  1.0000
  H   H1487     1.0  0.13316  0.48983  0.32176  1.0000
  H   H1488     1.0  0.13285  0.49402  0.33886  1.0000
  H   H1489     1.0  0.16256  0.51042  0.29901  1.0000
  H   H1490     1.0  0.16612  0.49151  0.30856  1.0000
  H   H1491     1.0  0.15133  0.49813  0.29897  1.0000
  H   H1492     1.0  0.12426  0.51884  0.33961  1.0000
  H   H1493     1.0  0.13994  0.52250  0.29209  1.0000
  H   H1494     1.0  0.10402  0.54027  0.33495  1.0000
  H   H1495     1.0  0.11982  0.54413  0.28827  1.0000
  H   H1496     1.0  0.10162  0.55309  0.30939  1.0000
  S   S367      1.0  0.01860  0.56935  0.30154  1.0000
  S   S368      1.0  0.12459  0.56463  0.14148  1.0000
  H   H1497     1.0  0.40793  0.57570  0.14080  1.0000
  H   H1498     1.0  0.28711  0.54940  0.08307  1.0000
  C   C1285     1.0  0.41261  0.45958  0.10594  1.0000
  C   C1286     1.0  0.22960  0.42808  0.20588  1.0000
  H   H1499     1.0  0.17226  0.56238  0.28608  1.0000
  H   H1500     1.0  0.14625  0.40465  0.41902  1.0000
  H   H1501     1.0  0.02250  0.52136  0.21628  1.0000
  C   C1287     1.0  0.17647  0.41831  0.41515  1.0000
  C   C1288     1.0  0.14598  0.42286  0.42800  1.0000
  C   C1289     1.0  0.13485  0.39828  0.30471  1.0000
  C   C1290     1.0  0.20971  0.56049  0.02537  1.0000
  Fe  Fe179     1.0  0.00770  0.55677  0.29302  1.0000
  S   S369      1.0  0.21869  0.56591  0.03607  1.0000
  H   H1502     1.0  0.25027  0.56265  0.05232  1.0000
  N   N80       1.0  0.18421  0.47428  0.20444  1.0000
  C   C1291     1.0  0.19474  0.46239  0.21236  1.0000
  C   C1292     1.0  0.18415  0.48871  0.20707  1.0000
  C   C1293     1.0  0.16898  0.47137  0.21108  1.0000
  C   C1294     1.0  0.18905  0.47476  0.18836  1.0000
  C   C1295     1.0  0.20372  0.47647  0.18065  1.0000
  C   C1296     1.0  0.17957  0.47363  0.17990  1.0000
  C   C1297     1.0  0.20869  0.47660  0.16557  1.0000
  C   C1298     1.0  0.18467  0.47382  0.16479  1.0000
  C   C1299     1.0  0.19921  0.47522  0.15767  1.0000
  H   H1503     1.0  0.20613  0.46458  0.20943  1.0000
  H   H1504     1.0  0.19108  0.46111  0.22456  1.0000
  H   H1505     1.0  0.19573  0.45153  0.20987  1.0000
  H   H1506     1.0  0.19538  0.49135  0.20311  1.0000
  H   H1507     1.0  0.18059  0.48889  0.21902  1.0000
  H   H1508     1.0  0.17631  0.49787  0.20128  1.0000
  H   H1509     1.0  0.16821  0.46059  0.20963  1.0000
  H   H1510     1.0  0.16584  0.47077  0.22323  1.0000
  H   H1511     1.0  0.16028  0.48040  0.20634  1.0000
  H   H1512     1.0  0.21151  0.47767  0.18625  1.0000
  H   H1513     1.0  0.16819  0.47249  0.18472  1.0000
  H   H1514     1.0  0.22002  0.47764  0.15996  1.0000
  H   H1515     1.0  0.17736  0.47268  0.15858  1.0000
  H   H1516     1.0  0.20321  0.47513  0.14602  1.0000
  C   C1300     1.0  0.03607  0.54789  0.17226  1.0000
  C   C1301     1.0  0.04777  0.53363  0.19274  1.0000
  H   H1517     1.0  0.29704  0.51639  0.11848  1.0000
  C   C1302     1.0  0.27079  0.55459  0.12078  1.0000
  C   C1303     1.0  0.41322  0.46355  0.08021  1.0000
  H   H1518     1.0  0.41077  0.47166  0.10506  1.0000
  H   H1519     1.0  0.42535  0.45834  0.07754  1.0000
  N   N81       1.0  0.27571  0.50136  0.09922  1.0000
  C   C1304     1.0  0.26812  0.51071  0.11013  1.0000
  C   C1305     1.0  0.26669  0.50509  0.08786  1.0000
  C   C1306     1.0  0.29088  0.50428  0.09252  1.0000
  C   C1307     1.0  0.29287  0.51767  0.08210  1.0000
  C   C1308     1.0  0.30696  0.52110  0.07645  1.0000
  H   H1520     1.0  0.26443  0.48345  0.11103  1.0000
  H   H1521     1.0  0.25634  0.50971  0.11486  1.0000
  H   H1522     1.0  0.26784  0.52265  0.10511  1.0000
  H   H1523     1.0  0.27286  0.49966  0.07846  1.0000
  H   H1524     1.0  0.25587  0.50149  0.09246  1.0000
  H   H1525     1.0  0.26343  0.51720  0.08343  1.0000
  H   H1526     1.0  0.28351  0.52583  0.07850  1.0000
  H   H1527     1.0  0.30819  0.53147  0.06863  1.0000
  H   H1528     1.0  0.18784  0.56365  0.03973  1.0000
  C   C1309     1.0  0.27589  0.48566  0.10697  1.0000
  S   S370      1.0  0.14111  0.58163  0.25319  1.0000
  H   H1529     1.0  0.16908  0.41335  0.27765  1.0000
  S   S371      1.0  0.32203  0.57719  0.09729  1.0000
  C   C1310     1.0  0.41830  0.41425  0.10610  1.0000
  H   H1530     1.0  0.41212  0.47561  0.07917  1.0000
  C   C1311     1.0  0.16626  0.40711  0.33501  1.0000
  H   H1531     1.0  0.27621  0.56351  0.11438  1.0000
  H   H1532     1.0  0.21702  0.55423  0.99073  1.0000
  H   H1533     1.0  0.00961  0.55039  0.11803  1.0000
  C   C1312     1.0  0.15697  0.45270  0.43887  1.0000
  H   H1534     1.0  0.39122  0.57628  0.06229  1.0000
  H   H1535     1.0  0.99584  0.53277  0.26501  1.0000
  H   H1536     1.0  0.00051  0.57845  0.37745  1.0000
  H   H1537     1.0  0.40936  0.54423  0.98545  1.0000
  H   H1538     1.0  0.36655  0.39500  0.15468  1.0000
  H   H1539     1.0  0.99976  0.48786  0.25470  1.0000
  H   H1540     1.0  0.15667  0.55361  0.29040  1.0000
  C   C1313     1.0  0.40295  0.42058  0.08831  1.0000
  H   H1541     1.0  0.35536  0.56458  0.04005  1.0000
  N   N82       1.0  0.35333  0.54523  0.12732  1.0000
  C   C1314     1.0  0.33573  0.39055  0.18182  1.0000
  H   H1542     1.0  0.11267  0.53805  0.14205  1.0000
  C   C1315     1.0  0.25477  0.53279  0.13663  1.0000
  C   C1316     1.0  0.18469  0.41447  0.34211  1.0000
  C   C1317     1.0  0.47112  0.50294  0.14077  1.0000
  H   H1543     1.0  0.19320  0.54606  0.25378  1.0000
  H   H1544     1.0  0.27026  0.48979  0.99211  1.0000
  Fe  Fe180     1.0  0.46181  0.58229  0.16021  1.0000
  H   H1545     1.0  0.36270  0.56000  0.10756  1.0000
  Fe  Fe181     1.0  0.20048  0.56960  0.09089  1.0000
  C   C1318     1.0  0.19751  0.41992  0.31111  1.0000
  C   C1319     1.0  0.01906  0.53528  0.23129  1.0000
  C   C1320     1.0  0.18969  0.51900  0.30512  1.0000
  N   N83       1.0  0.09202  0.54857  0.13455  1.0000
  H   H1546     1.0  0.11188  0.51878  0.41710  1.0000
  C   C1321     1.0  0.08931  0.56053  0.14244  1.0000
  H   H1547     1.0  0.29917  0.53196  0.10344  1.0000
  C   C1322     1.0  0.08314  0.53755  0.14376  1.0000
  C   C1323     1.0  0.08669  0.52864  0.15728  1.0000
  C   C1324     1.0  0.07036  0.53587  0.14012  1.0000
  C   C1325     1.0  0.07825  0.51847  0.16639  1.0000
  C   C1326     1.0  0.06190  0.52575  0.14941  1.0000
  C   C1327     1.0  0.06587  0.51703  0.16247  1.0000
  H   H1548     1.0  0.07659  0.56231  0.12095  1.0000
  N   N84       1.0  0.16449  0.58029  0.38639  1.0000
  H   H1549     1.0  0.09556  0.56320  0.11299  1.0000
  H   H1550     1.0  0.07724  0.56595  0.14491  1.0000
  H   H1551     1.0  0.04715  0.56474  0.15732  1.0000
  H   H1552     1.0  0.09298  0.55632  0.15310  1.0000
  C   C1328     1.0  0.06336  0.57960  0.28157  1.0000
  C   C1329     1.0  0.06750  0.56610  0.22059  1.0000
  S   S372      1.0  0.48043  0.57228  0.12233  1.0000
  H   H1553     1.0  0.09571  0.52981  0.16122  1.0000
  H   H1554     1.0  0.06644  0.54245  0.13036  1.0000
  H   H1555     1.0  0.08093  0.51216  0.17690  1.0000
  H   H1556     1.0  0.05191  0.52497  0.14672  1.0000
  H   H1557     1.0  0.05903  0.50953  0.16984  1.0000
  H   H1558     1.0  0.35285  0.44479  0.15537  1.0000
  C   C1330     1.0  0.99929  0.51749  0.25080  1.0000
  H   H1559     1.0  0.19046  0.52068  0.26443  1.0000
  S   S373      1.0  0.02202  0.55145  0.16224  1.0000
  C   C1331     1.0  0.19724  0.50695  0.29870  1.0000
  H   H1560     1.0  0.16193  0.45866  0.42770  1.0000
  H   H1561     1.0  0.13056  0.57059  0.21125  1.0000
  N   N85       1.0  0.10820  0.53911  0.25518  1.0000
  C   C1332     1.0  0.11222  0.52706  0.24707  1.0000
  C   C1333     1.0  0.09792  0.55165  0.24758  1.0000
  C   C1334     1.0  0.12185  0.54419  0.25393  1.0000
  C   C1335     1.0  0.10174  0.53365  0.27098  1.0000
  C   C1336     1.0  0.10963  0.52083  0.27944  1.0000
  C   C1337     1.0  0.08780  0.54097  0.27853  1.0000
  C   C1338     1.0  0.10367  0.51543  0.29435  1.0000
  C   C1339     1.0  0.08204  0.53561  0.29348  1.0000
  C   C1340     1.0  0.08991  0.52282  0.30136  1.0000
  H   H1562     1.0  0.11716  0.53084  0.23514  1.0000
  H   H1563     1.0  0.12073  0.51751  0.25123  1.0000
  H   H1564     1.0  0.10226  0.52284  0.24786  1.0000
  H   H1565     1.0  0.08723  0.54868  0.24844  1.0000
  H   H1566     1.0  0.10290  0.55509  0.23560  1.0000
  H   H1567     1.0  0.09538  0.56170  0.25210  1.0000
  H   H1568     1.0  0.13038  0.53526  0.25893  1.0000
  H   H1569     1.0  0.12723  0.54807  0.24216  1.0000
  H   H1570     1.0  0.11922  0.55362  0.25943  1.0000
  H   H1571     1.0  0.12054  0.51491  0.27461  1.0000
  H   H1572     1.0  0.08104  0.55086  0.27312  1.0000
  H   H1573     1.0  0.10983  0.50552  0.30052  1.0000
  H   H1574     1.0  0.07132  0.54144  0.29892  1.0000
  H   H1575     1.0  0.08533  0.51866  0.31293  1.0000
  H   H1576     1.0  0.38489  0.53760  0.99003  1.0000
  H   H1577     1.0  0.24468  0.51637  0.98843  1.0000
  Fe  Fe182     1.0  0.03122  0.57500  0.27809  1.0000
  H   H1578     1.0  0.20975  0.42640  0.22294  1.0000
  C   C1341     1.0  0.47370  0.51433  0.12796  1.0000
  H   H1579     1.0  0.17925  0.41155  0.35403  1.0000
  C   C1342     1.0  0.46080  0.49441  0.14263  1.0000
  H   H1580     1.0  0.16363  0.39922  0.33015  1.0000
  C   C1343     1.0  0.03049  0.57982  0.19406  1.0000
  C   C1344     1.0  0.45297  0.49677  0.13173  1.0000
  C   C1345     1.0  0.39909  0.55265  0.98652  1.0000
  C   C1346     1.0  0.14016  0.43709  0.45349  1.0000
  H   H1581     1.0  0.15670  0.42276  0.30036  1.0000
  H   H1582     1.0  0.17792  0.55931  0.38140  1.0000
  H   H1583     1.0  0.13407  0.42440  0.43240  1.0000
  H   H1584     1.0  0.26596  0.54774  0.04927  1.0000
  H   H1585     1.0  0.14885  0.42865  0.45880  1.0000
  C   C1347     1.0  0.10882  0.57720  0.39458  1.0000
  C   C1348     1.0  0.20463  0.42240  0.29614  1.0000
  N   N86       1.0  0.14676  0.44394  0.43811  1.0000
  H   H1586     1.0  0.46917  0.53757  0.13983  1.0000
  C   C1349     1.0  0.11391  0.56247  0.42264  1.0000
  H   H1587     1.0  0.25034  0.55092  0.04085  1.0000
  H   H1588     1.0  0.16433  0.56828  0.36376  1.0000
  H   H1589     1.0  0.99701  0.55954  0.10008  1.0000
  H   H1590     1.0  0.36208  0.58219  0.99059  1.0000
  Fe  Fe183     1.0  0.31486  0.57361  0.99147  1.0000
  H   H1591     1.0  0.42390  0.58286  0.13811  1.0000
  H   H1592     1.0  0.10691  0.53424  0.40285  1.0000
  H   H1593     1.0  0.49363  0.54182  0.11190  1.0000
  C   C1350     1.0  0.01684  0.52354  0.22709  1.0000
  N   N87       1.0  0.12080  0.53755  0.41538  1.0000
  C   C1351     1.0  0.12395  0.53108  0.43037  1.0000
  C   C1352     1.0  0.10890  0.53110  0.41424  1.0000
  C   C1353     1.0  0.13464  0.53288  0.40456  1.0000
  C   C1354     1.0  0.11606  0.55390  0.41209  1.0000
  C   C1355     1.0  0.11329  0.56176  0.39795  1.0000
  S   S374      1.0  0.32411  0.57771  0.06249  1.0000
  H   H1594     1.0  0.06105  0.38691  0.25334  1.0000
  S   S375      1.0  0.05572  0.57472  0.26960  1.0000
  H   H1595     1.0  0.02640  0.54221  0.22372  1.0000
  H   H1596     1.0  0.11383  0.53341  0.43920  1.0000
  N   N88       1.0  0.26478  0.56631  0.03071  1.0000
  C   C1356     1.0  0.25647  0.57771  0.08419  1.0000
  C   C1357     1.0  0.17823  0.56830  0.38632  1.0000
  C   C1358     1.0  0.11088  0.58315  0.22326  1.0000
  Fe  Fe184     1.0  0.00415  0.58069  0.26542  1.0000
  H   H1597     1.0  0.25162  0.49143  0.99011  1.0000
  H   H1598     1.0  0.14357  0.53825  0.40440  1.0000
  H   H1599     1.0  0.18825  0.41666  0.40986  1.0000
  H   H1600     1.0  0.11454  0.55596  0.38943  1.0000
  C   C1359     1.0  0.24730  0.54674  0.13028  1.0000
  C   C1360     1.0  0.23128  0.39824  0.20580  1.0000
  C   C1361     1.0  0.33911  0.41337  0.16389  1.0000
  C   C1362     1.0  0.05898  0.54171  0.18774  1.0000
  H   H1601     1.0  0.27396  0.50751  0.11939  1.0000
  H   H1602     1.0  0.31453  0.54649  0.11756  1.0000
  H   H1603     1.0  0.36376  0.39438  0.17415  1.0000
  S   S376      1.0  0.25717  0.54870  0.08453  1.0000
  H   H1604     1.0  0.38654  0.58099  0.13128  1.0000
  C   C1363     1.0  0.19519  0.55750  0.00489  1.0000
  S   S377      1.0  0.32640  0.55799  0.00885  1.0000
  H   H1605     1.0  0.23303  0.57164  0.46674  1.0000
  H   H1606     1.0  0.30753  0.44127  0.16257  1.0000
  H   H1607     1.0  0.11510  0.54931  0.12410  1.0000
  H   H1608     1.0  0.35167  0.53090  0.15680  1.0000
  H   H1609     1.0  0.34002  0.52937  0.14120  1.0000
  C   C1364     1.0  0.19430  0.56127  0.02919  1.0000
  C   C1365     1.0  0.18984  0.52059  0.27580  1.0000
  C   C1366     1.0  0.32386  0.42062  0.16448  1.0000
  Fe  Fe185     1.0  0.09407  0.54613  0.18999  1.0000
  C   C1367     1.0  0.27931  0.38932  0.16609  1.0000
  C   C1368     1.0  0.38985  0.46367  0.09811  1.0000
  H   H1610     1.0  0.43984  0.57084  0.00375  1.0000
  N   N89       1.0  0.12173  0.39300  0.31504  1.0000
  C   C1369     1.0  0.25754  0.55644  0.04382  1.0000
  H   H1611     1.0  0.08958  0.54699  0.11358  1.0000
  C   C1370     1.0  0.14229  0.39312  0.29153  1.0000
  H   H1612     1.0  0.20323  0.49833  0.27910  1.0000
  H   H1613     1.0  0.39726  0.55108  0.13563  1.0000
  H   H1614     1.0  0.15101  0.46146  0.44525  1.0000
  C   C1371     1.0  0.16805  0.40915  0.41405  1.0000
  H   H1615     1.0  0.34380  0.51085  0.10618  1.0000
  C   C1372     1.0  0.09012  0.38639  0.22224  1.0000
  H   H1616     1.0  0.23699  0.57357  0.98522  1.0000
  H   H1617     1.0  0.40750  0.45473  0.11753  1.0000
  C   C1373     1.0  0.40140  0.43563  0.08746  1.0000
  H   H1618     1.0  0.19787  0.42757  0.31722  1.0000
  H   H1619     1.0  0.31401  0.52274  0.11299  1.0000
  H   H1620     1.0  0.17673  0.54092  0.30258  1.0000
  C   C1374     1.0  0.21786  0.55763  0.01156  1.0000
  C   C1375     1.0  0.21870  0.42075  0.21536  1.0000
  H   H1621     1.0  0.24946  0.56840  0.11729  1.0000
  C   C1376     1.0  0.31788  0.49831  0.09148  1.0000
  H   H1622     1.0  0.17693  0.43645  0.42306  1.0000
  C   C1377     1.0  0.14167  0.56978  0.13218  1.0000
  N   N90       1.0  0.34361  0.39698  0.16681  1.0000
  S   S378      1.0  0.21433  0.54952  0.10292  1.0000
  H   H1623     1.0  0.12614  0.39523  0.33496  1.0000
  H   H1624     1.0  0.13292  0.53558  0.39312  1.0000
  S   S379      1.0  0.35459  0.57332  0.07388  1.0000
  C   C1378     1.0  0.25529  0.55760  0.12240  1.0000
  H   H1625     1.0  0.18125  0.56403  0.25417  1.0000
  H   H1626     1.0  0.13492  0.44549  0.46040  1.0000
  H   H1627     1.0  0.42491  0.45524  0.10400  1.0000
  H   H1628     1.0  0.32734  0.39469  0.15635  1.0000
  N   N91       1.0  0.40600  0.45647  0.09524  1.0000
  Fe  Fe186     1.0  0.21351  0.56050  0.06114  1.0000
  S   S380      1.0  0.13054  0.56071  0.18250  1.0000
  H   H1629     1.0  0.06586  0.55574  0.21892  1.0000
  H   H1630     1.0  0.30075  0.55494  0.10707  1.0000
  H   H1631     1.0  0.21060  0.40107  0.22298  1.0000
  S   S381      1.0  0.14884  0.56462  0.46843  1.0000
  C   C1379     1.0  0.34756  0.53165  0.13015  1.0000
  H   H1632     1.0  0.37025  0.54042  0.10811  1.0000
  H   H1633     1.0  0.29676  0.51825  0.14383  1.0000
  H   H1634     1.0  0.34093  0.53239  0.12207  1.0000
  H   H1635     1.0  0.35690  0.52172  0.12937  1.0000
  C   C1380     1.0  0.34476  0.43800  0.15787  1.0000
  N   N92       1.0  0.17580  0.52769  0.14492  1.0000
  C   C1381     1.0  0.17626  0.51397  0.14055  1.0000
  C   C1382     1.0  0.15983  0.53494  0.14952  1.0000
  C   C1383     1.0  0.18260  0.53788  0.13175  1.0000
  C   C1384     1.0  0.18433  0.52406  0.15661  1.0000
  C   C1385     1.0  0.17787  0.52760  0.17071  1.0000
  C   C1386     1.0  0.19968  0.51681  0.15401  1.0000
  C   C1387     1.0  0.18632  0.52415  0.18140  1.0000
  C   C1388     1.0  0.20802  0.51338  0.16481  1.0000
  C   C1389     1.0  0.20137  0.51709  0.17845  1.0000
  H   H1636     1.0  0.17166  0.50582  0.15023  1.0000
  H   H1637     1.0  0.16975  0.51631  0.13191  1.0000
  H   H1638     1.0  0.18777  0.50853  0.13562  1.0000
  H   H1639     1.0  0.15864  0.54572  0.15231  1.0000
  H   H1640     1.0  0.15387  0.52777  0.15922  1.0000
  H   H1641     1.0  0.15373  0.53751  0.14052  1.0000
  H   H1642     1.0  0.19422  0.53275  0.12679  1.0000
  H   H1643     1.0  0.17634  0.54110  0.12278  1.0000
  H   H1644     1.0  0.18283  0.54826  0.13453  1.0000
  H   H1645     1.0  0.16628  0.53304  0.17382  1.0000
  H   H1646     1.0  0.20536  0.51375  0.14358  1.0000
  H   H1647     1.0  0.18110  0.52696  0.19208  1.0000
  H   H1648     1.0  0.21971  0.50774  0.16266  1.0000
  H   H1649     1.0  0.20791  0.51446  0.18675  1.0000
  H   H1650     1.0  0.11576  0.55757  0.43368  1.0000
  C   C1390     1.0  0.18203  0.53312  0.28195  1.0000
  C   C1391     1.0  0.10822  0.54152  0.13185  1.0000
  C   C1392     1.0  0.27383  0.57352  0.03550  1.0000
  H   H1651     1.0  0.09785  0.38609  0.28299  1.0000
  H   H1652     1.0  0.24851  0.52436  0.14279  1.0000
  C   C1393     1.0  0.41137  0.40991  0.09764  1.0000
  H   H1653     1.0  0.28161  0.54741  0.02445  1.0000
  C   C1394     1.0  0.30222  0.54966  0.11853  1.0000
  C   C1395     1.0  0.28722  0.57175  0.08260  1.0000
  N   N93       1.0  0.05336  0.57747  0.22176  1.0000
  C   C1396     1.0  0.18999  0.40807  0.31771  1.0000
  H   H1654     1.0  0.04694  0.56962  0.24536  1.0000
  H   H1655     1.0  0.07142  0.38710  0.21361  1.0000
  H   H1656     1.0  0.18359  0.38677  0.35269  1.0000
  H   H1657     1.0  0.37963  0.55578  0.12016  1.0000
  C   C1397     1.0  0.38537  0.54891  0.98908  1.0000
  H   H1658     1.0  0.29747  0.55810  0.12543  1.0000
  Fe  Fe187     1.0  0.33464  0.56319  0.08093  1.0000
  Fe  Fe188     1.0  0.23301  0.55344  0.08331  1.0000
  C   C1398     1.0  0.25295  0.57753  0.02389  1.0000
  H   H1659     1.0  0.18984  0.51836  0.31648  1.0000
  C   C1399     1.0  0.30164  0.52648  0.11453  1.0000
  C   C1400     1.0  0.18849  0.38932  0.34059  1.0000
  C   C1401     1.0  0.32970  0.44473  0.15857  1.0000
  S   S382      1.0  0.18181  0.39152  0.23671  1.0000
  H   H1660     1.0  0.01303  0.54765  0.24821  1.0000
  H   H1661     1.0  0.15958  0.56797  0.27421  1.0000
  H   H1662     1.0  0.38382  0.45806  0.10890  1.0000
  H   H1663     1.0  0.46635  0.52505  0.10710  1.0000
  H   H1664     1.0  0.31527  0.41442  0.16710  1.0000
  C   C1402     1.0  0.37702  0.54924  0.13122  1.0000
  H   H1665     1.0  0.29904  0.56926  0.08206  1.0000
  C   C1403     1.0  0.21067  0.55604  0.00143  1.0000
  H   H1666     1.0  0.29587  0.55934  0.02875  1.0000
  C   C1404     1.0  0.16543  0.55810  0.28130  1.0000
  H   H1667     1.0  0.12919  0.46381  0.43686  1.0000
  H   H1668     1.0  0.41223  0.39825  0.09857  1.0000
  C   C1405     1.0  0.12493  0.38671  0.32998  1.0000
  C   C1406     1.0  0.10924  0.57789  0.41918  1.0000
  C   C1407     1.0  0.15454  0.39850  0.28198  1.0000
  C   C1408     1.0  0.16351  0.58010  0.36067  1.0000
  H   H1669     1.0  0.33207  0.55948  0.12444  1.0000
  C   C1409     1.0  0.18218  0.53194  0.29694  1.0000
  H   H1670     1.0  0.33507  0.55526  0.14286  1.0000
  H   H1671     1.0  0.15850  0.55356  0.25907  1.0000
  C   C1410     1.0  0.43659  0.58181  0.99715  1.0000
  H   H1672     1.0  0.28240  0.47798  0.09955  1.0000
  C   C1411     1.0  0.31943  0.51147  0.08118  1.0000
  C   C1412     1.0  0.13507  0.57554  0.22981  1.0000
  C   C1413     1.0  0.30387  0.49470  0.09709  1.0000
  H   H1673     1.0  0.28058  0.48250  0.11702  1.0000
  C   C1414     1.0  0.16485  0.54339  0.26532  1.0000
  H   H1674     1.0  0.26699  0.48257  0.97829  1.0000
  H   H1675     1.0  0.11057  0.53162  0.12712  1.0000
  H   H1676     1.0  0.33027  0.51435  0.07704  1.0000
  S   S383      1.0  0.12551  0.57416  0.29482  1.0000
  H   H1677     1.0  0.30347  0.48448  0.10526  1.0000
  H   H1678     1.0  0.02064  0.57650  0.19381  1.0000
  H   H1679     1.0  0.39739  0.41710  0.08194  1.0000
  C   C1415     1.0  0.34947  0.42256  0.16047  1.0000
  H   H1680     1.0  0.32610  0.45669  0.15663  1.0000
  S   S384      1.0  0.00527  0.53418  0.30651  1.0000
  H   H1681     1.0  0.17506  0.56111  0.02168  1.0000
  C   C1416     1.0  0.38475  0.53843  0.15449  1.0000
  C   C1417     1.0  0.35998  0.54889  0.11122  1.0000
  H   H1682     1.0  0.34431  0.54966  0.03059  1.0000
  H   H1683     1.0  0.24396  0.38375  0.18285  1.0000
  S   S385      1.0  0.21995  0.57476  0.07223  1.0000
  S   S386      1.0  0.10517  0.54474  0.20805  1.0000
  C   C1418     1.0  0.45533  0.50772  0.11895  1.0000
  H   H1684     1.0  0.29453  0.53605  0.14749  1.0000
  H   H1685     1.0  0.33801  0.39482  0.19036  1.0000
  H   H1686     1.0  0.09813  0.53480  0.42180  1.0000
  C   C1419     1.0  0.13463  0.45441  0.43126  1.0000
  Fe  Fe189     1.0  0.11781  0.56028  0.16633  1.0000
  C   C1420     1.0  0.35519  0.53321  0.97918  1.0000
  C   C1421     1.0  0.00179  0.52960  0.25469  1.0000
  H   H1687     1.0  0.25156  0.40089  0.18880  1.0000
  C   C1422     1.0  0.15130  0.57367  0.39375  1.0000
  C   C1423     1.0  0.36410  0.54311  0.13658  1.0000
  Fe  Fe190     1.0  0.13955  0.58260  0.30413  1.0000
  H   H1688     1.0  0.08828  0.57436  0.35993  1.0000
  H   H1689     1.0  0.10501  0.38371  0.26438  1.0000
  H   H1690     1.0  0.34443  0.56806  0.12844  1.0000
  C   C1424     1.0  0.25590  0.51817  0.98193  1.0000
  H   H1691     1.0  0.32757  0.49094  0.09533  1.0000
  Fe  Fe191     1.0  0.18455  0.58065  0.45682  1.0000
  H   H1692     1.0  0.29922  0.39322  0.13673  1.0000
  C   C1425     1.0  0.34313  0.56141  0.02594  1.0000
  H   H1693     1.0  0.32341  0.39316  0.18302  1.0000
  H   H1694     1.0  0.39481  0.44345  0.08001  1.0000
  H   H1695     1.0  0.16151  0.41856  0.32938  1.0000
  H   H1696     1.0  0.04079  0.56096  0.23484  1.0000
  H   H1697     1.0  0.15077  0.56514  0.38835  1.0000
  S   S387      1.0  0.07340  0.53669  0.19747  1.0000
  C   C1426     1.0  0.34063  0.55753  0.13094  1.0000
  H   H1698     1.0  0.04809  0.52469  0.20244  1.0000
  H   H1699     1.0  0.42456  0.40589  0.11360  1.0000
  H   H1700     1.0  0.09557  0.56926  0.13582  1.0000
  C   C1427     1.0  0.03485  0.57701  0.20742  1.0000
  H   H1701     1.0  0.21022  0.43156  0.29126  1.0000
  C   C1428     1.0  0.38721  0.54679  0.14007  1.0000
  H   H1702     1.0  0.20329  0.49707  0.30497  1.0000
  C   C1429     1.0  0.19725  0.50771  0.28410  1.0000
  C   C1430     1.0  0.27881  0.54043  0.12703  1.0000
  H   H1703     1.0  0.48086  0.52238  0.14974  1.0000
  C   C1431     1.0  0.18633  0.55356  0.26126  1.0000
  C   C1432     1.0  0.33954  0.39159  0.15586  1.0000
  N   N94       1.0  0.18255  0.40489  0.33357  1.0000
  H   H1704     1.0  0.16615  0.44562  0.44434  1.0000
  C   C1433     1.0  0.26507  0.56337  0.08387  1.0000
  N   N95       1.0  0.17473  0.54682  0.27274  1.0000
  C   C1434     1.0  0.08821  0.55550  0.11989  1.0000
  H   H1705     1.0  0.07207  0.56334  0.23065  1.0000
  H   H1706     1.0  0.10614  0.41098  0.30478  1.0000
  H   H1707     1.0  0.13303  0.53529  0.43186  1.0000
  S   S388      1.0  0.09517  0.56968  0.17930  1.0000
  H   H1708     1.0  0.17113  0.53668  0.25698  1.0000
  C   C1435     1.0  0.12591  0.57581  0.22059  1.0000
  H   H1709     1.0  0.34531  0.39619  0.14443  1.0000
  C   C1436     1.0  0.35991  0.39113  0.16591  1.0000
  H   H1710     1.0  0.08479  0.57949  0.26651  1.0000
  Fe  Fe192     1.0  0.00127  0.54248  0.17476  1.0000
  C   C1437     1.0  0.16975  0.42971  0.42279  1.0000
  H   H1711     1.0  0.15662  0.53734  0.27345  1.0000
  H   H1712     1.0  0.28027  0.56413  0.01000  1.0000
  H   H1713     1.0  0.07367  0.58029  0.34985  1.0000
  H   H1714     1.0  0.16009  0.39440  0.27198  1.0000
  H   H1715     1.0  0.24751  0.57262  0.01821  1.0000
  H   H1716     1.0  0.14382  0.57850  0.14952  1.0000
  C   C1438     1.0  0.37269  0.57439  0.98942  1.0000
  S   S389      1.0  0.26793  0.38505  0.14464  1.0000
  H   H1717     1.0  0.24364  0.58248  0.03216  1.0000
  C   C1439     1.0  0.00203  0.55275  0.12854  1.0000
  H   H1718     1.0  0.11032  0.41428  0.32036  1.0000
  H   H1719     1.0  0.18833  0.57270  0.37998  1.0000
  H   H1720     1.0  0.09841  0.40196  0.32334  1.0000
  H   H1721     1.0  0.00944  0.55149  0.13612  1.0000
  C   C1440     1.0  0.04270  0.57170  0.23518  1.0000
  H   H1722     1.0  0.41058  0.56952  0.98369  1.0000
  H   H1723     1.0  0.11430  0.38557  0.29986  1.0000
  H   H1724     1.0  0.15146  0.56814  0.40555  1.0000
  H   H1725     1.0  0.17994  0.56288  0.39773  1.0000
  H   H1726     1.0  0.13902  0.38484  0.28835  1.0000
  C   C1441     1.0  0.48061  0.53043  0.13901  1.0000
  H   H1727     1.0  0.40962  0.57829  0.07483  1.0000
  C   C1442     1.0  0.29777  0.57522  0.03892  1.0000
  H   H1728     1.0  0.24458  0.58005  0.08488  1.0000
  H   H1729     1.0  0.22390  0.38762  0.18670  1.0000
  H   H1730     1.0  0.30972  0.57105  0.03776  1.0000
  H   H1731     1.0  0.48920  0.53061  0.10254  1.0000
  C   C1443     1.0  0.14880  0.57640  0.13858  1.0000
  H   H1732     1.0  0.19634  0.39502  0.28634  1.0000
  H   H1733     1.0  0.18386  0.39031  0.31238  1.0000
  H   H1734     1.0  0.20085  0.38698  0.33908  1.0000
  C   C1444     1.0  0.39967  0.56722  0.98552  1.0000
  H   H1735     1.0  0.14075  0.58233  0.39352  1.0000
  C   C1445     1.0  0.04796  0.58089  0.20797  1.0000
  H   H1736     1.0  0.24201  0.47030  0.97852  1.0000
  H   H1737     1.0  0.37099  0.51300  0.97820  1.0000
  C   C1446     1.0  0.05486  0.58185  0.29544  1.0000
  H   H1738     1.0  0.00922  0.57888  0.12394  1.0000
  H   H1739     1.0  0.09182  0.58287  0.34042  1.0000
  H   H1740     1.0  0.00019  0.58215  0.21461  1.0000
  C   C1447     1.0  0.00074  0.57879  0.11806  1.0000
  H   H1741     1.0  0.03178  0.57979  0.23666  1.0000
  H   H1742     1.0  0.04330  0.58113  0.29868  1.0000
  C   C1448     1.0  0.12919  0.58234  0.24192  1.0000
  S   S390      1.0  0.30407  0.56603  0.97815  1.0000
  H   H1743     1.0  0.99558  0.54390  0.13330  1.0000
  C   C1449     1.0  0.08364  0.58322  0.35115  1.0000
  H   H1744     1.0  0.10683  0.58299  0.38374  1.0000
  Fe  Fe193     1.0  0.01752  0.55826  0.72750  1.0000
  C   C1450     1.0  0.26874  0.54203  0.89661  1.0000
  H   H1745     1.0  0.22379  0.38826  0.81036  1.0000
  H   H1746     1.0  0.08968  0.51628  0.81179  1.0000
  H   H1747     1.0  0.17553  0.55809  0.54919  1.0000
  S   S391      1.0  0.01760  0.53505  0.74057  1.0000
  S   S392      1.0  0.01940  0.55278  0.70602  1.0000
  C   C1451     1.0  0.19764  0.39309  0.87233  1.0000
  S   S393      1.0  0.01872  0.50679  0.83759  1.0000
  C   C1452     1.0  0.32751  0.40621  0.85040  1.0000
  C   C1453     1.0  0.37263  0.54565  0.95266  1.0000
  Fe  Fe194     1.0  0.02343  0.51014  0.85783  1.0000
  S   S394      1.0  0.04717  0.50207  0.86122  1.0000
  S   S395      1.0  0.01113  0.53389  0.85517  1.0000
  H   H1748     1.0  0.20345  0.42497  0.62093  1.0000
  Fe  Fe195     1.0  0.20671  0.55076  0.59579  1.0000
  S   S396      1.0  0.18780  0.54822  0.58788  1.0000
  S   S397      1.0  0.21252  0.53880  0.61776  1.0000
  C   C1454     1.0  0.19578  0.43172  0.62883  1.0000
  H   H1749     1.0  0.19254  0.44318  0.62231  1.0000
  H   H1750     1.0  0.48712  0.54544  0.90498  1.0000
  N   N96       1.0  0.01354  0.52763  0.90481  1.0000
  H   H1751     1.0  0.15760  0.55130  0.61121  1.0000
  Fe  Fe196     1.0  0.20158  0.55499  0.56499  1.0000
  S   S398      1.0  0.20748  0.54481  0.54516  1.0000
  H   H1752     1.0  0.06714  0.53610  0.84297  1.0000
  S   S399      1.0  0.22135  0.55541  0.57308  1.0000
  Fe  Fe197     1.0  0.18176  0.46928  0.70047  1.0000
  S   S400      1.0  0.20090  0.47951  0.68668  1.0000
  S   S401      1.0  0.16025  0.48239  0.71142  1.0000
  C   C1455     1.0  0.24494  0.49389  0.63701  1.0000
  S   S402      1.0  0.21839  0.44601  0.68181  1.0000
  Fe  Fe198     1.0  0.21494  0.45945  0.69849  1.0000
  S   S403      1.0  0.23387  0.45952  0.70789  1.0000
  Fe  Fe199     1.0  0.20246  0.46534  0.67123  1.0000
  S   S404      1.0  0.20661  0.47258  0.64633  1.0000
  S   S405      1.0  0.19569  0.45033  0.71361  1.0000
  S   S406      1.0  0.18206  0.45653  0.68416  1.0000
  Fe  Fe200     1.0  0.10735  0.54574  0.74312  1.0000
  S   S407      1.0  0.09970  0.55977  0.75986  1.0000
  S   S408      1.0  0.09330  0.53299  0.73899  1.0000
  Fe  Fe201     1.0  0.13857  0.55159  0.73362  1.0000
  S   S409      1.0  0.13396  0.56610  0.74964  1.0000
  S   S410      1.0  0.16053  0.54540  0.71815  1.0000
  Fe  Fe202     1.0  0.12195  0.54903  0.76577  1.0000
  S   S411      1.0  0.12383  0.53595  0.78870  1.0000
  C   C1456     1.0  0.34703  0.52456  0.94310  1.0000
  H   H1753     1.0  0.16752  0.56266  0.63299  1.0000
  S   S412      1.0  0.12856  0.53373  0.75031  1.0000
  S   S413      1.0  0.11787  0.56227  0.72494  1.0000
  Fe  Fe203     1.0  0.21894  0.48861  0.77570  1.0000
  S   S414      1.0  0.20896  0.46879  0.78515  1.0000
  S   S415      1.0  0.21516  0.50122  0.75319  1.0000
  Fe  Fe204     1.0  0.22888  0.48552  0.80393  1.0000
  S   S416      1.0  0.21966  0.46532  0.81585  1.0000
  S   S417      1.0  0.24067  0.49667  0.81339  1.0000
  Fe  Fe205     1.0  0.22941  0.45838  0.79420  1.0000
  S   S418      1.0  0.24002  0.43496  0.79256  1.0000
  Fe  Fe206     1.0  0.20000  0.47756  0.80566  1.0000
  S   S419      1.0  0.17575  0.47815  0.81524  1.0000
  S   S420      1.0  0.24048  0.47746  0.78297  1.0000
  S   S421      1.0  0.20822  0.49848  0.79560  1.0000
  Fe  Fe207     1.0  0.10550  0.53468  0.87900  1.0000
  S   S422      1.0  0.11439  0.55493  0.87564  1.0000
  S   S423      1.0  0.08042  0.53927  0.88109  1.0000
  Fe  Fe208     1.0  0.13682  0.51479  0.87672  1.0000
  S   S424      1.0  0.14787  0.53357  0.87270  1.0000
  S   S425      1.0  0.15334  0.49289  0.87840  1.0000
  Fe  Fe209     1.0  0.12930  0.54077  0.89104  1.0000
  S   S426      1.0  0.13271  0.54561  0.91138  1.0000
  Fe  Fe210     1.0  0.13214  0.54567  0.85770  1.0000
  S   S427      1.0  0.13958  0.55974  0.83517  1.0000
  S   S428      1.0  0.11897  0.52121  0.89596  1.0000
  S   S429      1.0  0.12241  0.52628  0.86017  1.0000
  C   C1457     1.0  0.04407  0.54138  0.77327  1.0000
  H   H1754     1.0  0.16409  0.43890  0.76095  1.0000
  C   C1458     1.0  0.24360  0.56317  0.96672  1.0000
  C   C1459     1.0  0.27252  0.53290  0.88662  1.0000
  Fe  Fe211     1.0  0.26723  0.47517  0.88542  1.0000
  S   S430      1.0  0.27398  0.45482  0.90237  1.0000
  S   S431      1.0  0.24454  0.47856  0.88059  1.0000
  Fe  Fe212     1.0  0.29689  0.48405  0.87952  1.0000
  S   S432      1.0  0.30625  0.46410  0.89545  1.0000
  S   S433      1.0  0.30900  0.50218  0.86660  1.0000
  Fe  Fe213     1.0  0.29579  0.45180  0.88600  1.0000
  S   S434      1.0  0.30664  0.42922  0.88142  1.0000
  Fe  Fe214     1.0  0.28354  0.46909  0.91017  1.0000
  S   S435      1.0  0.28178  0.46671  0.93428  1.0000
  S   S436      1.0  0.28854  0.47125  0.86847  1.0000
  S   S437      1.0  0.27474  0.48994  0.89488  1.0000
  Fe  Fe215     1.0  0.38026  0.49456  0.89578  1.0000
  S   S438      1.0  0.36615  0.48290  0.91562  1.0000
  S   S439      1.0  0.37257  0.50283  0.87433  1.0000
  Fe  Fe216     1.0  0.40410  0.49238  0.91225  1.0000
  S   S440      1.0  0.39170  0.48000  0.93333  1.0000
  C   C1460     1.0  0.21586  0.41411  0.66051  1.0000
  Fe  Fe217     1.0  0.38773  0.46721  0.91920  1.0000
  S   S441      1.0  0.38554  0.44344  0.92709  1.0000
  Fe  Fe218     1.0  0.37146  0.49670  0.92767  1.0000
  C   C1461     1.0  0.22100  0.38880  0.85460  1.0000
  S   S442      1.0  0.40183  0.47801  0.89839  1.0000
  H   H1755     1.0  0.16976  0.41275  0.66965  1.0000
  C   C1462     1.0  0.22745  0.56398  0.49035  1.0000
  S   S443      1.0  0.25745  0.39711  0.88168  1.0000
  H   H1756     1.0  0.18699  0.50467  0.77524  1.0000
  H   H1757     1.0  0.00565  0.53675  0.67820  1.0000
  C   C1463     1.0  0.24588  0.50398  0.62337  1.0000
  H   H1758     1.0  0.18529  0.42754  0.63346  1.0000
  H   H1759     1.0  0.00306  0.51753  0.70150  1.0000
  H   H1760     1.0  0.01686  0.48776  0.64893  1.0000
  H   H1761     1.0  0.14475  0.50368  0.78889  1.0000
  C   C1464     1.0  0.01504  0.52081  0.65699  1.0000
  H   H1762     1.0  0.21716  0.42632  0.73184  1.0000
  H   H1763     1.0  0.06311  0.50173  0.90567  1.0000
  C   C1465     1.0  0.19084  0.46543  0.75142  1.0000
  S   S444      1.0  0.19094  0.53336  0.96208  1.0000
  C   C1466     1.0  0.32232  0.39293  0.90956  1.0000
  H   H1764     1.0  0.41504  0.52170  0.94447  1.0000
  C   C1467     1.0  0.03526  0.50107  0.66588  1.0000
  H   H1765     1.0  0.24918  0.52563  0.61131  1.0000
  H   H1766     1.0  0.31942  0.54926  0.95952  1.0000
  C   C1468     1.0  0.01991  0.49570  0.65293  1.0000
  C   C1469     1.0  0.15472  0.49930  0.75326  1.0000
  H   H1767     1.0  0.48324  0.56267  0.88183  1.0000
  H   H1768     1.0  0.33147  0.41064  0.85739  1.0000
  C   C1470     1.0  0.19935  0.54407  0.52042  1.0000
  H   H1769     1.0  0.24778  0.50695  0.88125  1.0000
  H   H1770     1.0  0.22496  0.40963  0.71638  1.0000
  C   C1471     1.0  0.32393  0.42413  0.92159  1.0000
  H   H1771     1.0  0.22091  0.44043  0.64185  1.0000
  C   C1472     1.0  0.29983  0.52105  0.95763  1.0000
  C   C1473     1.0  0.39567  0.43010  0.91665  1.0000
  C   C1474     1.0  0.40752  0.43283  0.90465  1.0000
  C   C1475     1.0  0.41504  0.42199  0.89633  1.0000
  C   C1476     1.0  0.41056  0.40853  0.89984  1.0000
  C   C1477     1.0  0.39882  0.40579  0.91192  1.0000
  C   C1478     1.0  0.39148  0.41651  0.92035  1.0000
  H   H1772     1.0  0.41094  0.44323  0.90186  1.0000
  H   H1773     1.0  0.42423  0.42410  0.88709  1.0000
  H   H1774     1.0  0.39555  0.39532  0.91496  1.0000
  H   H1775     1.0  0.38251  0.41425  0.92981  1.0000
  H   H1776     1.0  0.39724  0.50593  0.97124  1.0000
  H   H1777     1.0  0.99910  0.54415  0.89157  1.0000
  H   H1778     1.0  0.03971  0.48023  0.70751  1.0000
  H   H1779     1.0  0.21161  0.49740  0.86882  1.0000
  H   H1780     1.0  0.44578  0.50504  0.92590  1.0000
  C   C1479     1.0  0.29271  0.42031  0.88211  1.0000
  C   C1480     1.0  0.27816  0.42839  0.88141  1.0000
  C   C1481     1.0  0.26714  0.42120  0.88179  1.0000
  C   C1482     1.0  0.27069  0.40590  0.88286  1.0000
  C   C1483     1.0  0.28512  0.39779  0.88395  1.0000
  C   C1484     1.0  0.29616  0.40501  0.88338  1.0000
  H   H1781     1.0  0.27545  0.44026  0.88015  1.0000
  H   H1782     1.0  0.25600  0.42754  0.88094  1.0000
  C   C1485     1.0  0.17369  0.42067  0.78286  1.0000
  H   H1783     1.0  0.30734  0.39870  0.88393  1.0000
  C   C1486     1.0  0.32664  0.50168  0.86930  1.0000
  C   C1487     1.0  0.33540  0.51086  0.85876  1.0000
  C   C1488     1.0  0.34939  0.51104  0.86052  1.0000
  C   C1489     1.0  0.35465  0.50238  0.87304  1.0000
  C   C1490     1.0  0.34580  0.49335  0.88379  1.0000
  C   C1491     1.0  0.33192  0.49279  0.88179  1.0000
  H   H1784     1.0  0.33141  0.51776  0.84908  1.0000
  H   H1785     1.0  0.35615  0.51802  0.85213  1.0000
  H   H1786     1.0  0.34967  0.48671  0.89355  1.0000
  H   H1787     1.0  0.32517  0.48575  0.89002  1.0000
  C   C1492     1.0  0.41926  0.52724  0.90743  1.0000
  C   C1493     1.0  0.23404  0.39816  0.75641  1.0000
  C   C1494     1.0  0.23528  0.48548  0.95927  1.0000
  C   C1495     1.0  0.23935  0.49042  0.94393  1.0000
  C   C1496     1.0  0.25342  0.48423  0.93607  1.0000
  C   C1497     1.0  0.26355  0.47338  0.94360  1.0000
  C   C1498     1.0  0.25938  0.46832  0.95889  1.0000
  C   C1499     1.0  0.00866  0.50633  0.70058  1.0000
  H   H1788     1.0  0.40622  0.49984  0.95435  1.0000
  C   C1500     1.0  0.28995  0.49558  0.96050  1.0000
  C   C1501     1.0  0.17299  0.55173  0.63007  1.0000
  C   C1502     1.0  0.15006  0.54753  0.91283  1.0000
  C   C1503     1.0  0.15247  0.54629  0.92686  1.0000
  C   C1504     1.0  0.16642  0.54696  0.92850  1.0000
  H   H1789     1.0  0.09436  0.52913  0.78547  1.0000
  C   C1505     1.0  0.16155  0.54994  0.90038  1.0000
  H   H1790     1.0  0.14355  0.54461  0.93653  1.0000
  H   H1791     1.0  0.15961  0.55132  0.88953  1.0000
  C   C1506     1.0  0.24237  0.49050  0.83192  1.0000
  C   C1507     1.0  0.23413  0.48062  0.84209  1.0000
  C   C1508     1.0  0.23511  0.47667  0.85700  1.0000
  C   C1509     1.0  0.24460  0.48229  0.86169  1.0000
  C   C1510     1.0  0.25323  0.49173  0.85141  1.0000
  C   C1511     1.0  0.25196  0.49597  0.83661  1.0000
  H   H1792     1.0  0.22674  0.47633  0.83856  1.0000
  H   H1793     1.0  0.22845  0.46933  0.86493  1.0000
  H   H1794     1.0  0.26060  0.49609  0.85493  1.0000
  H   H1795     1.0  0.25842  0.50354  0.82876  1.0000
  C   C1512     1.0  0.22720  0.42390  0.80241  1.0000
  C   C1513     1.0  0.21307  0.43016  0.80999  1.0000
  H   H1796     1.0  0.07606  0.53325  0.77070  1.0000
  H   H1797     1.0  0.20999  0.44183  0.80984  1.0000
  C   C1514     1.0  0.16962  0.48150  0.83308  1.0000
  C   C1515     1.0  0.15479  0.48871  0.83761  1.0000
  C   C1516     1.0  0.14977  0.49209  0.85159  1.0000
  C   C1517     1.0  0.15948  0.48801  0.86120  1.0000
  C   C1518     1.0  0.17426  0.48045  0.85683  1.0000
  C   C1519     1.0  0.17939  0.47732  0.84268  1.0000
  H   H1798     1.0  0.14720  0.49188  0.83023  1.0000
  H   H1799     1.0  0.13827  0.49759  0.85505  1.0000
  H   H1800     1.0  0.18179  0.47730  0.86425  1.0000
  H   H1801     1.0  0.19085  0.47173  0.83921  1.0000
  H   H1802     1.0  0.02384  0.54457  0.63853  1.0000
  H   H1803     1.0  0.46439  0.56070  0.88674  1.0000
  C   C1520     1.0  0.43903  0.51510  0.92065  1.0000
  H   H1804     1.0  0.00698  0.49720  0.73416  1.0000
  C   C1521     1.0  0.17766  0.39100  0.68216  1.0000
  H   H1805     1.0  0.24362  0.50141  0.61409  1.0000
  H   H1806     1.0  0.31207  0.39055  0.82639  1.0000
  C   C1522     1.0  0.18178  0.41368  0.68515  1.0000
  S   S445      1.0  0.22091  0.53241  0.97327  1.0000
  C   C1523     1.0  0.20924  0.38952  0.65609  1.0000
  C   C1524     1.0  0.13130  0.54232  0.79975  1.0000
  C   C1525     1.0  0.13517  0.53251  0.81250  1.0000
  C   C1526     1.0  0.13880  0.53768  0.82291  1.0000
  C   C1527     1.0  0.13823  0.55274  0.82078  1.0000
  C   C1528     1.0  0.13561  0.56235  0.80742  1.0000
  C   C1529     1.0  0.13216  0.55713  0.79685  1.0000
  H   H1807     1.0  0.13484  0.52096  0.81463  1.0000
  H   H1808     1.0  0.14172  0.53003  0.83274  1.0000
  S   S446      1.0  0.00379  0.50128  0.87316  1.0000
  H   H1809     1.0  0.12933  0.56472  0.78692  1.0000
  C   C1530     1.0  0.16078  0.50016  0.71220  1.0000
  C   C1531     1.0  0.17433  0.50422  0.71004  1.0000
  C   C1532     1.0  0.17434  0.51835  0.71133  1.0000
  C   C1533     1.0  0.16079  0.52832  0.71499  1.0000
  C   C1534     1.0  0.14731  0.52431  0.71694  1.0000
  C   C1535     1.0  0.14730  0.51027  0.71556  1.0000
  H   H1810     1.0  0.18476  0.49635  0.70788  1.0000
  H   H1811     1.0  0.18480  0.52135  0.71001  1.0000
  H   H1812     1.0  0.13680  0.53199  0.71956  1.0000
  H   H1813     1.0  0.13679  0.50718  0.71728  1.0000
  C   C1536     1.0  0.22860  0.47118  0.72042  1.0000
  C   C1537     1.0  0.23566  0.46750  0.73226  1.0000
  C   C1538     1.0  0.23139  0.47657  0.74250  1.0000
  C   C1539     1.0  0.22064  0.48978  0.74045  1.0000
  C   C1540     1.0  0.21393  0.49372  0.72832  1.0000
  C   C1541     1.0  0.21760  0.48424  0.71855  1.0000
  H   H1814     1.0  0.24430  0.45750  0.73366  1.0000
  H   H1815     1.0  0.23668  0.47350  0.75179  1.0000
  H   H1816     1.0  0.20574  0.50401  0.72658  1.0000
  H   H1817     1.0  0.21213  0.48720  0.70943  1.0000
  S   S447      1.0  0.46424  0.55194  0.93890  1.0000
  H   H1818     1.0  0.19683  0.44146  0.65953  1.0000
  C   C1542     1.0  0.24720  0.49727  0.64954  1.0000
  H   H1819     1.0  0.38794  0.53166  0.92957  1.0000
  C   C1543     1.0  0.19858  0.42279  0.78066  1.0000
  H   H1820     1.0  0.25178  0.56241  0.52323  1.0000
  H   H1821     1.0  0.22580  0.44088  0.74329  1.0000
  H   H1822     1.0  0.22493  0.43147  0.62673  1.0000
  C   C1544     1.0  0.18984  0.40546  0.69594  1.0000
  N   N97       1.0  0.31739  0.39995  0.92247  1.0000
  H   H1823     1.0  0.21267  0.47548  0.89361  1.0000
  C   C1545     1.0  0.17764  0.50001  0.77510  1.0000
  C   C1546     1.0  0.22037  0.40003  0.66906  1.0000
  H   H1824     1.0  0.44030  0.53189  0.87472  1.0000
  H   H1825     1.0  0.33345  0.53945  0.88626  1.0000
  H   H1826     1.0  0.03775  0.47964  0.66174  1.0000
  C   C1547     1.0  0.18929  0.54637  0.51141  1.0000
  C   C1548     1.0  0.44157  0.52893  0.92021  1.0000
  C   C1549     1.0  0.17101  0.45790  0.74659  1.0000
  C   C1550     1.0  0.20984  0.52073  0.62546  1.0000
  C   C1551     1.0  0.20923  0.51161  0.61677  1.0000
  C   C1552     1.0  0.20802  0.49687  0.62328  1.0000
  C   C1553     1.0  0.20708  0.49135  0.63851  1.0000
  C   C1554     1.0  0.20708  0.50073  0.64719  1.0000
  C   C1555     1.0  0.20867  0.51529  0.64069  1.0000
  H   H1827     1.0  0.21016  0.51575  0.60499  1.0000
  H   H1828     1.0  0.20800  0.48969  0.61646  1.0000
  H   H1829     1.0  0.20624  0.49670  0.65886  1.0000
  H   H1830     1.0  0.20917  0.52230  0.64744  1.0000
  C   C1556     1.0  0.05639  0.51272  0.86635  1.0000
  C   C1557     1.0  0.04907  0.52658  0.86949  1.0000
  C   C1558     1.0  0.05659  0.53456  0.87402  1.0000
  C   C1559     1.0  0.07157  0.52890  0.87514  1.0000
  C   C1560     1.0  0.07904  0.51524  0.87157  1.0000
  C   C1561     1.0  0.07142  0.50713  0.86732  1.0000
  H   H1831     1.0  0.03767  0.53116  0.86837  1.0000
  H   H1832     1.0  0.05078  0.54517  0.87669  1.0000
  H   H1833     1.0  0.09059  0.51078  0.87239  1.0000
  H   H1834     1.0  0.07718  0.49642  0.86485  1.0000
  C   C1562     1.0  0.07343  0.52767  0.78219  1.0000
  C   C1563     1.0  0.05984  0.52278  0.78848  1.0000
  H   H1835     1.0  0.35065  0.40631  0.88453  1.0000
  H   H1836     1.0  0.33432  0.43103  0.88582  1.0000
  C   C1564     1.0  0.04857  0.56222  0.73129  1.0000
  C   C1565     1.0  0.05302  0.54800  0.72848  1.0000
  C   C1566     1.0  0.06694  0.53915  0.73059  1.0000
  C   C1567     1.0  0.07646  0.54457  0.73536  1.0000
  C   C1568     1.0  0.07217  0.55895  0.73778  1.0000
  C   C1569     1.0  0.05814  0.56774  0.73588  1.0000
  H   H1837     1.0  0.04580  0.54380  0.72463  1.0000
  H   H1838     1.0  0.07031  0.52807  0.72858  1.0000
  H   H1839     1.0  0.07952  0.56322  0.74138  1.0000
  C   C1570     1.0  0.23341  0.57764  0.50515  1.0000
  C   C1571     1.0  0.19136  0.39008  0.70019  1.0000
  H   H1840     1.0  0.33628  0.51390  0.92278  1.0000
  H   H1841     1.0  0.26395  0.49210  0.66991  1.0000
  H   H1842     1.0  0.18030  0.42556  0.68214  1.0000
  H   H1843     1.0  0.29420  0.40200  0.92266  1.0000
  N   N98       1.0  0.16195  0.54250  0.63316  1.0000
  Fe  Fe219     1.0  0.21044  0.57932  0.57243  1.0000
  C   C1572     1.0  0.16984  0.52794  0.62947  1.0000
  C   C1573     1.0  0.01267  0.51656  0.89726  1.0000
  C   C1574     1.0  0.15443  0.54033  0.64902  1.0000
  C   C1575     1.0  0.13874  0.54516  0.65403  1.0000
  C   C1576     1.0  0.16287  0.53305  0.66003  1.0000
  C   C1577     1.0  0.13199  0.54245  0.66910  1.0000
  C   C1578     1.0  0.15599  0.53038  0.67505  1.0000
  C   C1579     1.0  0.14057  0.53499  0.67956  1.0000
  H   H1844     1.0  0.00166  0.51911  0.89433  1.0000
  H   H1845     1.0  0.19885  0.39482  0.73551  1.0000
  H   H1846     1.0  0.02414  0.54575  0.65666  1.0000
  H   H1847     1.0  0.16194  0.52059  0.63186  1.0000
  H   H1848     1.0  0.17864  0.52196  0.63579  1.0000
  H   H1849     1.0  0.17561  0.52912  0.61759  1.0000
  H   H1850     1.0  0.04522  0.53367  0.83641  1.0000
  H   H1851     1.0  0.00137  0.53536  0.92473  1.0000
  H   H1852     1.0  0.15544  0.55771  0.68762  1.0000
  H   H1853     1.0  0.13140  0.55088  0.64653  1.0000
  C   C1580     1.0  0.22745  0.56619  0.50404  1.0000
  H   H1854     1.0  0.11997  0.54592  0.67270  1.0000
  H   H1855     1.0  0.16261  0.52444  0.68325  1.0000
  H   H1856     1.0  0.13523  0.53264  0.69120  1.0000
  C   C1581     1.0  0.08145  0.51806  0.80536  1.0000
  H   H1857     1.0  0.28777  0.38591  0.88538  1.0000
  H   H1858     1.0  0.05347  0.54630  0.76587  1.0000
  C   C1582     1.0  0.17941  0.55488  0.53866  1.0000
  N   N99       1.0  0.26172  0.41744  0.82811  1.0000
  C   C1583     1.0  0.26644  0.40390  0.83913  1.0000
  C   C1584     1.0  0.24539  0.41974  0.82981  1.0000
  C   C1585     1.0  0.26947  0.41443  0.81326  1.0000
  C   C1586     1.0  0.26499  0.43091  0.82982  1.0000
  C   C1587     1.0  0.26217  0.44449  0.81938  1.0000
  C   C1588     1.0  0.27035  0.43120  0.84204  1.0000
  C   C1589     1.0  0.26491  0.45742  0.82086  1.0000
  C   C1590     1.0  0.27310  0.44422  0.84336  1.0000
  C   C1591     1.0  0.27042  0.45727  0.83280  1.0000
  H   H1859     1.0  0.26027  0.40474  0.85058  1.0000
  H   H1860     1.0  0.26424  0.39400  0.83708  1.0000
  H   H1861     1.0  0.27863  0.40149  0.83858  1.0000
  H   H1862     1.0  0.23934  0.42119  0.84110  1.0000
  H   H1863     1.0  0.24244  0.41027  0.82769  1.0000
  H   H1864     1.0  0.24087  0.42983  0.82208  1.0000
  H   H1865     1.0  0.26577  0.42342  0.80413  1.0000
  H   H1866     1.0  0.28178  0.41282  0.81151  1.0000
  H   H1867     1.0  0.26731  0.40424  0.81172  1.0000
  H   H1868     1.0  0.25761  0.44529  0.81005  1.0000
  H   H1869     1.0  0.27248  0.42155  0.85075  1.0000
  H   H1870     1.0  0.26260  0.46769  0.81279  1.0000
  H   H1871     1.0  0.27723  0.44428  0.85270  1.0000
  H   H1872     1.0  0.27244  0.46735  0.83397  1.0000
  C   C1592     1.0  0.35067  0.54802  0.97250  1.0000
  H   H1873     1.0  0.03884  0.50405  0.90119  1.0000
  H   H1874     1.0  0.17722  0.42923  0.80470  1.0000
  H   H1875     1.0  0.41559  0.55105  0.90101  1.0000
  N   N100      1.0  0.39153  0.52158  0.95170  1.0000
  H   H1876     1.0  0.34491  0.45222  0.88243  1.0000
  S   S448      1.0  0.00816  0.54574  0.81361  1.0000
  C   C1593     1.0  0.40422  0.52868  0.94908  1.0000
  C   C1594     1.0  0.37760  0.53050  0.95914  1.0000
  H   H1877     1.0  0.31298  0.39304  0.94620  1.0000
  H   H1878     1.0  0.24018  0.56798  0.53987  1.0000
  C   C1595     1.0  0.02698  0.51566  0.66449  1.0000
  C   C1596     1.0  0.04577  0.53412  0.91626  1.0000
  H   H1879     1.0  0.21077  0.57506  0.52956  1.0000
  C   C1597     1.0  0.05418  0.51109  0.90820  1.0000
  H   H1880     1.0  0.24423  0.50687  0.96674  1.0000
  H   H1881     1.0  0.10052  0.55980  0.80571  1.0000
  H   H1882     1.0  0.19975  0.45253  0.76995  1.0000
  Fe  Fe220     1.0  0.48267  0.56400  0.92636  1.0000
  C   C1598     1.0  0.24517  0.47419  0.96668  1.0000
  C   C1599     1.0  0.30488  0.49620  0.95412  1.0000
  H   H1883     1.0  0.40522  0.53073  0.95950  1.0000
  H   H1884     1.0  0.32146  0.50916  0.94807  1.0000
  C   C1600     1.0  0.39560  0.50616  0.96022  1.0000
  C   C1601     1.0  0.18052  0.46759  0.74292  1.0000
  C   C1602     1.0  0.23954  0.51709  0.87747  1.0000
  C   C1603     1.0  0.31680  0.39467  0.83296  1.0000
  H   H1885     1.0  0.24961  0.46673  0.65734  1.0000
  C   C1604     1.0  0.33442  0.43195  0.92116  1.0000
  C   C1605     1.0  0.24121  0.47346  0.66485  1.0000
  C   C1606     1.0  0.00259  0.48714  0.74032  1.0000
  Fe  Fe221     1.0  0.31551  0.58116  0.95881  1.0000
  H   H1886     1.0  0.21091  0.53870  0.51692  1.0000
  C   C1607     1.0  0.17180  0.44595  0.75877  1.0000
  H   H1887     1.0  0.25377  0.52936  0.97455  1.0000
  C   C1608     1.0  0.16922  0.55661  0.52991  1.0000
  Fe  Fe222     1.0  0.22923  0.54479  0.95043  1.0000
  H   H1888     1.0  0.33197  0.38469  0.87923  1.0000
  N   N101      1.0  0.16595  0.50038  0.91611  1.0000
  C   C1609     1.0  0.15820  0.48861  0.91737  1.0000
  C   C1610     1.0  0.15845  0.50754  0.92885  1.0000
  C   C1611     1.0  0.16385  0.51177  0.90248  1.0000
  C   C1612     1.0  0.18212  0.49402  0.91530  1.0000
  C   C1613     1.0  0.19087  0.48695  0.90363  1.0000
  C   C1614     1.0  0.18968  0.49468  0.92580  1.0000
  C   C1615     1.0  0.20618  0.48092  0.90256  1.0000
  C   C1616     1.0  0.20498  0.48856  0.92465  1.0000
  C   C1617     1.0  0.21321  0.48170  0.91305  1.0000
  H   H1889     1.0  0.15989  0.47953  0.92723  1.0000
  H   H1890     1.0  0.14594  0.49303  0.91831  1.0000
  H   H1891     1.0  0.16215  0.48362  0.90750  1.0000
  H   H1892     1.0  0.15885  0.49946  0.93959  1.0000
  H   H1893     1.0  0.14642  0.51268  0.92886  1.0000
  H   H1894     1.0  0.16361  0.51668  0.92843  1.0000
  H   H1895     1.0  0.16753  0.50707  0.89245  1.0000
  H   H1896     1.0  0.15185  0.51740  0.90306  1.0000
  H   H1897     1.0  0.17012  0.52043  0.90072  1.0000
  H   H1898     1.0  0.18589  0.48600  0.89526  1.0000
  H   H1899     1.0  0.18404  0.49979  0.93510  1.0000
  C   C1618     1.0  0.31440  0.41386  0.84567  1.0000
  H   H1900     1.0  0.21045  0.48899  0.93292  1.0000
  H   H1901     1.0  0.22506  0.47688  0.91223  1.0000
  C   C1619     1.0  0.14312  0.49285  0.75381  1.0000
  H   H1902     1.0  0.19108  0.39871  0.88151  1.0000
  H   H1903     1.0  0.17151  0.49703  0.78675  1.0000
  C   C1620     1.0  0.00958  0.48368  0.69358  1.0000
  C   C1621     1.0  0.17718  0.51466  0.75059  1.0000
  H   H1904     1.0  0.18586  0.52029  0.75066  1.0000
  C   C1622     1.0  0.22569  0.40481  0.74524  1.0000
  N   N102      1.0  0.20299  0.43142  0.64071  1.0000
  S   S449      1.0  0.21848  0.49411  0.96953  1.0000
  H   H1905     1.0  0.31831  0.53971  0.92618  1.0000
  H   H1906     1.0  0.16264  0.50089  0.74284  1.0000
  H   H1907     1.0  0.41079  0.52670  0.90229  1.0000
  H   H1908     1.0  0.18343  0.50474  0.74602  1.0000
  H   H1909     1.0  0.36230  0.53020  0.92233  1.0000
  C   C1623     1.0  0.03518  0.51968  0.78757  1.0000
  C   C1624     1.0  0.14460  0.50090  0.77885  1.0000
  H   H1910     1.0  0.04408  0.49730  0.67198  1.0000
  H   H1911     1.0  0.23230  0.48724  0.68636  1.0000
  C   C1625     1.0  0.13218  0.49066  0.76672  1.0000
  H   H1912     1.0  0.33030  0.52261  0.96333  1.0000
  C   C1626     1.0  0.22799  0.42895  0.74707  1.0000
  Fe  Fe223     1.0  0.45478  0.57145  0.94980  1.0000
  H   H1913     1.0  0.14579  0.56136  0.62458  1.0000
  C   C1627     1.0  0.25391  0.54612  0.90385  1.0000
  H   H1914     1.0  0.05513  0.56362  0.79469  1.0000
  C   C1628     1.0  0.38968  0.52067  0.93730  1.0000
  C   C1629     1.0  0.17760  0.56767  0.66493  1.0000
  H   H1915     1.0  0.19165  0.39747  0.86312  1.0000
  H   H1916     1.0  0.31426  0.38659  0.90947  1.0000
  S   S450      1.0  0.41967  0.39537  0.88891  1.0000
  H   H1917     1.0  0.38695  0.49985  0.96168  1.0000
  H   H1918     1.0  0.38936  0.42335  0.87655  1.0000
  C   C1630     1.0  0.31031  0.52128  0.91454  1.0000
  H   H1919     1.0  0.18514  0.44485  0.79454  1.0000
  C   C1631     1.0  0.03171  0.49110  0.66013  1.0000
  S   S451      1.0  0.47435  0.58211  0.93894  1.0000
  H   H1920     1.0  0.29715  0.41394  0.93224  1.0000
  H   H1921     1.0  0.32340  0.40145  0.89903  1.0000
  H   H1922     1.0  0.13545  0.57398  0.80561  1.0000
  H   H1923     1.0  0.00982  0.55857  0.78276  1.0000
  H   H1924     1.0  0.31262  0.48687  0.95001  1.0000
  H   H1925     1.0  0.28656  0.48574  0.96065  1.0000
  H   H1926     1.0  0.01096  0.56052  0.67975  1.0000
  H   H1927     1.0  0.01044  0.55845  0.64749  1.0000
  C   C1632     1.0  0.18809  0.56649  0.65166  1.0000
  H   H1928     1.0  0.19926  0.41337  0.79037  1.0000
  C   C1633     1.0  0.18224  0.44343  0.76768  1.0000
  H   H1929     1.0  0.00545  0.41215  0.68876  1.0000
  Fe  Fe224     1.0  0.01663  0.53031  0.71944  1.0000
  Fe  Fe225     1.0  0.00511  0.53002  0.83589  1.0000
  Fe  Fe226     1.0  0.45161  0.56602  0.92158  1.0000
  C   C1634     1.0  0.30192  0.40887  0.92242  1.0000
  C   C1635     1.0  0.00972  0.54248  0.89511  1.0000
  H   H1930     1.0  0.21517  0.39379  0.84529  1.0000
  H   H1931     1.0  0.16628  0.44515  0.79461  1.0000
  C   C1636     1.0  0.06826  0.51308  0.81190  1.0000
  C   C1637     1.0  0.17545  0.55081  0.90200  1.0000
  Fe  Fe227     1.0  0.20176  0.54533  0.93979  1.0000
  H   H1932     1.0  0.17502  0.41139  0.79268  1.0000
  H   H1933     1.0  0.24198  0.48373  0.63750  1.0000
  C   C1638     1.0  0.45033  0.52718  0.87908  1.0000
  H   H1934     1.0  0.17900  0.55868  0.67444  1.0000
  C   C1639     1.0  0.34345  0.40177  0.92137  1.0000
  S   S452      1.0  0.03062  0.50955  0.71225  1.0000
  Fe  Fe228     1.0  0.21383  0.51887  0.96217  1.0000
  H   H1935     1.0  0.04756  0.51135  0.80950  1.0000
  S   S453      1.0  0.32810  0.57430  0.93739  1.0000
  H   H1936     1.0  0.24012  0.46614  0.67611  1.0000
  H   H1937     1.0  0.20058  0.41312  0.73345  1.0000
  C   C1640     1.0  0.08403  0.52533  0.79054  1.0000
  C   C1641     1.0  0.23113  0.40873  0.80284  1.0000
  H   H1938     1.0  0.31359  0.54141  0.88904  1.0000
  H   H1939     1.0  0.17862  0.55395  0.61818  1.0000
  N   N103      1.0  0.16781  0.51059  0.76558  1.0000
  C   C1642     1.0  0.16252  0.58089  0.69163  1.0000
  H   H1940     1.0  0.23017  0.47604  0.66186  1.0000
  C   C1643     1.0  0.20270  0.42134  0.81756  1.0000
  H   H1941     1.0  0.23492  0.50878  0.90746  1.0000
  H   H1942     1.0  0.03560  0.54371  0.76652  1.0000
  C   C1644     1.0  0.05588  0.51771  0.76686  1.0000
  H   H1943     1.0  0.25958  0.47470  0.67988  1.0000
  H   H1944     1.0  0.12304  0.48596  0.76697  1.0000
  H   H1945     1.0  0.46961  0.49399  0.89478  1.0000
  H   H1946     1.0  0.19311  0.54281  0.50106  1.0000
  H   H1947     1.0  0.06622  0.50751  0.82350  1.0000
  C   C1645     1.0  0.30917  0.40819  0.83681  1.0000
  H   H1948     1.0  0.27732  0.54592  0.89878  1.0000
  C   C1646     1.0  0.28607  0.50676  0.92432  1.0000
  H   H1949     1.0  0.45013  0.52945  0.92523  1.0000
  H   H1950     1.0  0.16306  0.45963  0.73982  1.0000
  N   N104      1.0  0.04887  0.52529  0.77932  1.0000
  H   H1951     1.0  0.15746  0.56106  0.53379  1.0000
  C   C1647     1.0  0.02291  0.47718  0.69843  1.0000
  H   H1952     1.0  0.25653  0.48815  0.92427  1.0000
  Fe  Fe229     1.0  0.16586  0.56220  0.48166  1.0000
  S   S454      1.0  0.19886  0.41393  0.70375  1.0000
  C   C1648     1.0  0.00279  0.55065  0.78609  1.0000
  N   N105      1.0  0.23263  0.58005  0.51985  1.0000
  C   C1649     1.0  0.05755  0.51540  0.80366  1.0000
  C   C1650     1.0  0.03160  0.53575  0.91381  1.0000
  H   H1953     1.0  0.18267  0.48956  0.77109  1.0000
  H   H1954     1.0  0.37802  0.40277  0.88004  1.0000
  H   H1955     1.0  0.02938  0.57110  0.65876  1.0000
  N   N106      1.0  0.18866  0.52538  0.82991  1.0000
  C   C1651     1.0  0.17737  0.53909  0.82594  1.0000
  C   C1652     1.0  0.20276  0.52625  0.81864  1.0000
  C   C1653     1.0  0.18305  0.51280  0.82917  1.0000
  C   C1654     1.0  0.19151  0.52307  0.84479  1.0000
  C   C1655     1.0  0.18483  0.53355  0.85388  1.0000
  C   C1656     1.0  0.20138  0.51003  0.85055  1.0000
  C   C1657     1.0  0.18766  0.53089  0.86794  1.0000
  C   C1658     1.0  0.20410  0.50748  0.86464  1.0000
  C   C1659     1.0  0.19717  0.51785  0.87335  1.0000
  H   H1956     1.0  0.18105  0.54922  0.82541  1.0000
  H   H1957     1.0  0.17505  0.54034  0.81493  1.0000
  H   H1958     1.0  0.16651  0.53896  0.83405  1.0000
  H   H1959     1.0  0.20760  0.53527  0.81915  1.0000
  H   H1960     1.0  0.20103  0.52835  0.80724  1.0000
  H   H1961     1.0  0.21144  0.51581  0.82013  1.0000
  H   H1962     1.0  0.19156  0.50223  0.83014  1.0000
  H   H1963     1.0  0.17300  0.51119  0.83817  1.0000
  H   H1964     1.0  0.17979  0.51454  0.81851  1.0000
  H   H1965     1.0  0.17717  0.54383  0.85051  1.0000
  H   H1966     1.0  0.20706  0.50171  0.84414  1.0000
  H   H1967     1.0  0.18229  0.53899  0.87469  1.0000
  H   H1968     1.0  0.19916  0.51575  0.88433  1.0000
  N   N107      1.0  0.08691  0.55364  0.82741  1.0000
  C   C1660     1.0  0.09556  0.56390  0.81611  1.0000
  C   C1661     1.0  0.08146  0.55958  0.84102  1.0000
  C   C1662     1.0  0.09735  0.53909  0.83054  1.0000
  C   C1663     1.0  0.07411  0.55183  0.82279  1.0000
  C   C1664     1.0  0.06477  0.54240  0.83244  1.0000
  C   C1665     1.0  0.07040  0.55934  0.80891  1.0000
  C   C1666     1.0  0.05220  0.54094  0.82876  1.0000
  C   C1667     1.0  0.05783  0.55774  0.80527  1.0000
  C   C1668     1.0  0.04867  0.54868  0.81523  1.0000
  S   S455      1.0  0.19158  0.57921  0.56305  1.0000
  C   C1669     1.0  0.05408  0.58192  0.68718  1.0000
  H   H1969     1.0  0.10502  0.56504  0.82000  1.0000
  H   H1970     1.0  0.09079  0.56114  0.84482  1.0000
  N   N108      1.0  0.26398  0.50649  0.97344  1.0000
  H   H1971     1.0  0.07574  0.55205  0.85045  1.0000
  H   H1972     1.0  0.10148  0.53405  0.82068  1.0000
  H   H1973     1.0  0.10729  0.54017  0.83367  1.0000
  H   H1974     1.0  0.09219  0.53107  0.83994  1.0000
  S   S456      1.0  0.19567  0.55014  0.91755  1.0000
  H   H1975     1.0  0.07698  0.56653  0.80068  1.0000
  H   H1976     1.0  0.17997  0.47670  0.73336  1.0000
  C   C1670     1.0  0.99761  0.41746  0.69728  1.0000
  H   H1977     1.0  0.03887  0.54756  0.81245  1.0000
  C   C1671     1.0  0.24595  0.57055  0.97619  1.0000
  H   H1978     1.0  0.19166  0.42630  0.82311  1.0000
  Fe  Fe230     1.0  0.19786  0.43837  0.69607  1.0000
  C   C1672     1.0  0.31223  0.50640  0.91362  1.0000
  C   C1673     1.0  0.43329  0.54195  0.91291  1.0000
  H   H1979     1.0  0.39958  0.51342  0.93166  1.0000
  C   C1674     1.0  0.24617  0.53190  0.89094  1.0000
  N   N109      1.0  0.24576  0.48714  0.66431  1.0000
  C   C1675     1.0  0.01828  0.57774  0.66185  1.0000
  H   H1980     1.0  0.24215  0.40376  0.79726  1.0000
  H   H1981     1.0  0.20624  0.42936  0.78109  1.0000
  S   S457      1.0  0.19777  0.57479  0.59585  1.0000
  C   C1676     1.0  0.28490  0.52051  0.96413  1.0000
  H   H1982     1.0  0.15618  0.52211  0.78331  1.0000
  S   S458      1.0  0.47078  0.57655  0.90805  1.0000
  H   H1983     1.0  0.05463  0.57869  0.73818  1.0000
  H   H1984     1.0  0.23140  0.54473  0.90693  1.0000
  C   C1677     1.0  0.20793  0.41632  0.64937  1.0000
  C   C1678     1.0  0.34724  0.54964  0.92881  1.0000
  C   C1679     1.0  0.32041  0.54247  0.91388  1.0000
  S   S459      1.0  0.25212  0.54995  0.94316  1.0000
  H   H1985     1.0  0.44757  0.50485  0.88370  1.0000
  C   C1680     1.0  0.04009  0.51265  0.90559  1.0000
  H   H1986     1.0  0.00255  0.51298  0.64582  1.0000
  N   N110      1.0  0.18297  0.43137  0.78107  1.0000
  H   H1987     1.0  0.01865  0.54404  0.88493  1.0000
  C   C1681     1.0  0.32816  0.40871  0.92176  1.0000
  H   H1988     1.0  0.48399  0.52719  0.90938  1.0000
  H   H1989     1.0  0.25568  0.51891  0.95405  1.0000
  H   H1990     1.0  0.00337  0.48070  0.73215  1.0000
  C   C1682     1.0  0.24004  0.56630  0.52896  1.0000
  H   H1991     1.0  0.34630  0.52552  0.90758  1.0000
  H   H1992     1.0  0.14310  0.54348  0.62446  1.0000
  C   C1683     1.0  0.14741  0.56846  0.68518  1.0000
  C   C1684     1.0  0.32899  0.54529  0.95165  1.0000
  H   H1993     1.0  0.19778  0.40125  0.75156  1.0000
  C   C1685     1.0  0.00205  0.52676  0.91881  1.0000
  H   H1994     1.0  0.08853  0.57524  0.81354  1.0000
  Fe  Fe231     1.0  0.17974  0.57267  0.58659  1.0000
  H   H1995     1.0  0.07339  0.57042  0.83927  1.0000
  H   H1996     1.0  0.99722  0.57347  0.61397  1.0000
  H   H1997     1.0  0.14189  0.56794  0.67668  1.0000
  H   H1998     1.0  0.02322  0.54542  0.91628  1.0000
  H   H1999     1.0  0.40315  0.53945  0.94091  1.0000
  H   H2000     1.0  0.33091  0.44365  0.92120  1.0000
  Fe  Fe232     1.0  0.19896  0.54805  0.97144  1.0000
  C   C1686     1.0  0.22740  0.39792  0.72252  1.0000
  H   H2001     1.0  0.17032  0.53033  0.77022  1.0000
  C   C1687     1.0  0.15568  0.50375  0.76575  1.0000
  H   H2002     1.0  0.26522  0.52099  0.87577  1.0000
  H   H2003     1.0  0.21820  0.42331  0.66307  1.0000
  C   C1688     1.0  0.02927  0.48530  0.70399  1.0000
  S   S460      1.0  0.35367  0.50536  0.94580  1.0000
  S   S461      1.0  0.42570  0.49656  0.91423  1.0000
  H   H2004     1.0  0.23285  0.56066  0.96841  1.0000
  C   C1689     1.0  0.24903  0.51765  0.62178  1.0000
  S   S462      1.0  0.19269  0.39580  0.82482  1.0000
  C   C1690     1.0  0.17413  0.55236  0.51627  1.0000
  C   C1691     1.0  0.27115  0.57052  0.96185  1.0000
  C   C1692     1.0  0.42793  0.51419  0.91420  1.0000
  H   H2005     1.0  0.32291  0.50013  0.90898  1.0000
  H   H2006     1.0  0.18817  0.45211  0.64466  1.0000
  H   H2007     1.0  0.02700  0.52207  0.78049  1.0000
  H   H2008     1.0  0.00062  0.43935  0.68561  1.0000
  C   C1693     1.0  0.99544  0.54033  0.64624  1.0000
  H   H2009     1.0  0.23164  0.49895  0.93814  1.0000
  H   H2010     1.0  0.23034  0.51313  0.87589  1.0000
  H   H2011     1.0  0.36544  0.40413  0.92054  1.0000
  C   C1694     1.0  0.05707  0.52188  0.91335  1.0000
  C   C1695     1.0  0.25598  0.50797  0.96187  1.0000
  H   H2012     1.0  0.34752  0.39007  0.92152  1.0000
  H   H2013     1.0  0.30200  0.48795  0.91754  1.0000
  H   H2014     1.0  0.23975  0.39411  0.72098  1.0000
  C   C1696     1.0  0.24276  0.54119  0.90106  1.0000
  H   H2015     1.0  0.27683  0.50123  0.92792  1.0000
  C   C1697     1.0  0.29564  0.52855  0.92070  1.0000
  H   H2016     1.0  0.37571  0.44905  0.89882  1.0000
  H   H2017     1.0  0.16818  0.54589  0.93937  1.0000
  H   H2018     1.0  0.23988  0.42866  0.76313  1.0000
  H   H2019     1.0  0.30361  0.53104  0.95629  1.0000
  H   H2020     1.0  0.00451  0.51578  0.92646  1.0000
  H   H2021     1.0  0.17486  0.52912  0.65709  1.0000
  C   C1698     1.0  0.23438  0.49483  0.67532  1.0000
  C   C1699     1.0  0.13295  0.49462  0.77923  1.0000
  H   H2022     1.0  0.17094  0.57039  0.69387  1.0000
  H   H2023     1.0  0.28172  0.57358  0.95972  1.0000
  C   C1700     1.0  0.22071  0.39994  0.81031  1.0000
  H   H2024     1.0  0.06584  0.52180  0.75961  1.0000
  H   H2025     1.0  0.22355  0.49937  0.67181  1.0000
  H   H2026     1.0  0.18423  0.55291  0.89233  1.0000
  H   H2027     1.0  0.01043  0.48021  0.74750  1.0000
  C   C1701     1.0  0.35937  0.55424  0.95929  1.0000
  H   H2028     1.0  0.19826  0.47294  0.74854  1.0000
  H   H2029     1.0  0.21385  0.53628  0.88020  1.0000
  C   C1702     1.0  0.22292  0.53969  0.88264  1.0000
  C   C1703     1.0  0.33723  0.51933  0.91088  1.0000
  H   H2030     1.0  0.21275  0.44958  0.62649  1.0000
  C   C1704     1.0  0.25502  0.55937  0.95487  1.0000
  C   C1705     1.0  0.01167  0.51031  0.65133  1.0000
  H   H2031     1.0  0.31258  0.43043  0.92184  1.0000
  C   C1706     1.0  0.23899  0.40672  0.76279  1.0000
  H   H2032     1.0  0.26137  0.49936  0.95528  1.0000
  H   H2033     1.0  0.26714  0.45985  0.96472  1.0000
  H   H2034     1.0  0.32611  0.52410  0.88678  1.0000
  H   H2035     1.0  0.35741  0.43082  0.92060  1.0000
  H   H2036     1.0  0.34156  0.51061  0.90437  1.0000
  C   C1707     1.0  0.27964  0.50750  0.96629  1.0000
  C   C1708     1.0  0.23594  0.42209  0.75818  1.0000
  S   S463      1.0  0.22422  0.52977  0.93951  1.0000
  C   C1709     1.0  0.35309  0.53433  0.93059  1.0000
  H   H2037     1.0  0.29912  0.41430  0.83294  1.0000
  C   C1710     1.0  0.30029  0.49929  0.91845  1.0000
  C   C1711     1.0  0.19448  0.54833  0.53405  1.0000
  H   H2038     1.0  0.27268  0.52710  0.93007  1.0000
  H   H2039     1.0  0.45446  0.54819  0.87666  1.0000
  H   H2040     1.0  0.22822  0.54672  0.87234  1.0000
  S   S464      1.0  0.38389  0.50998  0.90747  1.0000
  H   H2041     1.0  0.00088  0.53818  0.63501  1.0000
  H   H2042     1.0  0.12440  0.49296  0.78927  1.0000
  C   C1712     1.0  0.31671  0.38821  0.93622  1.0000
  H   H2043     1.0  0.23782  0.50414  0.67712  1.0000
  C   C1713     1.0  0.33504  0.53010  0.95363  1.0000
  H   H2044     1.0  0.22083  0.52506  0.91071  1.0000
  H   H2045     1.0  0.14251  0.48975  0.74407  1.0000
  C   C1714     1.0  0.33521  0.55515  0.93944  1.0000
  C   C1715     1.0  0.42203  0.54103  0.90670  1.0000
  C   C1716     1.0  0.28378  0.52130  0.92553  1.0000
  H   H2046     1.0  0.21731  0.54687  0.89071  1.0000
  C   C1717     1.0  0.26026  0.48257  0.66887  1.0000
  C   C1718     1.0  0.25157  0.52119  0.63373  1.0000
  H   H2047     1.0  0.21801  0.51346  0.90083  1.0000
  H   H2048     1.0  0.35556  0.56569  0.95393  1.0000
  C   C1719     1.0  0.22668  0.51815  0.90242  1.0000
  C   C1720     1.0  0.48007  0.53874  0.90353  1.0000
  C   C1721     1.0  0.32404  0.53375  0.89183  1.0000
  S   S465      1.0  0.15647  0.58321  0.59704  1.0000
  C   C1722     1.0  0.16154  0.52432  0.77136  1.0000
  S   S466      1.0  0.43714  0.55952  0.91038  1.0000
  N   N111      1.0  0.32276  0.52910  0.90802  1.0000
  N   N112      1.0  0.23413  0.52674  0.88832  1.0000
  H   H2049     1.0  0.02849  0.46591  0.69762  1.0000
  H   H2050     1.0  0.17031  0.52241  0.74284  1.0000
  C   C1723     1.0  0.19168  0.45360  0.76363  1.0000
  H   H2051     1.0  0.06473  0.57940  0.70444  1.0000
  H   H2052     1.0  0.15301  0.53205  0.76536  1.0000
  H   H2053     1.0  0.18200  0.43576  0.65615  1.0000
  H   H2054     1.0  0.05083  0.57136  0.69189  1.0000
  H   H2055     1.0  0.25394  0.53190  0.63241  1.0000
  C   C1724     1.0  0.20469  0.40355  0.64745  1.0000
  C   C1725     1.0  0.17578  0.40644  0.67818  1.0000
  H   H2056     1.0  0.03779  0.50748  0.79184  1.0000
  S   S467      1.0  0.03100  0.57305  0.72915  1.0000
  H   H2057     1.0  0.05967  0.50558  0.77094  1.0000
  H   H2058     1.0  0.02923  0.52506  0.79704  1.0000
  H   H2059     1.0  0.03897  0.54750  0.78233  1.0000
  C   C1726     1.0  0.21598  0.43845  0.63363  1.0000
  H   H2060     1.0  0.02976  0.52272  0.66977  1.0000
  H   H2061     1.0  0.19825  0.40406  0.63969  1.0000
  H   H2062     1.0  0.27771  0.56011  0.94325  1.0000
  C   C1727     1.0  0.26144  0.52796  0.88370  1.0000
  H   H2063     1.0  0.18207  0.54631  0.63617  1.0000
  H   H2064     1.0  0.29295  0.53987  0.92184  1.0000
  C   C1728     1.0  0.20638  0.40630  0.81742  1.0000
  H   H2065     1.0  0.24479  0.52298  0.86639  1.0000
  H   H2066     1.0  0.04801  0.51944  0.75962  1.0000
  H   H2067     1.0  0.25279  0.51444  0.65634  1.0000
  H   H2068     1.0  0.20322  0.41818  0.77057  1.0000
  C   C1729     1.0  0.22301  0.42048  0.74062  1.0000
  C   C1730     1.0  0.34933  0.42476  0.92082  1.0000
  C   C1731     1.0  0.18697  0.57778  0.63907  1.0000
  C   C1732     1.0  0.45440  0.51193  0.88413  1.0000
  H   H2069     1.0  0.23421  0.55711  0.53154  1.0000
  S   S468      1.0  0.16096  0.55300  0.50632  1.0000
  H   H2070     1.0  0.30150  0.41782  0.91227  1.0000
  H   H2071     1.0  0.24535  0.40131  0.77131  1.0000
  H   H2072     1.0  0.25100  0.55314  0.91174  1.0000
  H   H2073     1.0  0.99589  0.49101  0.76754  1.0000
  H   H2074     1.0  0.23695  0.38632  0.76045  1.0000
  H   H2075     1.0  0.17694  0.41553  0.77310  1.0000
  C   C1733     1.0  0.15157  0.54996  0.62303  1.0000
  C   C1734     1.0  0.45865  0.53645  0.88026  1.0000
  C   C1735     1.0  0.17796  0.54923  0.91606  1.0000
  C   C1736     1.0  0.36841  0.52448  0.97262  1.0000
  H   H2076     1.0  0.16157  0.42598  0.78464  1.0000
  H   H2077     1.0  0.28412  0.52953  0.88111  1.0000
  H   H2078     1.0  0.06819  0.52092  0.91476  1.0000
  S   S469      1.0  0.20770  0.56149  0.94896  1.0000
  H   H2079     1.0  0.45915  0.38467  0.87177  1.0000
  H   H2080     1.0  0.31104  0.55143  0.91035  1.0000
  C   C1737     1.0  0.19202  0.44056  0.65069  1.0000
  Fe  Fe233     1.0  0.11218  0.57550  0.74219  1.0000
  C   C1738     1.0  0.25079  0.51115  0.64740  1.0000
  C   C1739     1.0  0.02222  0.49989  0.70505  1.0000
  N   N113      1.0  0.21323  0.39520  0.86776  1.0000
  H   H2081     1.0  0.33031  0.54760  0.90975  1.0000
  H   H2082     1.0  0.37996  0.51584  0.93884  1.0000
  C   C1740     1.0  0.26884  0.56298  0.95246  1.0000
  C   C1741     1.0  0.21321  0.41119  0.86399  1.0000
  C   C1742     1.0  0.22084  0.41742  0.87062  1.0000
  C   C1743     1.0  0.20563  0.42104  0.85311  1.0000
  C   C1744     1.0  0.22082  0.43254  0.86650  1.0000
  C   C1745     1.0  0.20562  0.43614  0.84912  1.0000
  C   C1746     1.0  0.21321  0.44188  0.85580  1.0000
  H   H2083     1.0  0.01404  0.50520  0.90439  1.0000
  H   H2084     1.0  0.35208  0.55722  0.91927  1.0000
  H   H2085     1.0  0.26923  0.47700  0.66074  1.0000
  C   C1747     1.0  0.01666  0.54667  0.64933  1.0000
  C   C1748     1.0  0.30985  0.50883  0.95288  1.0000
  C   C1749     1.0  0.17769  0.43793  0.79428  1.0000
  S   S470      1.0  0.44479  0.56809  0.97417  1.0000
  C   C1750     1.0  0.02842  0.52526  0.90802  1.0000
  H   H2086     1.0  0.37877  0.55090  0.94221  1.0000
  H   H2087     1.0  0.22696  0.41088  0.87900  1.0000
  H   H2088     1.0  0.19963  0.41709  0.84760  1.0000
  H   H2089     1.0  0.22679  0.43701  0.87167  1.0000
  H   H2090     1.0  0.19964  0.44343  0.84082  1.0000
  H   H2091     1.0  0.21318  0.45360  0.85270  1.0000
  N   N114      1.0  0.37459  0.45332  0.87605  1.0000
  C   C1751     1.0  0.39109  0.45045  0.87076  1.0000
  C   C1752     1.0  0.36818  0.46576  0.86489  1.0000
  C   C1753     1.0  0.37086  0.45802  0.89023  1.0000
  C   C1754     1.0  0.36829  0.44026  0.87837  1.0000
  C   C1755     1.0  0.37734  0.42576  0.87822  1.0000
  C   C1756     1.0  0.35257  0.44172  0.88148  1.0000
  C   C1757     1.0  0.37096  0.41372  0.88036  1.0000
  C   C1758     1.0  0.34635  0.42961  0.88357  1.0000
  C   C1759     1.0  0.35552  0.41567  0.88291  1.0000
  H   H2092     1.0  0.39467  0.44645  0.86030  1.0000
  H   H2093     1.0  0.39542  0.46062  0.86866  1.0000
  H   H2094     1.0  0.39683  0.44218  0.87912  1.0000
  H   H2095     1.0  0.36995  0.46235  0.85434  1.0000
  H   H2096     1.0  0.37331  0.47549  0.86241  1.0000
  H   H2097     1.0  0.35602  0.47005  0.86860  1.0000
  H   H2098     1.0  0.37527  0.46793  0.88901  1.0000
  H   H2099     1.0  0.35861  0.46082  0.89467  1.0000
  C   C1760     1.0  0.47156  0.53058  0.88641  1.0000
  N   N115      1.0  0.22003  0.39614  0.73841  1.0000
  N   N116      1.0  0.00640  0.53632  0.65576  1.0000
  H   H2100     1.0  0.27769  0.53047  0.96733  1.0000
  H   H2101     1.0  0.02126  0.51638  0.88674  1.0000
  C   C1761     1.0  0.35383  0.40971  0.92085  1.0000
  H   H2102     1.0  0.30828  0.42417  0.84895  1.0000
  C   C1762     1.0  0.25967  0.57434  0.97374  1.0000
  H   H2103     1.0  0.46841  0.54271  0.90940  1.0000
  C   C1763     1.0  0.99487  0.43274  0.69550  1.0000
  H   H2104     1.0  0.15460  0.58175  0.70246  1.0000
  C   C1764     1.0  0.00795  0.57182  0.67390  1.0000
  C   C1765     1.0  0.47531  0.51498  0.89157  1.0000
  C   C1766     1.0  0.99807  0.53864  0.67067  1.0000
  H   H2105     1.0  0.22241  0.55907  0.51383  1.0000
  H   H2106     1.0  0.04815  0.54252  0.92017  1.0000
  C   C1767     1.0  0.00245  0.49828  0.69465  1.0000
  C   C1768     1.0  0.46682  0.50584  0.89043  1.0000
  H   H2107     1.0  0.19723  0.55682  0.65110  1.0000
  H   H2108     1.0  0.13884  0.56905  0.69565  1.0000
  C   C1769     1.0  0.20365  0.40161  0.73982  1.0000
  H   H2109     1.0  0.22241  0.55543  0.48984  1.0000
  H   H2110     1.0  0.00801  0.55165  0.90065  1.0000
  H   H2111     1.0  0.34558  0.38764  0.85035  1.0000
  S   S471      1.0  0.00240  0.47320  0.68611  1.0000
  C   C1770     1.0  0.47589  0.55594  0.88100  1.0000
  C   C1771     1.0  0.99982  0.54291  0.80084  1.0000
  N   N117      1.0  0.48078  0.54000  0.88771  1.0000
  H   H2112     1.0  0.21550  0.39076  0.89031  1.0000
  C   C1772     1.0  0.16562  0.58027  0.66600  1.0000
  N   N118      1.0  0.15470  0.58125  0.68022  1.0000
  H   H2113     1.0  0.22342  0.39150  0.71700  1.0000
  C   C1773     1.0  0.33545  0.39285  0.84633  1.0000
  H   H2114     1.0  0.47612  0.55772  0.86906  1.0000
  H   H2115     1.0  0.19517  0.57686  0.62881  1.0000
  C   C1774     1.0  0.21706  0.38776  0.66686  1.0000
  C   C1775     1.0  0.99669  0.54817  0.77559  1.0000
  H   H2116     1.0  0.23261  0.39055  0.85051  1.0000
  H   H2117     1.0  0.48467  0.50973  0.89678  1.0000
  C   C1776     1.0  0.22084  0.38658  0.87999  1.0000
  Fe  Fe234     1.0  0.99781  0.50045  0.85258  1.0000
  H   H2118     1.0  0.99904  0.55422  0.76425  1.0000
  H   H2119     1.0  0.22587  0.39871  0.67790  1.0000
  H   H2120     1.0  0.99521  0.49832  0.82295  1.0000
  C   C1777     1.0  0.33020  0.38654  0.83763  1.0000
  H   H2121     1.0  0.23289  0.38689  0.87707  1.0000
  H   H2122     1.0  0.33328  0.38494  0.90938  1.0000
  H   H2123     1.0  0.19752  0.38366  0.70860  1.0000
  H   H2124     1.0  0.34025  0.55459  0.97748  1.0000
  H   H2125     1.0  0.06565  0.59490  0.21562  1.0000
  C   C1778     1.0  0.99698  0.72585  0.36807  1.0000
  C   C1779     1.0  0.20450  0.60135  0.46188  1.0000
  Fe  Fe235     1.0  0.34102  0.58882  0.08861  1.0000
  H   H2126     1.0  0.05864  0.61476  0.31221  1.0000
  C   C1780     1.0  0.00503  0.63012  0.41753  1.0000
  Fe  Fe236     1.0  0.37113  0.66230  0.00146  1.0000
  S   S472      1.0  0.35349  0.66830  0.02105  1.0000
  H   H2127     1.0  0.04260  0.62983  0.31226  1.0000
  S   S473      1.0  0.29208  0.75627  0.43832  1.0000
  C   C1781     1.0  0.20001  0.59494  0.47684  1.0000
  S   S474      1.0  0.26551  0.72939  0.44713  1.0000
  S   S475      1.0  0.47426  0.61638  0.11240  1.0000
  Fe  Fe237     1.0  0.39180  0.67996  0.06864  1.0000
  S   S476      1.0  0.37964  0.68557  0.09045  1.0000
  S   S477      1.0  0.38942  0.69598  0.04719  1.0000
  Fe  Fe238     1.0  0.40771  0.64928  0.08247  1.0000
  S   S478      1.0  0.39693  0.65226  0.10547  1.0000
  S   S479      1.0  0.42255  0.62733  0.07961  1.0000
  Fe  Fe239     1.0  0.37622  0.66227  0.09648  1.0000
  S   S480      1.0  0.35430  0.65575  0.10692  1.0000
  Fe  Fe240     1.0  0.40168  0.67503  0.09699  1.0000
  S   S481      1.0  0.41432  0.68353  0.10811  1.0000
  S   S482      1.0  0.38674  0.65753  0.07405  1.0000
  S   S483      1.0  0.41414  0.67117  0.07455  1.0000
  H   H2128     1.0  0.15762  0.67958  0.43825  1.0000
  S   S484      1.0  0.35472  0.59173  0.10259  1.0000
  S   S485      1.0  0.48126  0.69961  0.19418  1.0000
  H   H2129     1.0  0.30760  0.60828  0.02319  1.0000
  H   H2130     1.0  0.40436  0.74649  0.07252  1.0000
  S   S486      1.0  0.48309  0.62617  0.20312  1.0000
  H   H2131     1.0  0.46535  0.72184  0.15588  1.0000
  H   H2132     1.0  0.41968  0.76613  0.04885  1.0000
  H   H2133     1.0  0.01012  0.76661  0.34260  1.0000
  H   H2134     1.0  0.10760  0.58423  0.42741  1.0000
  C   C1782     1.0  0.17867  0.74386  0.44604  1.0000
  S   S487      1.0  0.47329  0.66759  0.18157  1.0000
  Fe  Fe241     1.0  0.41936  0.76280  0.10384  1.0000
  S   S488      1.0  0.44327  0.75279  0.09525  1.0000
  S   S489      1.0  0.40078  0.75212  0.10478  1.0000
  Fe  Fe242     1.0  0.44792  0.75908  0.11387  1.0000
  S   S490      1.0  0.46074  0.74541  0.13123  1.0000
  S   S491      1.0  0.42381  0.76722  0.12355  1.0000
  H   H2135     1.0  0.39310  0.63295  0.03140  1.0000
  C   C1783     1.0  0.05546  0.72856  0.40083  1.0000
  S   S492      1.0  0.47812  0.67615  0.13867  1.0000
  S   S493      1.0  0.33033  0.60586  0.07116  1.0000
  H   H2136     1.0  0.17023  0.66001  0.40244  1.0000
  C   C1784     1.0  0.45953  0.59785  0.20223  1.0000
  H   H2137     1.0  0.43202  0.77228  0.27814  1.0000
  H   H2138     1.0  0.38778  0.58934  0.00918  1.0000
  C   C1785     1.0  0.38309  0.59985  0.05596  1.0000
  H   H2139     1.0  0.04495  0.65445  0.29582  1.0000
  H   H2140     1.0  0.32787  0.67164  0.00888  1.0000
  H   H2141     1.0  0.45825  0.78276  0.18824  1.0000
  S   S494      1.0  0.11273  0.60895  0.27971  1.0000
  H   H2142     1.0  0.17152  0.61910  0.44243  1.0000
  H   H2143     1.0  0.33860  0.60360  0.00960  1.0000
  H   H2144     1.0  0.08248  0.61036  0.33225  1.0000
  Fe  Fe243     1.0  0.12765  0.61449  0.29074  1.0000
  S   S495      1.0  0.12784  0.63816  0.28874  1.0000
  H   H2145     1.0  0.04741  0.64742  0.32022  1.0000
  C   C1786     1.0  0.06510  0.64913  0.32853  1.0000
  Fe  Fe244     1.0  0.41203  0.76053  0.98301  1.0000
  C   C1787     1.0  0.43900  0.63398  0.18135  1.0000
  H   H2146     1.0  0.16895  0.63899  0.39736  1.0000
  H   H2147     1.0  0.29262  0.63770  0.04594  1.0000
  H   H2148     1.0  0.16037  0.62249  0.34753  1.0000
  H   H2149     1.0  0.08179  0.63450  0.27805  1.0000
  C   C1788     1.0  0.44469  0.78310  0.04587  1.0000
  H   H2150     1.0  0.13290  0.59152  0.41557  1.0000
  S   S496      1.0  0.26116  0.76163  0.46379  1.0000
  H   H2151     1.0  0.15538  0.63330  0.43854  1.0000
  Fe  Fe245     1.0  0.01189  0.65824  0.33570  1.0000
  H   H2152     1.0  0.25669  0.60019  0.08372  1.0000
  C   C1789     1.0  0.29735  0.66694  0.00093  1.0000
  H   H2153     1.0  0.42730  0.62011  0.17721  1.0000
  H   H2154     1.0  0.14743  0.66304  0.43038  1.0000
  C   C1790     1.0  0.40365  0.60207  0.07040  1.0000
  H   H2155     1.0  0.36547  0.60132  0.99904  1.0000
  H   H2156     1.0  0.18339  0.64058  0.46853  1.0000
  H   H2157     1.0  0.19324  0.61408  0.42251  1.0000
  C   C1791     1.0  0.36396  0.63504  0.06113  1.0000
  H   H2158     1.0  0.05038  0.68521  0.30958  1.0000
  Fe  Fe246     1.0  0.14085  0.65827  0.35341  1.0000
  S   S497      1.0  0.11952  0.65063  0.35991  1.0000
  S   S498      1.0  0.15605  0.65543  0.33154  1.0000
  Fe  Fe247     1.0  0.13502  0.66873  0.38182  1.0000
  S   S499      1.0  0.11300  0.66198  0.39048  1.0000
  S   S500      1.0  0.14200  0.67650  0.39825  1.0000
  Fe  Fe248     1.0  0.12520  0.64140  0.38208  1.0000
  S   S501      1.0  0.12472  0.61781  0.39377  1.0000
  Fe  Fe249     1.0  0.10956  0.67189  0.36757  1.0000
  S   S502      1.0  0.08751  0.68593  0.36323  1.0000
  S   S503      1.0  0.14750  0.64734  0.37505  1.0000
  S   S504      1.0  0.13055  0.68048  0.35934  1.0000
  H   H2159     1.0  0.49307  0.72390  0.37445  1.0000
  H   H2160     1.0  0.42929  0.63177  0.15123  1.0000
  C   C1792     1.0  0.39219  0.58709  0.06265  1.0000
  S   S505      1.0  0.32970  0.74560  0.45084  1.0000
  S   S506      1.0  0.02637  0.77109  0.39345  1.0000
  H   H2161     1.0  0.07688  0.71533  0.37080  1.0000
  C   C1793     1.0  0.33016  0.76304  0.46873  1.0000
  S   S507      1.0  0.19894  0.68313  0.44810  1.0000
  C   C1794     1.0  0.06805  0.59765  0.36857  1.0000
  C   C1795     1.0  0.99606  0.63575  0.32360  1.0000
  N   N119      1.0  0.38736  0.59386  0.98618  1.0000
  C   C1796     1.0  0.36064  0.76277  0.45778  1.0000
  Fe  Fe250     1.0  0.13523  0.74411  0.43423  1.0000
  S   S508      1.0  0.15711  0.74732  0.41903  1.0000
  S   S509      1.0  0.13506  0.72549  0.45436  1.0000
  Fe  Fe251     1.0  0.14470  0.75208  0.40110  1.0000
  S   S510      1.0  0.15306  0.74155  0.38136  1.0000
  S   S511      1.0  0.12332  0.74725  0.41628  1.0000
  Fe  Fe252     1.0  0.02708  0.65341  0.36059  1.0000
  S   S512      1.0  0.02613  0.67104  0.33974  1.0000
  S   S513      1.0  0.04785  0.64166  0.36913  1.0000
  C   C1797     1.0  0.10618  0.69671  0.31895  1.0000
  C   C1798     1.0  0.46990  0.74666  0.38145  1.0000
  H   H2162     1.0  0.00059  0.60467  0.36464  1.0000
  S   S514      1.0  0.39310  0.74909  0.98738  1.0000
  Fe  Fe253     1.0  0.49255  0.72236  0.25716  1.0000
  Fe  Fe254     1.0  0.40124  0.64146  0.99443  1.0000
  H   H2163     1.0  0.17901  0.73391  0.47489  1.0000
  C   C1799     1.0  0.38912  0.71092  0.98021  1.0000
  C   C1800     1.0  0.22313  0.59747  0.00507  1.0000
  H   H2164     1.0  0.44055  0.67677  0.12088  1.0000
  Fe  Fe255     1.0  0.48788  0.66846  0.15885  1.0000
  C   C1801     1.0  0.42616  0.67492  0.00701  1.0000
  C   C1802     1.0  0.05944  0.64530  0.31860  1.0000
  H   H2165     1.0  0.20620  0.62490  0.00706  1.0000
  Fe  Fe256     1.0  0.10748  0.59310  0.30142  1.0000
  H   H2166     1.0  0.00331  0.62706  0.38630  1.0000
  C   C1803     1.0  0.43526  0.65036  0.12708  1.0000
  C   C1804     1.0  0.16651  0.62826  0.47304  1.0000
  S   S515      1.0  0.29102  0.77125  0.46538  1.0000
  C   C1805     1.0  0.45005  0.77795  0.03273  1.0000
  H   H2167     1.0  0.37507  0.72211  0.06157  1.0000
  C   C1806     1.0  0.02028  0.72967  0.37008  1.0000
  C   C1807     1.0  0.33844  0.75485  0.45813  1.0000
  H   H2168     1.0  0.47433  0.74973  0.40744  1.0000
  H   H2169     1.0  0.41169  0.60298  0.07591  1.0000
  C   C1808     1.0  0.02045  0.71040  0.35828  1.0000
  C   C1809     1.0  0.02816  0.71819  0.36276  1.0000
  H   H2170     1.0  0.01018  0.60056  0.39864  1.0000
  H   H2171     1.0  0.02656  0.70162  0.35254  1.0000
  H   H2172     1.0  0.04024  0.71538  0.36049  1.0000
  C   C1810     1.0  0.18077  0.69401  0.45002  1.0000
  H   H2173     1.0  0.49385  0.77079  0.21888  1.0000
  H   H2174     1.0  0.12997  0.67614  0.43266  1.0000
  C   C1811     1.0  0.15244  0.71309  0.45273  1.0000
  C   C1812     1.0  0.16118  0.71145  0.43878  1.0000
  C   C1813     1.0  0.17534  0.70197  0.43741  1.0000
  H   H2175     1.0  0.47021  0.73176  0.41073  1.0000
  H   H2176     1.0  0.48299  0.72740  0.17370  1.0000
  H   H2177     1.0  0.15695  0.71734  0.42903  1.0000
  H   H2178     1.0  0.18214  0.70101  0.42655  1.0000
  C   C1814     1.0  0.07530  0.67416  0.36684  1.0000
  C   C1815     1.0  0.06180  0.67941  0.36216  1.0000
  C   C1816     1.0  0.05300  0.66953  0.36333  1.0000
  C   C1817     1.0  0.05761  0.65445  0.36936  1.0000
  C   C1818     1.0  0.07054  0.64944  0.37501  1.0000
  C   C1819     1.0  0.07944  0.65926  0.37365  1.0000
  H   H2179     1.0  0.05833  0.69102  0.35730  1.0000
  H   H2180     1.0  0.04274  0.67358  0.35943  1.0000
  H   H2181     1.0  0.07370  0.63797  0.38045  1.0000
  H   H2182     1.0  0.08947  0.65526  0.37793  1.0000
  C   C1820     1.0  0.14541  0.69446  0.39310  1.0000
  C   C1821     1.0  0.14909  0.70170  0.37827  1.0000
  C   C1822     1.0  0.15176  0.71607  0.37464  1.0000
  C   C1823     1.0  0.15052  0.72328  0.38583  1.0000
  C   C1824     1.0  0.14695  0.71594  0.40060  1.0000
  C   C1825     1.0  0.14457  0.70154  0.40421  1.0000
  H   H2183     1.0  0.14996  0.69625  0.36961  1.0000
  H   H2184     1.0  0.15458  0.72169  0.36318  1.0000
  H   H2185     1.0  0.14604  0.72137  0.40925  1.0000
  H   H2186     1.0  0.14181  0.69603  0.41565  1.0000
  C   C1826     1.0  0.12945  0.61120  0.44091  1.0000
  C   C1827     1.0  0.12471  0.62543  0.43283  1.0000
  C   C1828     1.0  0.12321  0.62745  0.41837  1.0000
  C   C1829     1.0  0.12607  0.61526  0.41208  1.0000
  C   C1830     1.0  0.27524  0.59226  0.04749  1.0000
  C   C1831     1.0  0.00852  0.63925  0.31276  1.0000
  H   H2187     1.0  0.12247  0.63490  0.43764  1.0000
  H   H2188     1.0  0.11973  0.63844  0.41220  1.0000
  H   H2189     1.0  0.10203  0.70674  0.31086  1.0000
  H   H2190     1.0  0.19065  0.62995  0.43787  1.0000
  C   C1832     1.0  0.21088  0.61373  0.45783  1.0000
  H   H2191     1.0  0.31938  0.61070  0.04013  1.0000
  N   N120      1.0  0.06274  0.63476  0.29654  1.0000
  H   H2192     1.0  0.42307  0.65294  0.13206  1.0000
  H   H2193     1.0  0.21458  0.61857  0.44627  1.0000
  C   C1833     1.0  0.39689  0.73270  0.98098  1.0000
  H   H2194     1.0  0.37239  0.76274  0.45346  1.0000
  C   C1834     1.0  0.24917  0.70814  0.45809  1.0000
  Fe  Fe257     1.0  0.44399  0.75406  0.98561  1.0000
  C   C1835     1.0  0.48244  0.76341  0.31718  1.0000
  S   S516      1.0  0.41755  0.62263  0.00494  1.0000
  C   C1836     1.0  0.45605  0.74885  0.18691  1.0000
  C   C1837     1.0  0.07421  0.62726  0.28544  1.0000
  S   S517      1.0  0.49258  0.76326  0.25422  1.0000
  C   C1838     1.0  0.43278  0.62936  0.17248  1.0000
  C   C1839     1.0  0.13716  0.64090  0.30073  1.0000
  C   C1840     1.0  0.13389  0.63479  0.31595  1.0000
  C   C1841     1.0  0.13972  0.63907  0.32557  1.0000
  C   C1842     1.0  0.14915  0.64910  0.31993  1.0000
  C   C1843     1.0  0.15298  0.65454  0.30468  1.0000
  C   C1844     1.0  0.14680  0.65067  0.29514  1.0000
  H   H2195     1.0  0.12650  0.62717  0.32037  1.0000
  H   H2196     1.0  0.13696  0.63456  0.33730  1.0000
  H   H2197     1.0  0.16039  0.66216  0.30024  1.0000
  H   H2198     1.0  0.14938  0.65539  0.28340  1.0000
  H   H2199     1.0  0.08098  0.61687  0.29090  1.0000
  H   H2200     1.0  0.09940  0.69780  0.33018  1.0000
  H   H2201     1.0  0.48859  0.73341  0.41001  1.0000
  H   H2202     1.0  0.43615  0.63704  0.01397  1.0000
  C   C1845     1.0  0.08832  0.68005  0.30090  1.0000
  C   C1846     1.0  0.43414  0.63613  0.15747  1.0000
  H   H2203     1.0  0.34668  0.61430  0.13856  1.0000
  S   S518      1.0  0.47156  0.73850  0.26468  1.0000
  H   H2204     1.0  0.06446  0.60598  0.34020  1.0000
  H   H2205     1.0  0.01295  0.61428  0.29208  1.0000
  H   H2206     1.0  0.25568  0.76266  0.43206  1.0000
  H   H2207     1.0  0.37744  0.64831  0.03335  1.0000
  H   H2208     1.0  0.18634  0.76651  0.44753  1.0000
  H   H2209     1.0  0.41409  0.76529  0.03299  1.0000
  H   H2210     1.0  0.36150  0.63254  0.13557  1.0000
  H   H2211     1.0  0.10133  0.67120  0.33784  1.0000
  C   C1847     1.0  0.48733  0.75500  0.30631  1.0000
  C   C1848     1.0  0.31917  0.66631  0.00911  1.0000
  S   S519      1.0  0.40453  0.76912  0.46541  1.0000
  H   H2212     1.0  0.15906  0.61594  0.43369  1.0000
  C   C1849     1.0  0.11772  0.68110  0.30162  1.0000
  C   C1850     1.0  0.31876  0.65208  0.01779  1.0000
  C   C1851     1.0  0.39447  0.61488  0.06394  1.0000
  H   H2213     1.0  0.06294  0.60881  0.37107  1.0000
  C   C1852     1.0  0.36715  0.62119  0.13498  1.0000
  H   H2214     1.0  0.13279  0.64133  0.46402  1.0000
  S   S520      1.0  0.26220  0.58399  0.98551  1.0000
  S   S521      1.0  0.04231  0.75299  0.42957  1.0000
  C   C1853     1.0  0.49017  0.72745  0.16245  1.0000
  C   C1854     1.0  0.47176  0.69537  0.13660  1.0000
  C   C1855     1.0  0.46878  0.70446  0.12317  1.0000
  C   C1856     1.0  0.46507  0.71995  0.12139  1.0000
  C   C1857     1.0  0.46432  0.72623  0.13308  1.0000
  C   C1858     1.0  0.46656  0.71708  0.14664  1.0000
  C   C1859     1.0  0.47029  0.70172  0.14839  1.0000
  C   C1860     1.0  0.38863  0.75606  0.03415  1.0000
  H   H2215     1.0  0.46332  0.72700  0.11087  1.0000
  H   H2216     1.0  0.42198  0.69117  0.04291  1.0000
  H   H2217     1.0  0.31605  0.62067  0.00749  1.0000
  C   C1861     1.0  0.35451  0.63868  0.10361  1.0000
  C   C1862     1.0  0.36807  0.62870  0.09995  1.0000
  C   C1863     1.0  0.36808  0.61442  0.09912  1.0000
  C   C1864     1.0  0.35458  0.61024  0.10142  1.0000
  C   C1865     1.0  0.34105  0.62048  0.10419  1.0000
  C   C1866     1.0  0.34102  0.63462  0.10549  1.0000
  H   H2218     1.0  0.37853  0.63168  0.09864  1.0000
  H   H2219     1.0  0.37855  0.60646  0.09713  1.0000
  H   H2220     1.0  0.33058  0.61727  0.10607  1.0000
  H   H2221     1.0  0.33053  0.64232  0.10827  1.0000
  C   C1867     1.0  0.41092  0.70288  0.10511  1.0000
  C   C1868     1.0  0.39666  0.71167  0.10432  1.0000
  C   C1869     1.0  0.39378  0.72690  0.10374  1.0000
  C   C1870     1.0  0.40520  0.73343  0.10362  1.0000
  C   C1871     1.0  0.41964  0.72475  0.10351  1.0000
  C   C1872     1.0  0.42244  0.70947  0.10453  1.0000
  H   H2222     1.0  0.38768  0.70664  0.10487  1.0000
  H   H2223     1.0  0.38256  0.73355  0.10382  1.0000
  H   H2224     1.0  0.42858  0.72964  0.10318  1.0000
  H   H2225     1.0  0.43354  0.70275  0.10500  1.0000
  C   C1873     1.0  0.41676  0.67630  0.02073  1.0000
  C   C1874     1.0  0.43788  0.62440  0.08741  1.0000
  C   C1875     1.0  0.44206  0.63638  0.08937  1.0000
  C   C1876     1.0  0.45387  0.63393  0.09629  1.0000
  C   C1877     1.0  0.46101  0.61948  0.10190  1.0000
  C   C1878     1.0  0.45686  0.60750  0.09991  1.0000
  C   C1879     1.0  0.44553  0.60997  0.09237  1.0000
  H   H2226     1.0  0.43630  0.64754  0.08546  1.0000
  H   H2227     1.0  0.45718  0.64321  0.09763  1.0000
  H   H2228     1.0  0.48945  0.76098  0.19425  1.0000
  H   H2229     1.0  0.44246  0.60068  0.09070  1.0000
  C   C1880     1.0  0.07372  0.60912  0.34265  1.0000
  C   C1881     1.0  0.46956  0.60854  0.17674  1.0000
  C   C1882     1.0  0.47632  0.61710  0.18148  1.0000
  C   C1883     1.0  0.47483  0.61582  0.19660  1.0000
  C   C1884     1.0  0.46656  0.60607  0.20692  1.0000
  C   C1885     1.0  0.45634  0.66594  0.98690  1.0000
  H   H2230     1.0  0.47035  0.60984  0.16511  1.0000
  C   C1886     1.0  0.10496  0.58987  0.23543  1.0000
  H   H2231     1.0  0.46534  0.60506  0.21861  1.0000
  C   C1887     1.0  0.26016  0.71395  0.46008  1.0000
  H   H2232     1.0  0.32741  0.64709  0.02399  1.0000
  H   H2233     1.0  0.47867  0.72183  0.23467  1.0000
  C   C1888     1.0  0.44874  0.64431  0.98680  1.0000
  H   H2234     1.0  0.15089  0.70593  0.47622  1.0000
  H   H2235     1.0  0.47971  0.71763  0.39062  1.0000
  H   H2236     1.0  0.05755  0.65396  0.33750  1.0000
  C   C1889     1.0  0.38152  0.59230  0.13221  1.0000
  C   C1890     1.0  0.16336  0.58811  0.37103  1.0000
  H   H2237     1.0  0.42756  0.67480  0.13836  1.0000
  N   N121      1.0  0.44319  0.65971  0.98903  1.0000
  Fe  Fe258     1.0  0.30446  0.75131  0.45635  1.0000
  H   H2238     1.0  0.48250  0.62479  0.17351  1.0000
  H   H2239     1.0  0.21814  0.62513  0.98917  1.0000
  H   H2240     1.0  0.27511  0.71191  0.47389  1.0000
  H   H2241     1.0  0.23369  0.74139  0.46406  1.0000
  C   C1891     1.0  0.49164  0.76233  0.32669  1.0000
  C   C1892     1.0  0.29678  0.65274  0.00961  1.0000
  H   H2242     1.0  0.09331  0.59549  0.23758  1.0000
  C   C1893     1.0  0.47997  0.71190  0.21685  1.0000
  H   H2243     1.0  0.46296  0.65981  0.99543  1.0000
  H   H2244     1.0  0.39501  0.60521  0.99803  1.0000
  H   H2245     1.0  0.47390  0.72191  0.21080  1.0000
  C   C1894     1.0  0.08068  0.77699  0.41751  1.0000
  H   H2246     1.0  0.22196  0.59927  0.01625  1.0000
  C   C1895     1.0  0.36065  0.67892  0.02832  1.0000
  C   C1896     1.0  0.35814  0.67722  0.04361  1.0000
  C   C1897     1.0  0.36645  0.68316  0.04946  1.0000
  C   C1898     1.0  0.37698  0.69109  0.04002  1.0000
  C   C1899     1.0  0.37841  0.69400  0.02473  1.0000
  C   C1900     1.0  0.37034  0.68779  0.01891  1.0000
  H   H2247     1.0  0.35023  0.67087  0.05095  1.0000
  H   H2248     1.0  0.36478  0.68146  0.06130  1.0000
  H   H2249     1.0  0.38622  0.70047  0.01733  1.0000
  H   H2250     1.0  0.37188  0.68957  0.00709  1.0000
  H   H2251     1.0  0.09103  0.75794  0.43203  1.0000
  C   C1901     1.0  0.08044  0.64680  0.32701  1.0000
  C   C1902     1.0  0.24635  0.76649  0.42660  1.0000
  C   C1903     1.0  0.44306  0.77435  0.27139  1.0000
  H   H2252     1.0  0.38850  0.62581  0.13025  1.0000
  H   H2253     1.0  0.49035  0.75955  0.38281  1.0000
  H   H2254     1.0  0.09295  0.63228  0.29669  1.0000
  H   H2255     1.0  0.45499  0.66031  0.15592  1.0000
  H   H2256     1.0  0.37534  0.59816  0.05065  1.0000
  C   C1904     1.0  0.35210  0.77151  0.46787  1.0000
  H   H2257     1.0  0.48436  0.73650  0.15456  1.0000
  C   C1905     1.0  0.18570  0.61874  0.41460  1.0000
  C   C1906     1.0  0.19384  0.65201  0.43153  1.0000
  S   S522      1.0  0.28769  0.60065  0.08033  1.0000
  N   N122      1.0  0.44399  0.65489  0.13493  1.0000
  C   C1907     1.0  0.00936  0.64360  0.41190  1.0000
  H   H2258     1.0  0.33056  0.62179  0.02578  1.0000
  C   C1908     1.0  0.09089  0.61520  0.36170  1.0000
  H   H2259     1.0  0.02078  0.64392  0.40597  1.0000
  H   H2260     1.0  0.07234  0.67787  0.29016  1.0000
  H   H2261     1.0  0.08471  0.64980  0.33479  1.0000
  C   C1909     1.0  0.27879  0.58617  0.08256  1.0000
  S   S523      1.0  0.00711  0.66578  0.37429  1.0000
  H   H2262     1.0  0.46390  0.63855  0.12951  1.0000
  C   C1910     1.0  0.46105  0.59895  0.18716  1.0000
  C   C1911     1.0  0.48860  0.72410  0.38635  1.0000
  C   C1912     1.0  0.12552  0.67274  0.46209  1.0000
  C   C1913     1.0  0.10981  0.72467  0.38214  1.0000
  H   H2263     1.0  0.31852  0.76298  0.47325  1.0000
  C   C1914     1.0  0.49237  0.68603  0.21939  1.0000
  H   H2264     1.0  0.41096  0.68718  0.02270  1.0000
  H   H2265     1.0  0.24372  0.59172  0.46785  1.0000
  N   N123      1.0  0.06949  0.72051  0.39249  1.0000
  C   C1915     1.0  0.38977  0.77796  0.05010  1.0000
  H   H2266     1.0  0.18173  0.60926  0.41380  1.0000
  C   C1916     1.0  0.30758  0.64477  0.01817  1.0000
  C   C1917     1.0  0.39775  0.75793  0.06938  1.0000
  C   C1918     1.0  0.29309  0.63020  0.03883  1.0000
  C   C1919     1.0  0.33696  0.77134  0.47358  1.0000
  C   C1920     1.0  0.43945  0.67126  0.13280  1.0000
  H   H2267     1.0  0.42745  0.68501  0.99885  1.0000
  H   H2268     1.0  0.11870  0.74052  0.38695  1.0000
  H   H2269     1.0  0.06911  0.62020  0.34542  1.0000
  H   H2270     1.0  0.29624  0.62342  0.01315  1.0000
  H   H2271     1.0  0.05832  0.59585  0.17092  1.0000
  H   H2272     1.0  0.46207  0.65545  0.11564  1.0000
  C   C1921     1.0  0.33169  0.63990  0.97922  1.0000
  S   S524      1.0  0.01528  0.74142  0.41593  1.0000
  S   S525      1.0  0.39455  0.66373  0.00000  1.0000
  H   H2273     1.0  0.20159  0.78085  0.45121  1.0000
  H   H2274     1.0  0.46988  0.69960  0.11400  1.0000
  H   H2275     1.0  0.40591  0.58707  0.99703  1.0000
  H   H2276     1.0  0.49154  0.73764  0.18781  1.0000
  H   H2277     1.0  0.37596  0.72691  0.99331  1.0000
  C   C1922     1.0  0.41323  0.76052  0.04501  1.0000
  C   C1923     1.0  0.11406  0.58936  0.24483  1.0000
  H   H2278     1.0  0.32342  0.64531  0.98735  1.0000
  C   C1924     1.0  0.46756  0.78168  0.39580  1.0000
  C   C1925     1.0  0.21263  0.61977  0.46871  1.0000
  C   C1926     1.0  0.16300  0.63516  0.40893  1.0000
  N   N124      1.0  0.17309  0.63066  0.41941  1.0000
  H   H2279     1.0  0.46242  0.59630  0.10410  1.0000
  H   H2280     1.0  0.07884  0.68999  0.33415  1.0000
  C   C1927     1.0  0.17652  0.65725  0.41089  1.0000
  C   C1928     1.0  0.06721  0.72175  0.37759  1.0000
  C   C1929     1.0  0.17226  0.64096  0.46751  1.0000
  Fe  Fe259     1.0  0.48566  0.74649  0.27463  1.0000
  H   H2281     1.0  0.05387  0.69115  0.33148  1.0000
  H   H2282     1.0  0.04606  0.60015  0.22389  1.0000
  H   H2283     1.0  0.13972  0.69174  0.44184  1.0000
  H   H2284     1.0  0.22525  0.58532  0.00613  1.0000
  H   H2285     1.0  0.10944  0.59460  0.25415  1.0000
  H   H2286     1.0  0.36031  0.74788  0.44490  1.0000
  H   H2287     1.0  0.06127  0.65600  0.28141  1.0000
  N   N125      1.0  0.20963  0.60520  0.99902  1.0000
  H   H2288     1.0  0.41192  0.61898  0.11501  1.0000
  H   H2289     1.0  0.09417  0.75277  0.40007  1.0000
  C   C1930     1.0  0.13243  0.59897  0.43465  1.0000
  H   H2290     1.0  0.43907  0.63837  0.12690  1.0000
  H   H2291     1.0  0.12887  0.68100  0.30320  1.0000
  S   S526      1.0  0.01431  0.59564  0.27182  1.0000
  H   H2292     1.0  0.39551  0.62534  0.06511  1.0000
  H   H2293     1.0  0.19527  0.71915  0.47259  1.0000
  H   H2294     1.0  0.48955  0.63511  0.13606  1.0000
  C   C1931     1.0  0.38407  0.63837  0.03962  1.0000
  H   H2295     1.0  0.19431  0.71868  0.44046  1.0000
  C   C1932     1.0  0.99855  0.60606  0.39919  1.0000
  H   H2296     1.0  0.45184  0.76656  0.27707  1.0000
  C   C1933     1.0  0.13688  0.66604  0.43851  1.0000
  N   N126      1.0  0.48266  0.73940  0.38872  1.0000
  C   C1934     1.0  0.33990  0.59185  0.01415  1.0000
  H   H2297     1.0  0.18001  0.67950  0.40488  1.0000
  C   C1935     1.0  0.31979  0.62232  0.03413  1.0000
  H   H2298     1.0  0.43656  0.65636  0.11528  1.0000
  S   S527      1.0  0.14772  0.59759  0.28285  1.0000
  H   H2299     1.0  0.12743  0.67409  0.47245  1.0000
  C   C1936     1.0  0.45515  0.75162  0.38940  1.0000
  H   H2300     1.0  0.14962  0.68394  0.45627  1.0000
  C   C1937     1.0  0.35380  0.75439  0.45296  1.0000
  C   C1938     1.0  0.06906  0.63889  0.30679  1.0000
  S   S528      1.0  0.00021  0.77415  0.42355  1.0000
  C   C1939     1.0  0.38410  0.61420  0.05625  1.0000
  C   C1940     1.0  0.15767  0.70477  0.46539  1.0000
  C   C1941     1.0  0.44604  0.77805  0.41607  1.0000
  H   H2301     1.0  0.19722  0.58910  0.01322  1.0000
  C   C1942     1.0  0.47871  0.73852  0.40491  1.0000
  C   C1943     1.0  0.99526  0.58722  0.35071  1.0000
  H   H2302     1.0  0.45289  0.59057  0.21032  1.0000
  C   C1944     1.0  0.44816  0.71786  0.98332  1.0000
  H   H2303     1.0  0.44702  0.73201  0.01920  1.0000
  C   C1945     1.0  0.49053  0.69902  0.23836  1.0000
  C   C1946     1.0  0.20140  0.59370  0.98271  1.0000
  C   C1947     1.0  0.10784  0.59400  0.35299  1.0000
  H   H2304     1.0  0.36970  0.63853  0.06769  1.0000
  S   S529      1.0  0.99503  0.70608  0.35373  1.0000
  Fe  Fe260     1.0  0.20433  0.67285  0.47027  1.0000
  H   H2305     1.0  0.47205  0.69483  0.15893  1.0000
  H   H2306     1.0  0.45359  0.74287  0.16803  1.0000
  H   H2307     1.0  0.02505  0.76675  0.35021  1.0000
  H   H2308     1.0  0.36661  0.60498  0.97935  1.0000
  H   H2309     1.0  0.23337  0.60109  0.99793  1.0000
  H   H2310     1.0  0.12665  0.61403  0.36226  1.0000
  Fe  Fe261     1.0  0.00072  0.58880  0.29465  1.0000
  C   C1948     1.0  0.10683  0.58526  0.40515  1.0000
  H   H2311     1.0  0.33571  0.72369  0.47679  1.0000
  C   C1949     1.0  0.16515  0.59006  0.39555  1.0000
  C   C1950     1.0  0.08469  0.63685  0.30541  1.0000
  H   H2312     1.0  0.40687  0.58981  0.15015  1.0000
  H   H2313     1.0  0.38087  0.70424  0.98365  1.0000
  C   C1951     1.0  0.41468  0.60992  0.12459  1.0000
  C   C1952     1.0  0.10876  0.73660  0.38807  1.0000
  H   H2314     1.0  0.44646  0.67592  0.13696  1.0000
  H   H2315     1.0  0.09739  0.67656  0.29213  1.0000
  C   C1953     1.0  0.48477  0.69899  0.21131  1.0000
  H   H2316     1.0  0.20671  0.73111  0.43214  1.0000
  C   C1954     1.0  0.16446  0.62454  0.43415  1.0000
  Fe  Fe262     1.0  0.47987  0.75410  0.24403  1.0000
  C   C1955     1.0  0.07391  0.68068  0.29964  1.0000
  H   H2317     1.0  0.17600  0.68918  0.47384  1.0000
  C   C1956     1.0  0.17186  0.69524  0.46403  1.0000
  H   H2318     1.0  0.04865  0.62020  0.29770  1.0000
  Fe  Fe263     1.0  0.00476  0.68217  0.35304  1.0000
  H   H2319     1.0  0.35614  0.64510  0.05649  1.0000
  C   C1957     1.0  0.14370  0.64174  0.46490  1.0000
  C   C1958     1.0  0.30855  0.67369  0.00065  1.0000
  H   H2320     1.0  0.35743  0.61884  0.04694  1.0000
  N   N127      1.0  0.43221  0.71005  0.03550  1.0000
  C   C1959     1.0  0.42052  0.71905  0.02728  1.0000
  C   C1960     1.0  0.44463  0.70212  0.02539  1.0000
  C   C1961     1.0  0.42559  0.69870  0.04742  1.0000
  C   C1962     1.0  0.43780  0.71984  0.04107  1.0000
  C   C1963     1.0  0.43578  0.71921  0.05640  1.0000
  C   C1964     1.0  0.44539  0.73060  0.03099  1.0000
  C   C1965     1.0  0.44140  0.72858  0.06117  1.0000
  C   C1966     1.0  0.45109  0.73977  0.03587  1.0000
  C   C1967     1.0  0.44911  0.73878  0.05093  1.0000
  C   C1968     1.0  0.44591  0.76060  0.36687  1.0000
  H   H2321     1.0  0.42510  0.72651  0.01701  1.0000
  H   H2322     1.0  0.99850  0.74202  0.37876  1.0000
  H   H2323     1.0  0.44087  0.69432  0.02137  1.0000
  H   H2324     1.0  0.45393  0.69568  0.03099  1.0000
  H   H2325     1.0  0.44942  0.70974  0.01530  1.0000
  H   H2326     1.0  0.41533  0.70382  0.05477  1.0000
  C   C1969     1.0  0.14710  0.68144  0.44680  1.0000
  H   H2327     1.0  0.43376  0.69160  0.05418  1.0000
  H   H2328     1.0  0.42991  0.71161  0.06496  1.0000
  H   H2329     1.0  0.17055  0.75124  0.45311  1.0000
  H   H2330     1.0  0.43980  0.72793  0.07289  1.0000
  H   H2331     1.0  0.45708  0.74769  0.02787  1.0000
  H   H2332     1.0  0.45347  0.74603  0.05466  1.0000
  H   H2333     1.0  0.11907  0.67034  0.29876  1.0000
  C   C1970     1.0  0.16382  0.65413  0.46061  1.0000
  C   C1971     1.0  0.38277  0.61717  0.13173  1.0000
  S   S530      1.0  0.37782  0.63906  0.99816  1.0000
  C   C1972     1.0  0.01442  0.63163  0.30127  1.0000
  C   C1973     1.0  0.44687  0.64518  0.17522  1.0000
  C   C1974     1.0  0.16118  0.61062  0.35127  1.0000
  H   H2334     1.0  0.04852  0.64553  0.28099  1.0000
  S   S531      1.0  0.48370  0.58754  0.14728  1.0000
  C   C1975     1.0  0.03882  0.58674  0.18098  1.0000
  C   C1976     1.0  0.42177  0.64977  0.02911  1.0000
  S   S532      1.0  0.29050  0.73562  0.47188  1.0000
  Fe  Fe264     1.0  0.27673  0.74258  0.45471  1.0000
  H   H2335     1.0  0.24593  0.74455  0.42596  1.0000
  S   S533      1.0  0.44494  0.77788  0.98070  1.0000
  H   H2336     1.0  0.10216  0.63910  0.31410  1.0000
  H   H2337     1.0  0.40306  0.76524  0.07244  1.0000
  H   H2338     1.0  0.11858  0.68342  0.45719  1.0000
  H   H2339     1.0  0.19839  0.62758  0.99131  1.0000
  H   H2340     1.0  0.06527  0.73349  0.37141  1.0000
  H   H2341     1.0  0.21309  0.77911  0.40720  1.0000
  H   H2342     1.0  0.42930  0.59217  0.01576  1.0000
  N   N128      1.0  0.13994  0.66857  0.45172  1.0000
  H   H2343     1.0  0.48290  0.74530  0.35911  1.0000
  N   N129      1.0  0.19177  0.73534  0.45255  1.0000
  H   H2344     1.0  0.16907  0.66351  0.45655  1.0000
  C   C1977     1.0  0.20109  0.72501  0.44291  1.0000
  C   C1978     1.0  0.18608  0.72658  0.46732  1.0000
  C   C1979     1.0  0.20086  0.74473  0.45412  1.0000
  C   C1980     1.0  0.21440  0.73813  0.45904  1.0000
  C   C1981     1.0  0.19647  0.76045  0.45130  1.0000
  C   C1982     1.0  0.22318  0.74670  0.46068  1.0000
  C   C1983     1.0  0.45746  0.77429  0.18337  1.0000
  S   S534      1.0  0.08433  0.59032  0.31303  1.0000
  S   S535      1.0  0.00009  0.58712  0.24240  1.0000
  C   C1984     1.0  0.11737  0.61082  0.36053  1.0000
  H   H2345     1.0  0.45236  0.75058  0.40124  1.0000
  H   H2346     1.0  0.45371  0.76706  0.15200  1.0000
  H   H2347     1.0  0.39085  0.78269  0.03803  1.0000
  S   S536      1.0  0.01694  0.65302  0.31336  1.0000
  H   H2348     1.0  0.46116  0.77103  0.03063  1.0000
  H   H2349     1.0  0.17912  0.71941  0.46667  1.0000
  H   H2350     1.0  0.32671  0.58902  0.00093  1.0000
  H   H2351     1.0  0.21832  0.72624  0.46168  1.0000
  C   C1985     1.0  0.43060  0.59389  0.00395  1.0000
  C   C1986     1.0  0.29064  0.58712  0.04562  1.0000
  H   H2352     1.0  0.25487  0.58919  0.04541  1.0000
  H   H2353     1.0  0.43932  0.63906  0.98817  1.0000
  H   H2354     1.0  0.05857  0.59351  0.36784  1.0000
  C   C1987     1.0  0.18223  0.66861  0.41208  1.0000
  C   C1988     1.0  0.44102  0.78148  0.02245  1.0000
  C   C1989     1.0  0.16157  0.60240  0.34135  1.0000
  C   C1990     1.0  0.07182  0.70469  0.40025  1.0000
  H   H2355     1.0  0.35712  0.62731  0.06905  1.0000
  H   H2356     1.0  0.42006  0.64000  0.03773  1.0000
  Fe  Fe265     1.0  0.15085  0.58825  0.46122  1.0000
  H   H2357     1.0  0.40703  0.66496  0.04231  1.0000
  C   C1991     1.0  0.15225  0.62866  0.47178  1.0000
  C   C1992     1.0  0.36582  0.62546  0.04016  1.0000
  C   C1993     1.0  0.07786  0.68754  0.32426  1.0000
  Fe  Fe266     1.0  0.44439  0.77605  0.08287  1.0000
  C   C1994     1.0  0.35876  0.61092  0.13666  1.0000
  C   C1995     1.0  0.17905  0.64293  0.42028  1.0000
  H   H2358     1.0  0.42445  0.66449  0.97896  1.0000
  H   H2359     1.0  0.12058  0.71936  0.37639  1.0000
  C   C1996     1.0  0.13056  0.60100  0.42031  1.0000
  H   H2360     1.0  0.22456  0.75304  0.41367  1.0000
  H   H2361     1.0  0.41897  0.74869  0.04625  1.0000
  H   H2362     1.0  0.41184  0.61454  0.13460  1.0000
  H   H2363     1.0  0.22544  0.76868  0.45910  1.0000
  C   C1997     1.0  0.37745  0.73505  0.03937  1.0000
  C   C1998     1.0  0.06136  0.58502  0.30518  1.0000
  H   H2364     1.0  0.45591  0.63730  0.99460  1.0000
  N   N130      1.0  0.07989  0.59801  0.35476  1.0000
  H   H2365     1.0  0.28918  0.67265  0.99422  1.0000
  C   C1999     1.0  0.11984  0.59835  0.35489  1.0000
  H   H2366     1.0  0.47148  0.77074  0.31827  1.0000
  Fe  Fe267     1.0  0.00226  0.78296  0.39916  1.0000
  S   S537      1.0  0.30960  0.62737  0.97852  1.0000
  H   H2367     1.0  0.45227  0.64821  0.18208  1.0000
  S   S538      1.0  0.01444  0.63979  0.35553  1.0000
  H   H2368     1.0  0.41144  0.72595  0.03416  1.0000
  H   H2369     1.0  0.16102  0.60787  0.32998  1.0000
  Fe  Fe268     1.0  0.48985  0.64649  0.18763  1.0000
  C   C2000     1.0  0.37882  0.73169  0.05398  1.0000
  Fe  Fe269     1.0  0.48916  0.67877  0.18532  1.0000
  C   C2001     1.0  0.38232  0.74722  0.02948  1.0000
  H   H2370     1.0  0.10100  0.62891  0.36835  1.0000
  C   C2002     1.0  0.45233  0.78137  0.40088  1.0000
  S   S539      1.0  0.47540  0.75626  0.29485  1.0000
  H   H2371     1.0  0.35937  0.63607  0.03456  1.0000
  C   C2003     1.0  0.45738  0.76018  0.19244  1.0000
  N   N131      1.0  0.37463  0.62796  0.04935  1.0000
  C   C2004     1.0  0.39045  0.60255  0.13016  1.0000
  H   H2372     1.0  0.18582  0.60692  0.00680  1.0000
  H   H2373     1.0  0.05613  0.72777  0.41237  1.0000
  N   N132      1.0  0.39753  0.76215  0.05342  1.0000
  H   H2374     1.0  0.04568  0.72406  0.40159  1.0000
  H   H2375     1.0  0.23571  0.69177  0.46706  1.0000
  H   H2376     1.0  0.07178  0.74426  0.40295  1.0000
  S   S540      1.0  0.35373  0.59589  0.03333  1.0000
  Fe  Fe270     1.0  0.47301  0.59453  0.12798  1.0000
  H   H2377     1.0  0.45584  0.73794  0.19400  1.0000
  H   H2378     1.0  0.43827  0.62838  0.19288  1.0000
  H   H2379     1.0  0.24447  0.71290  0.44840  1.0000
  H   H2380     1.0  0.17508  0.59510  0.39083  1.0000
  H   H2381     1.0  0.38589  0.73713  0.07025  1.0000
  C   C2005     1.0  0.18800  0.64063  0.43056  1.0000
  C   C2006     1.0  0.05274  0.62450  0.30505  1.0000
  H   H2382     1.0  0.08108  0.69753  0.39378  1.0000
  C   C2007     1.0  0.48278  0.71190  0.23034  1.0000
  C   C2008     1.0  0.39019  0.75298  0.04897  1.0000
  C   C2009     1.0  0.05631  0.58771  0.19439  1.0000
  N   N133      1.0  0.41326  0.72339  0.14803  1.0000
  C   C2010     1.0  0.42519  0.72800  0.13535  1.0000
  C   C2011     1.0  0.40163  0.72096  0.14205  1.0000
  C   C2012     1.0  0.40620  0.73576  0.15577  1.0000
  C   C2013     1.0  0.41990  0.71013  0.15821  1.0000
  C   C2014     1.0  0.41589  0.69625  0.16148  1.0000
  C   C2015     1.0  0.43101  0.71082  0.16499  1.0000
  C   C2016     1.0  0.42252  0.68395  0.17108  1.0000
  C   C2017     1.0  0.43755  0.69847  0.17458  1.0000
  C   C2018     1.0  0.43329  0.68508  0.17764  1.0000
  H   H2383     1.0  0.43323  0.73213  0.13866  1.0000
  H   H2384     1.0  0.43169  0.71865  0.12995  1.0000
  H   H2385     1.0  0.42052  0.73720  0.12685  1.0000
  H   H2386     1.0  0.40632  0.71243  0.13525  1.0000
  H   H2387     1.0  0.39669  0.73123  0.13465  1.0000
  H   H2388     1.0  0.39215  0.71767  0.15100  1.0000
  H   H2389     1.0  0.39753  0.73258  0.16575  1.0000
  H   H2390     1.0  0.41442  0.73940  0.15934  1.0000
  H   H2391     1.0  0.40073  0.74578  0.14845  1.0000
  H   H2392     1.0  0.40765  0.69458  0.15678  1.0000
  H   H2393     1.0  0.43484  0.72091  0.16279  1.0000
  H   H2394     1.0  0.41926  0.67347  0.17352  1.0000
  H   H2395     1.0  0.44606  0.69926  0.17959  1.0000
  H   H2396     1.0  0.43834  0.67556  0.18514  1.0000
  H   H2397     1.0  0.09852  0.71019  0.37882  1.0000
  H   H2398     1.0  0.40898  0.60027  0.10371  1.0000
  C   C2019     1.0  0.22238  0.77618  0.41251  1.0000
  H   H2399     1.0  0.06907  0.62401  0.27813  1.0000
  C   C2020     1.0  0.09493  0.74347  0.39547  1.0000
  H   H2400     1.0  0.19266  0.62292  0.40367  1.0000
  H   H2401     1.0  0.19560  0.60420  0.02105  1.0000
  C   C2021     1.0  0.05623  0.77631  0.41483  1.0000
  C   C2022     1.0  0.06351  0.68815  0.32289  1.0000
  H   H2402     1.0  0.05735  0.71741  0.37823  1.0000
  H   H2403     1.0  0.07447  0.70317  0.41115  1.0000
  H   H2404     1.0  0.46714  0.65493  0.13224  1.0000
  C   C2023     1.0  0.08208  0.73843  0.39701  1.0000
  C   C2024     1.0  0.06153  0.68479  0.31056  1.0000
  C   C2025     1.0  0.45621  0.77752  0.16844  1.0000
  Fe  Fe271     1.0  0.02345  0.76046  0.41754  1.0000
  H   H2405     1.0  0.15828  0.62585  0.40891  1.0000
  H   H2406     1.0  0.38126  0.74976  0.01809  1.0000
  C   C2026     1.0  0.47202  0.74884  0.36590  1.0000
  C   C2027     1.0  0.37261  0.60437  0.98791  1.0000
  H   H2407     1.0  0.07256  0.59039  0.37824  1.0000
  H   H2408     1.0  0.12075  0.66940  0.32909  1.0000
  C   C2028     1.0  0.26647  0.70760  0.47246  1.0000
  H   H2409     1.0  0.19552  0.67474  0.42306  1.0000
  C   C2029     1.0  0.10291  0.61923  0.36393  1.0000
  H   H2410     1.0  0.01312  0.61995  0.41594  1.0000
  C   C2030     1.0  0.05692  0.76247  0.42462  1.0000
  S   S541      1.0  0.29551  0.59231  0.99617  1.0000
  H   H2411     1.0  0.11542  0.69021  0.29196  1.0000
  H   H2412     1.0  0.29244  0.61911  0.04620  1.0000
  S   S542      1.0  0.13297  0.60885  0.45825  1.0000
  H   H2413     1.0  0.16748  0.58626  0.13535  1.0000
  S   S543      1.0  0.12728  0.76772  0.43633  1.0000
  H   H2414     1.0  0.42706  0.60599  0.12197  1.0000
  H   H2415     1.0  0.30906  0.68465  0.99383  1.0000
  H   H2416     1.0  0.21768  0.62924  0.46553  1.0000
  Fe  Fe272     1.0  0.27751  0.77491  0.44867  1.0000
  H   H2417     1.0  0.37272  0.72810  0.03566  1.0000
  Fe  Fe273     1.0  0.13211  0.59050  0.27397  1.0000
  H   H2418     1.0  0.15327  0.64420  0.41191  1.0000
  H   H2419     1.0  0.18212  0.75072  0.43483  1.0000
  C   C2031     1.0  0.09071  0.68371  0.31322  1.0000
  C   C2032     1.0  0.01277  0.77070  0.35104  1.0000
  H   H2420     1.0  0.07996  0.62235  0.36399  1.0000
  H   H2421     1.0  0.13072  0.65708  0.44129  1.0000
  S   S544      1.0  0.13829  0.77663  0.40011  1.0000
  H   H2422     1.0  0.15493  0.59906  0.39660  1.0000
  H   H2423     1.0  0.02384  0.63449  0.29269  1.0000
  H   H2424     1.0  0.19221  0.59032  0.99131  1.0000
  H   H2425     1.0  0.28283  0.63430  0.03430  1.0000
  C   C2033     1.0  0.08279  0.72624  0.39108  1.0000
  H   H2426     1.0  0.11771  0.69692  0.31922  1.0000
  S   S545      1.0  0.42242  0.75646  0.00229  1.0000
  C   C2034     1.0  0.16270  0.58717  0.34604  1.0000
  C   C2035     1.0  0.09707  0.71952  0.38359  1.0000
  S   S546      1.0  0.22589  0.65671  0.47338  1.0000
  C   C2036     1.0  0.45998  0.65079  0.12778  1.0000
  C   C2037     1.0  0.05402  0.64825  0.28834  1.0000
  C   C2038     1.0  0.08142  0.76308  0.42713  1.0000
  C   C2039     1.0  0.06956  0.75590  0.43072  1.0000
  C   C2040     1.0  0.14922  0.65490  0.45905  1.0000
  H   H2427     1.0  0.07016  0.74521  0.43832  1.0000
  C   C2041     1.0  0.44187  0.64781  0.15089  1.0000
  C   C2042     1.0  0.24420  0.69621  0.46864  1.0000
  C   C2043     1.0  0.09291  0.60223  0.35658  1.0000
  H   H2428     1.0  0.05476  0.58667  0.31593  1.0000
  H   H2429     1.0  0.37765  0.77947  0.05537  1.0000
  H   H2430     1.0  0.20069  0.65003  0.43945  1.0000
  S   S547      1.0  0.03018  0.73991  0.37467  1.0000
  C   C2044     1.0  0.00466  0.73329  0.37300  1.0000
  N   N134      1.0  0.10579  0.68298  0.31507  1.0000
  H   H2431     1.0  0.38932  0.64276  0.04588  1.0000
  H   H2432     1.0  0.06171  0.70023  0.40219  1.0000
  H   H2433     1.0  0.37319  0.61972  0.03133  1.0000
  H   H2434     1.0  0.37371  0.61582  0.98674  1.0000
  C   C2045     1.0  0.38633  0.72380  0.98560  1.0000
  H   H2435     1.0  0.44511  0.77709  0.01257  1.0000
  C   C2046     1.0  0.43111  0.64823  0.01533  1.0000
  C   C2047     1.0  0.19091  0.66598  0.42234  1.0000
  C   C2048     1.0  0.22884  0.76107  0.41624  1.0000
  H   H2436     1.0  0.43884  0.72192  0.99163  1.0000
  C   C2049     1.0  0.44838  0.65198  0.16021  1.0000
  H   H2437     1.0  0.29698  0.59207  0.04981  1.0000
  C   C2050     1.0  0.09020  0.64074  0.31543  1.0000
  S   S548      1.0  0.12081  0.60007  0.31289  1.0000
  H   H2438     1.0  0.13615  0.58794  0.44090  1.0000
  C   C2051     1.0  0.05617  0.59095  0.22407  1.0000
  Fe  Fe274     1.0  0.01712  0.75272  0.39210  1.0000
  C   C2052     1.0  0.47118  0.78184  0.21730  1.0000
  C   C2053     1.0  0.00486  0.71444  0.36068  1.0000
  H   H2439     1.0  0.10346  0.59726  0.40248  1.0000
  H   H2440     1.0  0.41516  0.71204  0.02387  1.0000
  C   C2054     1.0  0.45481  0.75162  0.17230  1.0000
  C   C2055     1.0  0.39433  0.59385  0.99810  1.0000
  H   H2441     1.0  0.43234  0.76251  0.38846  1.0000
  C   C2056     1.0  0.00818  0.62026  0.30084  1.0000
  C   C2057     1.0  0.38511  0.74045  0.05880  1.0000
  C   C2058     1.0  0.40251  0.58820  0.06977  1.0000
  C   C2059     1.0  0.10953  0.67026  0.32720  1.0000
  H   H2442     1.0  0.10970  0.65965  0.32466  1.0000
  H   H2443     1.0  0.05270  0.74048  0.39532  1.0000
  S   S549      1.0  0.46326  0.76824  0.23074  1.0000
  S   S550      1.0  0.46316  0.73493  0.98928  1.0000
  C   C2060     1.0  0.05172  0.59066  0.18113  1.0000
  C   C2061     1.0  0.44341  0.75855  0.38214  1.0000
  H   H2444     1.0  0.28795  0.64793  0.00934  1.0000
  C   C2062     1.0  0.24087  0.75626  0.42316  1.0000
  C   C2063     1.0  0.45490  0.76570  0.16314  1.0000
  C   C2064     1.0  0.19646  0.60122  0.01046  1.0000
  C   C2065     1.0  0.41451  0.66378  0.03175  1.0000
  H   H2445     1.0  0.45816  0.75810  0.20388  1.0000
  H   H2446     1.0  0.26969  0.60127  0.05310  1.0000
  S   S551      1.0  0.20236  0.59390  0.44818  1.0000
  H   H2447     1.0  0.16141  0.61082  0.37298  1.0000
  C   C2066     1.0  0.30665  0.62011  0.01737  1.0000
  H   H2448     1.0  0.46206  0.75721  0.34689  1.0000
  S   S552      1.0  0.45608  0.77789  0.05882  1.0000
  H   H2449     1.0  0.48780  0.76882  0.33507  1.0000
  C   C2067     1.0  0.46017  0.75568  0.35877  1.0000
  S   S553      1.0  0.45048  0.59115  0.14117  1.0000
  C   C2068     1.0  0.20803  0.62140  0.99652  1.0000
  H   H2450     1.0  0.39243  0.76527  0.02599  1.0000
  C   C2069     1.0  0.21857  0.76206  0.45785  1.0000
  H   H2451     1.0  0.32005  0.62818  0.04244  1.0000
  Fe  Fe275     1.0  0.42221  0.78064  0.99571  1.0000
  C   C2070     1.0  0.42587  0.60804  0.99565  1.0000
  Fe  Fe276     1.0  0.11758  0.77131  0.41663  1.0000
  C   C2071     1.0  0.16195  0.60368  0.36592  1.0000
  C   C2072     1.0  0.48670  0.78023  0.21329  1.0000
  H   H2452     1.0  0.45019  0.77285  0.43791  1.0000
  C   C2073     1.0  0.42765  0.61017  0.98034  1.0000
  H   H2453     1.0  0.38626  0.75886  0.07648  1.0000
  H   H2454     1.0  0.00745  0.76509  0.36222  1.0000
  Fe  Fe277     1.0  0.34272  0.58943  0.05707  1.0000
  S   S554      1.0  0.16934  0.58445  0.44174  1.0000
  S   S555      1.0  0.37083  0.67298  0.97763  1.0000
  C   C2074     1.0  0.26332  0.58908  0.08363  1.0000
  Fe  Fe278     1.0  0.14853  0.77130  0.41986  1.0000
  N   N135      1.0  0.40696  0.59778  0.12696  1.0000
  C   C2075     1.0  0.99894  0.65670  0.41372  1.0000
  C   C2076     1.0  0.46168  0.72220  0.98025  1.0000
  C   C2077     1.0  0.20520  0.76890  0.45328  1.0000
  C   C2078     1.0  0.45494  0.77548  0.42618  1.0000
  H   H2455     1.0  0.03536  0.58884  0.17069  1.0000
  H   H2456     1.0  0.04651  0.78148  0.41010  1.0000
  C   C2079     1.0  0.43346  0.66082  0.00378  1.0000
  H   H2457     1.0  0.05925  0.58891  0.23490  1.0000
  H   H2458     1.0  0.44479  0.77126  0.26068  1.0000
  N   N136      1.0  0.30689  0.62960  0.02699  1.0000
  H   H2459     1.0  0.45306  0.67777  0.98756  1.0000
  H   H2460     1.0  0.17222  0.73642  0.44485  1.0000
  Fe  Fe279     1.0  0.31256  0.59248  0.07833  1.0000
  H   H2461     1.0  0.34908  0.64968  0.98002  1.0000
  H   H2462     1.0  0.20982  0.71647  0.44804  1.0000
  C   C2080     1.0  0.99563  0.61687  0.31157  1.0000
  C   C2081     1.0  0.47023  0.77556  0.42110  1.0000
  C   C2082     1.0  0.41236  0.59176  0.11339  1.0000
  C   C2083     1.0  0.21125  0.60115  0.98487  1.0000
  H   H2463     1.0  0.13112  0.59195  0.35200  1.0000
  S   S556      1.0  0.42745  0.77582  0.42208  1.0000
  H   H2464     1.0  0.11859  0.66438  0.46517  1.0000
  C   C2084     1.0  0.23991  0.78160  0.42306  1.0000
  S   S557      1.0  0.09922  0.58380  0.21174  1.0000
  C   C2085     1.0  0.34784  0.58505  0.02529  1.0000
  H   H2465     1.0  0.35392  0.77989  0.43131  1.0000
  H   H2466     1.0  0.43618  0.70498  0.97804  1.0000
  H   H2467     1.0  0.42478  0.58811  0.11073  1.0000
  Fe  Fe280     1.0  0.41437  0.78267  0.44344  1.0000
  H   H2468     1.0  0.47717  0.77305  0.42899  1.0000
  H   H2469     1.0  0.35934  0.58865  0.13623  1.0000
  H   H2470     1.0  0.49059  0.71671  0.16000  1.0000
  H   H2471     1.0  0.48974  0.61645  0.13669  1.0000
  H   H2472     1.0  0.06658  0.59064  0.19390  1.0000
  S   S558      1.0  0.45176  0.78137  0.10071  1.0000
  C   C2086     1.0  0.26687  0.58536  0.04287  1.0000
  C   C2087     1.0  0.36592  0.59649  0.13530  1.0000
  C   C2088     1.0  0.47665  0.77842  0.40592  1.0000
  H   H2473     1.0  0.25768  0.58655  0.01550  1.0000
  H   H2474     1.0  0.09629  0.58502  0.28366  1.0000
  H   H2475     1.0  0.14781  0.61872  0.47602  1.0000
  H   H2476     1.0  0.43678  0.76604  0.36129  1.0000
  S   S559      1.0  0.45134  0.58895  0.18188  1.0000
  H   H2477     1.0  0.00230  0.66721  0.40928  1.0000
  Fe  Fe281     1.0  0.28599  0.58625  0.98052  1.0000
  S   S560      1.0  0.16601  0.58631  0.47571  1.0000
  C   C2089     1.0  0.07632  0.58609  0.30098  1.0000
  C   C2090     1.0  0.41155  0.58606  0.13955  1.0000
  H   H2478     1.0  0.00720  0.58450  0.35140  1.0000
  H   H2479     1.0  0.30736  0.78279  0.42816  1.0000
  S   S561      1.0  0.16272  0.78215  0.42717  1.0000
  C   C2091     1.0  0.43834  0.58383  0.98190  1.0000
  H   H2480     1.0  0.44546  0.78348  0.39302  1.0000
  S   S562      1.0  0.35949  0.78358  0.47294  1.0000
  C   C2092     1.0  0.08476  0.58410  0.28703  1.0000
  S   S563      1.0  0.18524  0.58415  0.10617  1.0000
  C   C2093     1.0  0.06803  0.78361  0.41140  1.0000
  C   C2094     1.0  0.99467  0.62101  0.39212  1.0000
  H   H2481     1.0  0.11061  0.58420  0.34866  1.0000
  H   H2482     1.0  0.16593  0.58384  0.40706  1.0000
  S   S564      1.0  0.01695  0.66423  0.60721  1.0000
  C   C2095     1.0  0.00301  0.68937  0.53746  1.0000
  S   S565      1.0  0.03154  0.62984  0.60413  1.0000
  Fe  Fe282     1.0  0.03827  0.64768  0.60970  1.0000
  S   S566      1.0  0.06008  0.65477  0.60029  1.0000
  S   S567      1.0  0.03099  0.64020  0.63424  1.0000
  S   S568      1.0  0.47365  0.72354  0.88109  1.0000
  Fe  Fe283     1.0  0.01627  0.74658  0.62265  1.0000
  S   S569      1.0  0.02871  0.76218  0.60493  1.0000
  S   S570      1.0  0.03006  0.72330  0.62683  1.0000
  H   H2483     1.0  0.23091  0.64450  0.56293  1.0000
  C   C2096     1.0  0.01441  0.59228  0.65396  1.0000
  H   H2484     1.0  0.48080  0.70480  0.95217  1.0000
  H   H2485     1.0  0.40817  0.59287  0.96974  1.0000
  C   C2097     1.0  0.47357  0.71716  0.96927  1.0000
  H   H2486     1.0  0.01599  0.65326  0.69466  1.0000
  S   S571      1.0  0.14314  0.66273  0.64479  1.0000
  H   H2487     1.0  0.42321  0.71277  0.95780  1.0000
  S   S572      1.0  0.32134  0.77391  0.59962  1.0000
  H   H2488     1.0  0.19547  0.58515  0.48006  1.0000
  H   H2489     1.0  0.00805  0.74646  0.58757  1.0000
  C   C2098     1.0  0.49363  0.62691  0.92043  1.0000
  S   S573      1.0  0.10109  0.59920  0.73452  1.0000
  C   C2099     1.0  0.20845  0.61313  0.48364  1.0000
  C   C2100     1.0  0.14601  0.60501  0.61286  1.0000
  H   H2490     1.0  0.05826  0.62611  0.69741  1.0000
  C   C2101     1.0  0.17533  0.59025  0.63969  1.0000
  H   H2491     1.0  0.06052  0.60071  0.71764  1.0000
  H   H2492     1.0  0.43326  0.68313  0.93887  1.0000
  H   H2493     1.0  0.04091  0.67928  0.58681  1.0000
  S   S574      1.0  0.32789  0.58712  0.97207  1.0000
  Fe  Fe284     1.0  0.11942  0.67345  0.64314  1.0000
  S   S575      1.0  0.11095  0.69776  0.63455  1.0000
  S   S576      1.0  0.11867  0.65925  0.62869  1.0000
  Fe  Fe285     1.0  0.22420  0.66910  0.58213  1.0000
  S   S577      1.0  0.20491  0.68833  0.58499  1.0000
  H   H2494     1.0  0.17314  0.61806  0.47828  1.0000
  Fe  Fe286     1.0  0.24621  0.68898  0.56837  1.0000
  S   S578      1.0  0.22865  0.70970  0.57008  1.0000
  S   S579      1.0  0.26899  0.69369  0.55741  1.0000
  Fe  Fe287     1.0  0.21967  0.69734  0.59267  1.0000
  S   S580      1.0  0.20837  0.70728  0.61250  1.0000
  Fe  Fe288     1.0  0.21517  0.69920  0.56232  1.0000
  S   S581      1.0  0.19937  0.71436  0.54847  1.0000
  S   S582      1.0  0.23839  0.67726  0.59185  1.0000
  S   S583      1.0  0.23346  0.67926  0.55842  1.0000
  C   C2102     1.0  0.21824  0.63422  0.58355  1.0000
  C   C2103     1.0  0.43044  0.76610  0.92185  1.0000
  H   H2495     1.0  0.34141  0.73577  0.49329  1.0000
  H   H2496     1.0  0.48387  0.74911  0.88442  1.0000
  C   C2104     1.0  0.00487  0.68618  0.64102  1.0000
  S   S584      1.0  0.17486  0.77340  0.59243  1.0000
  Fe  Fe289     1.0  0.13395  0.76478  0.63683  1.0000
  S   S585      1.0  0.13404  0.74330  0.65376  1.0000
  H   H2497     1.0  0.00017  0.61822  0.67649  1.0000
  H   H2498     1.0  0.07846  0.78321  0.58862  1.0000
  S   S586      1.0  0.13671  0.76360  0.61342  1.0000
  H   H2499     1.0  0.08624  0.75916  0.66218  1.0000
  S   S587      1.0  0.00825  0.76102  0.63911  1.0000
  H   H2500     1.0  0.03520  0.75675  0.55095  1.0000
  H   H2501     1.0  0.17540  0.70911  0.57439  1.0000
  Fe  Fe290     1.0  0.13301  0.64714  0.66473  1.0000
  N   N137      1.0  0.11732  0.64138  0.58631  1.0000
  C   C2105     1.0  0.05461  0.60405  0.66790  1.0000
  H   H2502     1.0  0.02452  0.59550  0.69892  1.0000
  C   C2106     1.0  0.21409  0.74624  0.50093  1.0000
  C   C2107     1.0  0.26161  0.69557  0.48294  1.0000
  H   H2503     1.0  0.06045  0.69939  0.58743  1.0000
  C   C2108     1.0  0.41549  0.78267  0.52373  1.0000
  H   H2504     1.0  0.07470  0.62813  0.68285  1.0000
  H   H2505     1.0  0.02322  0.69256  0.60679  1.0000
  H   H2506     1.0  0.48765  0.75461  0.83199  1.0000
  C   C2109     1.0  0.21167  0.62213  0.59105  1.0000
  H   H2507     1.0  0.09496  0.62581  0.71281  1.0000
  C   C2110     1.0  0.00454  0.71229  0.63700  1.0000
  H   H2508     1.0  0.46013  0.77092  0.89523  1.0000
  H   H2509     1.0  0.45107  0.74012  0.93174  1.0000
  S   S588      1.0  0.29734  0.78168  0.57076  1.0000
  H   H2510     1.0  0.05087  0.68660  0.60167  1.0000
  C   C2111     1.0  0.17867  0.64405  0.53650  1.0000
  C   C2112     1.0  0.06198  0.58677  0.69442  1.0000
  Fe  Fe291     1.0  0.47342  0.69425  0.93248  1.0000
  S   S589      1.0  0.47293  0.68675  0.91275  1.0000
  H   H2511     1.0  0.46247  0.64045  0.93824  1.0000
  H   H2512     1.0  0.19909  0.59541  0.49922  1.0000
  H   H2513     1.0  0.21193  0.70978  0.51068  1.0000
  H   H2514     1.0  0.39156  0.59994  0.96246  1.0000
  H   H2515     1.0  0.22082  0.75384  0.50022  1.0000
  H   H2516     1.0  0.48857  0.74374  0.90955  1.0000
  C   C2113     1.0  0.41023  0.72855  0.97106  1.0000
  S   S590      1.0  0.37513  0.63874  0.95886  1.0000
  H   H2517     1.0  0.45566  0.64394  0.97546  1.0000
  S   S591      1.0  0.40391  0.65071  0.97024  1.0000
  Fe  Fe292     1.0  0.00929  0.64574  0.60405  1.0000
  C   C2114     1.0  0.20469  0.66554  0.62607  1.0000
  C   C2115     1.0  0.10695  0.62208  0.71128  1.0000
  C   C2116     1.0  0.24556  0.72870  0.49842  1.0000
  H   H2518     1.0  0.10933  0.63607  0.61004  1.0000
  H   H2519     1.0  0.18915  0.66339  0.60755  1.0000
  S   S592      1.0  0.21717  0.64747  0.59333  1.0000
  C   C2117     1.0  0.48157  0.74076  0.85358  1.0000
  S   S593      1.0  0.45957  0.61782  0.90958  1.0000
  C   C2118     1.0  0.41283  0.71593  0.96541  1.0000
  H   H2520     1.0  0.07789  0.60426  0.71797  1.0000
  H   H2521     1.0  0.45784  0.66632  0.94057  1.0000
  Fe  Fe293     1.0  0.29703  0.74015  0.58742  1.0000
  S   S594      1.0  0.28289  0.75405  0.57150  1.0000
  S   S595      1.0  0.29555  0.71653  0.59783  1.0000
  Fe  Fe294     1.0  0.30994  0.76555  0.58721  1.0000
  C   C2119     1.0  0.07060  0.62217  0.69432  1.0000
  H   H2522     1.0  0.45447  0.73600  0.90634  1.0000
  Fe  Fe295     1.0  0.27801  0.77157  0.58424  1.0000
  S   S596      1.0  0.20462  0.68652  0.48542  1.0000
  Fe  Fe296     1.0  0.30335  0.76291  0.55922  1.0000
  Fe  Fe297     1.0  0.48297  0.70624  0.89943  1.0000
  S   S597      1.0  0.29008  0.75677  0.60153  1.0000
  S   S598      1.0  0.31806  0.74763  0.57438  1.0000
  S   S599      1.0  0.02805  0.59947  0.63961  1.0000
  H   H2523     1.0  0.24743  0.70428  0.52000  1.0000
  C   C2120     1.0  0.21039  0.76893  0.61732  1.0000
  H   H2524     1.0  0.09626  0.63449  0.59325  1.0000
  S   S600      1.0  0.39110  0.76022  0.59380  1.0000
  H   H2525     1.0  0.44843  0.71911  0.91577  1.0000
  H   H2526     1.0  0.39215  0.65263  0.92764  1.0000
  C   C2121     1.0  0.16935  0.60584  0.59490  1.0000
  H   H2527     1.0  0.31622  0.70991  0.48543  1.0000
  C   C2122     1.0  0.17004  0.61866  0.59854  1.0000
  H   H2528     1.0  0.24484  0.71684  0.61421  1.0000
  C   C2123     1.0  0.43412  0.59809  0.97341  1.0000
  S   S601      1.0  0.44096  0.58475  0.93333  1.0000
  C   C2124     1.0  0.00988  0.63210  0.70047  1.0000
  H   H2529     1.0  0.15880  0.66299  0.56593  1.0000
  H   H2530     1.0  0.14518  0.64559  0.58457  1.0000
  S   S602      1.0  0.26636  0.75477  0.50380  1.0000
  C   C2125     1.0  0.99747  0.76290  0.57124  1.0000
  H   H2531     1.0  0.25466  0.73567  0.61842  1.0000
  N   N138      1.0  0.18957  0.66236  0.63004  1.0000
  C   C2126     1.0  0.11308  0.60929  0.72070  1.0000
  H   H2532     1.0  0.20574  0.62137  0.60247  1.0000
  C   C2127     1.0  0.22091  0.61154  0.56935  1.0000
  H   H2533     1.0  0.24354  0.72673  0.52756  1.0000
  C   C2128     1.0  0.12601  0.62611  0.58560  1.0000
  S   S603      1.0  0.10922  0.65927  0.66433  1.0000
  C   C2129     1.0  0.23314  0.73148  0.52325  1.0000
  H   H2534     1.0  0.01095  0.58431  0.70652  1.0000
  C   C2130     1.0  0.40235  0.70706  0.96998  1.0000
  C   C2131     1.0  0.23950  0.58670  0.49165  1.0000
  H   H2535     1.0  0.16350  0.66722  0.58819  1.0000
  H   H2536     1.0  0.01658  0.60284  0.57603  1.0000
  C   C2132     1.0  0.14162  0.67216  0.55359  1.0000
  H   H2537     1.0  0.31732  0.73155  0.62653  1.0000
  H   H2538     1.0  0.34564  0.76583  0.52283  1.0000
  C   C2133     1.0  0.09094  0.60152  0.68937  1.0000
  S   S604      1.0  0.21200  0.65477  0.50894  1.0000
  H   H2539     1.0  0.15636  0.59036  0.53784  1.0000
  H   H2540     1.0  0.19847  0.64124  0.62377  1.0000
  C   C2134     1.0  0.00609  0.63893  0.67151  1.0000
  H   H2541     1.0  0.01650  0.62451  0.58500  1.0000
  S   S605      1.0  0.29656  0.60117  0.96034  1.0000
  C   C2135     1.0  0.99691  0.70076  0.64117  1.0000
  H   H2542     1.0  0.23398  0.72151  0.60032  1.0000
  C   C2136     1.0  0.16449  0.66814  0.66749  1.0000
  H   H2543     1.0  0.21241  0.65966  0.61751  1.0000
  S   S606      1.0  0.99520  0.75479  0.61423  1.0000
  C   C2137     1.0  0.23659  0.70849  0.51648  1.0000
  H   H2544     1.0  0.18175  0.68066  0.61303  1.0000
  H   H2545     1.0  0.43552  0.59971  0.96161  1.0000
  C   C2138     1.0  0.42286  0.75955  0.90305  1.0000
  H   H2546     1.0  0.44864  0.76584  0.85768  1.0000
  H   H2547     1.0  0.07563  0.62601  0.70125  1.0000
  H   H2548     1.0  0.01363  0.70365  0.59272  1.0000
  N   N139      1.0  0.43361  0.73882  0.92228  1.0000
  C   C2139     1.0  0.04955  0.69825  0.59515  1.0000
  H   H2549     1.0  0.25501  0.75295  0.60533  1.0000
  C   C2140     1.0  0.42914  0.75482  0.91574  1.0000
  H   H2550     1.0  0.41131  0.63190  0.94947  1.0000
  H   H2551     1.0  0.19709  0.76403  0.49243  1.0000
  H   H2552     1.0  0.48402  0.72060  0.96680  1.0000
  Fe  Fe298     1.0  0.19176  0.67114  0.50279  1.0000
  C   C2141     1.0  0.22815  0.74650  0.61085  1.0000
  C   C2142     1.0  0.18026  0.66932  0.64243  1.0000
  C   C2143     1.0  0.24342  0.74692  0.58586  1.0000
  C   C2144     1.0  0.24371  0.72352  0.60299  1.0000
  H   H2553     1.0  0.40054  0.66815  0.92224  1.0000
  C   C2145     1.0  0.13794  0.61317  0.70797  1.0000
  H   H2554     1.0  0.40436  0.62888  0.93546  1.0000
  H   H2555     1.0  0.18449  0.65206  0.53760  1.0000
  C   C2146     1.0  0.01058  0.64887  0.67646  1.0000
  C   C2147     1.0  0.14269  0.59496  0.67943  1.0000
  H   H2556     1.0  0.39603  0.65899  0.94149  1.0000
  C   C2148     1.0  0.19134  0.74295  0.49718  1.0000
  H   H2557     1.0  0.16055  0.70803  0.52846  1.0000
  C   C2149     1.0  0.18261  0.66855  0.61706  1.0000
  C   C2150     1.0  0.34591  0.77698  0.51546  1.0000
  H   H2558     1.0  0.00103  0.59493  0.72800  1.0000
  C   C2151     1.0  0.29871  0.76351  0.52575  1.0000
  C   C2152     1.0  0.30362  0.76079  0.51148  1.0000
  C   C2153     1.0  0.29376  0.75794  0.50476  1.0000
  C   C2154     1.0  0.27885  0.75820  0.51212  1.0000
  C   C2155     1.0  0.27384  0.76131  0.52621  1.0000
  C   C2156     1.0  0.28371  0.76411  0.53292  1.0000
  H   H2559     1.0  0.99835  0.72360  0.63673  1.0000
  H   H2560     1.0  0.29780  0.75531  0.49399  1.0000
  H   H2561     1.0  0.26227  0.76178  0.53185  1.0000
  H   H2562     1.0  0.36676  0.77977  0.60832  1.0000
  C   C2157     1.0  0.34077  0.76939  0.59785  1.0000
  H   H2563     1.0  0.02992  0.69135  0.57454  1.0000
  C   C2158     1.0  0.23989  0.59204  0.51919  1.0000
  C   C2159     1.0  0.37176  0.76329  0.59552  1.0000
  C   C2160     1.0  0.36577  0.75565  0.58899  1.0000
  C   C2161     1.0  0.35024  0.75881  0.59004  1.0000
  H   H2564     1.0  0.18072  0.74763  0.49394  1.0000
  C   C2162     1.0  0.00171  0.74855  0.57928  1.0000
  H   H2565     1.0  0.37317  0.74757  0.58289  1.0000
  H   H2566     1.0  0.34566  0.75319  0.58472  1.0000
  Fe  Fe299     1.0  0.21096  0.64394  0.49167  1.0000
  C   C2163     1.0  0.03407  0.72027  0.56257  1.0000
  C   C2164     1.0  0.21513  0.59345  0.95754  1.0000
  C   C2165     1.0  0.22317  0.60447  0.97275  1.0000
  N   N140      1.0  0.23326  0.72484  0.51108  1.0000
  H   H2567     1.0  0.16835  0.59021  0.68827  1.0000
  C   C2166     1.0  0.12752  0.67178  0.55248  1.0000
  Fe  Fe300     1.0  0.00899  0.65533  0.63128  1.0000
  H   H2568     1.0  0.32729  0.73359  0.51929  1.0000
  H   H2569     1.0  0.34777  0.70797  0.59466  1.0000
  H   H2570     1.0  0.48406  0.60804  0.92491  1.0000
  S   S607      1.0  0.41758  0.77683  0.49688  1.0000
  S   S608      1.0  0.31155  0.76571  0.53456  1.0000
  H   H2571     1.0  0.23234  0.74363  0.51971  1.0000
  C   C2167     1.0  0.11561  0.64377  0.60126  1.0000
  H   H2572     1.0  0.07747  0.61745  0.64140  1.0000
  H   H2573     1.0  0.24522  0.75834  0.58338  1.0000
  H   H2574     1.0  0.32993  0.70544  0.63414  1.0000
  H   H2575     1.0  0.47556  0.78310  0.89908  1.0000
  C   C2168     1.0  0.19575  0.72772  0.50229  1.0000
  C   C2169     1.0  0.47196  0.64171  0.90388  1.0000
  C   C2170     1.0  0.47257  0.62684  0.91108  1.0000
  H   H2576     1.0  0.18851  0.72051  0.50310  1.0000
  H   H2577     1.0  0.00447  0.64168  0.66032  1.0000
  H   H2578     1.0  0.41456  0.73347  0.91862  1.0000
  H   H2579     1.0  0.46361  0.64749  0.89743  1.0000
  H   H2580     1.0  0.41184  0.73762  0.93629  1.0000
  S   S609      1.0  0.17226  0.68030  0.51937  1.0000
  C   C2171     1.0  0.11946  0.66194  0.56301  1.0000
  H   H2581     1.0  0.04420  0.58683  0.66835  1.0000
  H   H2582     1.0  0.31206  0.72799  0.61185  1.0000
  C   C2172     1.0  0.33285  0.72934  0.49750  1.0000
  C   C2173     1.0  0.35686  0.63581  0.96417  1.0000
  C   C2174     1.0  0.35302  0.62646  0.95774  1.0000
  C   C2175     1.0  0.33860  0.62363  0.96224  1.0000
  H   H2583     1.0  0.06611  0.61920  0.66943  1.0000
  C   C2176     1.0  0.20054  0.75218  0.49642  1.0000
  H   H2584     1.0  0.36121  0.62134  0.94931  1.0000
  H   H2585     1.0  0.33566  0.61652  0.95714  1.0000
  H   H2586     1.0  0.12648  0.64199  0.60421  1.0000
  H   H2587     1.0  0.26649  0.69061  0.49251  1.0000
  C   C2177     1.0  0.03965  0.69037  0.57920  1.0000
  H   H2588     1.0  0.23446  0.60294  0.95036  1.0000
  C   C2178     1.0  0.36222  0.77385  0.60325  1.0000
  C   C2179     1.0  0.45811  0.70408  0.96391  1.0000
  S   S610      1.0  0.15967  0.64099  0.61329  1.0000
  H   H2589     1.0  0.09831  0.73513  0.67597  1.0000
  H   H2590     1.0  0.13782  0.62253  0.62475  1.0000
  Fe  Fe301     1.0  0.00687  0.77163  0.59774  1.0000
  H   H2591     1.0  0.32285  0.74167  0.60779  1.0000
  C   C2180     1.0  0.11628  0.63016  0.69996  1.0000
  C   C2181     1.0  0.00350  0.62557  0.68093  1.0000
  C   C2182     1.0  0.00350  0.60564  0.72093  1.0000
  H   H2592     1.0  0.04733  0.70501  0.60346  1.0000
  H   H2593     1.0  0.09503  0.71181  0.67273  1.0000
  C   C2183     1.0  0.21675  0.58405  0.52748  1.0000
  H   H2594     1.0  0.20577  0.77987  0.58001  1.0000
  Fe  Fe302     1.0  0.39473  0.67300  0.97596  1.0000
  C   C2184     1.0  0.21885  0.73080  0.50636  1.0000
  C   C2185     1.0  0.34621  0.64242  0.97503  1.0000
  H   H2595     1.0  0.19106  0.63595  0.56013  1.0000
  C   C2186     1.0  0.03359  0.73437  0.55332  1.0000
  H   H2596     1.0  0.14778  0.67985  0.54540  1.0000
  S   S611      1.0  0.15189  0.77749  0.63171  1.0000
  C   C2187     1.0  0.02292  0.70279  0.59791  1.0000
  H   H2597     1.0  0.18261  0.69179  0.63085  1.0000
  C   C2188     1.0  0.01284  0.59518  0.69948  1.0000
  H   H2598     1.0  0.00022  0.70323  0.51628  1.0000
  H   H2599     1.0  0.34225  0.69557  0.62056  1.0000
  C   C2189     1.0  0.32786  0.63043  0.97294  1.0000
  H   H2600     1.0  0.13341  0.59495  0.72629  1.0000
  C   C2190     1.0  0.22502  0.60068  0.95930  1.0000
  H   H2601     1.0  0.44468  0.77909  0.78609  1.0000
  N   N141      1.0  0.03735  0.70236  0.58701  1.0000
  H   H2602     1.0  0.41325  0.64246  0.90879  1.0000
  C   C2191     1.0  0.44914  0.66239  0.93863  1.0000
  C   C2192     1.0  0.27628  0.69987  0.56885  1.0000
  C   C2193     1.0  0.28413  0.71120  0.56268  1.0000
  C   C2194     1.0  0.29024  0.71614  0.57153  1.0000
  C   C2195     1.0  0.28858  0.70974  0.58662  1.0000
  C   C2196     1.0  0.28090  0.69826  0.59281  1.0000
  C   C2197     1.0  0.27459  0.69345  0.58397  1.0000
  H   H2603     1.0  0.28532  0.71638  0.55110  1.0000
  H   H2604     1.0  0.29643  0.72476  0.56657  1.0000
  H   H2605     1.0  0.27964  0.69323  0.60448  1.0000
  H   H2606     1.0  0.26868  0.68458  0.58879  1.0000
  C   C2198     1.0  0.19134  0.70442  0.54143  1.0000
  C   C2199     1.0  0.19895  0.69033  0.53914  1.0000
  C   C2200     1.0  0.19295  0.68283  0.53255  1.0000
  C   C2201     1.0  0.17914  0.68920  0.52866  1.0000
  C   C2202     1.0  0.17120  0.70303  0.53154  1.0000
  C   C2203     1.0  0.17742  0.71076  0.53773  1.0000
  H   H2607     1.0  0.20971  0.68540  0.54196  1.0000
  H   H2608     1.0  0.19911  0.67212  0.53047  1.0000
  H   H2609     1.0  0.36482  0.70415  0.60777  1.0000
  H   H2610     1.0  0.17154  0.72169  0.53950  1.0000
  C   C2204     1.0  0.19908  0.72572  0.60706  1.0000
  C   C2205     1.0  0.18622  0.73188  0.61646  1.0000
  C   C2206     1.0  0.17872  0.74659  0.61204  1.0000
  C   C2207     1.0  0.18423  0.75518  0.59830  1.0000
  C   C2208     1.0  0.19717  0.74906  0.58902  1.0000
  C   C2209     1.0  0.20454  0.73437  0.59340  1.0000
  H   H2611     1.0  0.18202  0.72532  0.62713  1.0000
  H   H2612     1.0  0.16875  0.75127  0.61932  1.0000
  H   H2613     1.0  0.20141  0.75564  0.57838  1.0000
  H   H2614     1.0  0.21465  0.72996  0.58628  1.0000
  C   C2210     1.0  0.11791  0.71004  0.63982  1.0000
  C   C2211     1.0  0.12640  0.70515  0.65063  1.0000
  C   C2212     1.0  0.13125  0.71544  0.65497  1.0000
  C   C2213     1.0  0.12784  0.73054  0.64833  1.0000
  C   C2214     1.0  0.11942  0.73534  0.63749  1.0000
  C   C2215     1.0  0.11452  0.72511  0.63322  1.0000
  H   H2615     1.0  0.12898  0.69352  0.65585  1.0000
  H   H2616     1.0  0.13754  0.71176  0.66353  1.0000
  H   H2617     1.0  0.11617  0.74700  0.63278  1.0000
  H   H2618     1.0  0.10786  0.72894  0.62497  1.0000
  C   C2216     1.0  0.06620  0.60064  0.68872  1.0000
  H   H2619     1.0  0.18418  0.62157  0.51847  1.0000
  S   S612      1.0  0.49225  0.77376  0.79648  1.0000
  H   H2620     1.0  0.23316  0.74749  0.58223  1.0000
  Fe  Fe303     1.0  0.11047  0.64418  0.64992  1.0000
  H   H2621     1.0  0.35767  0.74745  0.62896  1.0000
  C   C2217     1.0  0.22580  0.63521  0.56877  1.0000
  C   C2218     1.0  0.00675  0.62407  0.58175  1.0000
  H   H2622     1.0  0.00343  0.67396  0.55841  1.0000
  H   H2623     1.0  0.20802  0.60151  0.58992  1.0000
  H   H2624     1.0  0.41373  0.67498  0.93398  1.0000
  H   H2625     1.0  0.13735  0.62413  0.58762  1.0000
  C   C2219     1.0  0.42414  0.66700  0.93469  1.0000
  H   H2626     1.0  0.20981  0.66209  0.63586  1.0000
  C   C2220     1.0  0.05031  0.59058  0.67399  1.0000
  Fe  Fe304     1.0  0.27616  0.75594  0.47963  1.0000
  H   H2627     1.0  0.03153  0.71219  0.55842  1.0000
  H   H2628     1.0  0.31513  0.76056  0.50572  1.0000
  H   H2629     1.0  0.46985  0.74595  0.85495  1.0000
  C   C2221     1.0  0.17351  0.66111  0.65618  1.0000
  H   H2630     1.0  0.25190  0.58972  0.51358  1.0000
  N   N142      1.0  0.33538  0.71916  0.61250  1.0000
  H   H2631     1.0  0.15498  0.68881  0.67433  1.0000
  H   H2632     1.0  0.04991  0.69015  0.57021  1.0000
  C   C2222     1.0  0.03879  0.74309  0.57198  1.0000
  C   C2223     1.0  0.16862  0.69178  0.65228  1.0000
  H   H2633     1.0  0.38289  0.73226  0.62184  1.0000
  Fe  Fe305     1.0  0.37995  0.64975  0.97411  1.0000
  H   H2634     1.0  0.32893  0.71653  0.59378  1.0000
  H   H2635     1.0  0.42273  0.65718  0.90559  1.0000
  C   C2224     1.0  0.20932  0.72166  0.50674  1.0000
  H   H2636     1.0  0.43968  0.73143  0.90166  1.0000
  Fe  Fe306     1.0  0.43265  0.78084  0.96301  1.0000
  H   H2637     1.0  0.04021  0.69193  0.63089  1.0000
  H   H2638     1.0  0.16656  0.64763  0.54122  1.0000
  C   C2225     1.0  0.21293  0.61086  0.58395  1.0000
  C   C2226     1.0  0.06969  0.64816  0.61459  1.0000
  C   C2227     1.0  0.06984  0.63382  0.62317  1.0000
  H   H2639     1.0  0.38627  0.71055  0.61152  1.0000
  C   C2228     1.0  0.08408  0.63788  0.63828  1.0000
  C   C2229     1.0  0.08373  0.65230  0.62981  1.0000
  C   C2230     1.0  0.07674  0.65738  0.61781  1.0000
  H   H2640     1.0  0.06439  0.62667  0.62068  1.0000
  C   C2231     1.0  0.48658  0.72906  0.86472  1.0000
  H   H2641     1.0  0.08846  0.65970  0.63275  1.0000
  H   H2642     1.0  0.07635  0.66858  0.61138  1.0000
  C   C2232     1.0  0.02048  0.68303  0.63735  1.0000
  C   C2233     1.0  0.02812  0.69445  0.63369  1.0000
  C   C2234     1.0  0.02016  0.70913  0.63319  1.0000
  H   H2643     1.0  0.02671  0.67178  0.63732  1.0000
  H   H2644     1.0  0.16671  0.70368  0.65082  1.0000
  N   N143      1.0  0.18481  0.62873  0.54387  1.0000
  C   C2235     1.0  0.20082  0.62444  0.53669  1.0000
  C   C2236     1.0  0.17639  0.61865  0.54241  1.0000
  C   C2237     1.0  0.16676  0.61136  0.55462  1.0000
  C   C2238     1.0  0.17759  0.61596  0.52836  1.0000
  C   C2239     1.0  0.15959  0.60133  0.55292  1.0000
  C   C2240     1.0  0.17046  0.60585  0.52679  1.0000
  C   C2241     1.0  0.20212  0.60073  0.48770  1.0000
  H   H2645     1.0  0.20273  0.62673  0.52452  1.0000
  C   C2242     1.0  0.12541  0.65210  0.57505  1.0000
  H   H2646     1.0  0.20532  0.61244  0.54052  1.0000
  H   H2647     1.0  0.16490  0.61287  0.56568  1.0000
  H   H2648     1.0  0.09474  0.58930  0.69078  1.0000
  H   H2649     1.0  0.23145  0.60961  0.97371  1.0000
  Fe  Fe307     1.0  0.22489  0.66918  0.49026  1.0000
  N   N144      1.0  0.29764  0.70508  0.51408  1.0000
  C   C2243     1.0  0.28329  0.71554  0.51823  1.0000
  C   C2244     1.0  0.29575  0.69764  0.50338  1.0000
  C   C2245     1.0  0.30062  0.69347  0.52737  1.0000
  C   C2246     1.0  0.30984  0.71323  0.50820  1.0000
  C   C2247     1.0  0.31825  0.71464  0.49337  1.0000
  C   C2248     1.0  0.31351  0.72025  0.51739  1.0000
  C   C2249     1.0  0.32957  0.72258  0.48820  1.0000
  C   C2250     1.0  0.32492  0.72807  0.51212  1.0000
  C   C2251     1.0  0.42571  0.78110  0.91557  1.0000
  H   H2650     1.0  0.28054  0.72420  0.50842  1.0000
  H   H2651     1.0  0.27389  0.70976  0.52330  1.0000
  H   H2652     1.0  0.28357  0.72149  0.52641  1.0000
  H   H2653     1.0  0.29265  0.70575  0.49339  1.0000
  H   H2654     1.0  0.28665  0.69143  0.50826  1.0000
  H   H2655     1.0  0.30613  0.68949  0.49986  1.0000
  H   H2656     1.0  0.30028  0.69816  0.53674  1.0000
  H   H2657     1.0  0.29209  0.68657  0.53165  1.0000
  H   H2658     1.0  0.31178  0.68595  0.52492  1.0000
  H   H2659     1.0  0.07797  0.58721  0.71468  1.0000
  H   H2660     1.0  0.30739  0.72001  0.52869  1.0000
  H   H2661     1.0  0.05187  0.61065  0.65749  1.0000
  C   C2252     1.0  0.37259  0.77298  0.51049  1.0000
  H   H2662     1.0  0.37274  0.77134  0.49948  1.0000
  N   N145      1.0  0.06603  0.73708  0.63736  1.0000
  C   C2253     1.0  0.06589  0.72234  0.63553  1.0000
  C   C2254     1.0  0.05029  0.74494  0.64188  1.0000
  C   C2255     1.0  0.07270  0.74536  0.62267  1.0000
  C   C2256     1.0  0.07449  0.73626  0.64839  1.0000
  C   C2257     1.0  0.08124  0.72263  0.65683  1.0000
  C   C2258     1.0  0.07621  0.74941  0.65094  1.0000
  C   C2259     1.0  0.08953  0.72233  0.66680  1.0000
  C   C2260     1.0  0.08467  0.74898  0.66080  1.0000
  C   C2261     1.0  0.32134  0.73063  0.61479  1.0000
  H   H2663     1.0  0.05987  0.72334  0.62684  1.0000
  H   H2664     1.0  0.07744  0.71582  0.63211  1.0000
  H   H2665     1.0  0.06001  0.71583  0.64586  1.0000
  H   H2666     1.0  0.04497  0.73942  0.65312  1.0000
  H   H2667     1.0  0.04340  0.74523  0.63418  1.0000
  H   H2668     1.0  0.04930  0.75667  0.64202  1.0000
  H   H2669     1.0  0.08449  0.73981  0.61877  1.0000
  H   H2670     1.0  0.06641  0.74640  0.61419  1.0000
  H   H2671     1.0  0.07268  0.75683  0.62278  1.0000
  H   H2672     1.0  0.08069  0.71201  0.65565  1.0000
  H   H2673     1.0  0.07115  0.76016  0.64518  1.0000
  N   N146      1.0  0.41555  0.64714  0.92850  1.0000
  H   H2674     1.0  0.43485  0.76371  0.93162  1.0000
  C   C2262     1.0  0.49163  0.74559  0.84054  1.0000
  C   C2263     1.0  0.17029  0.68803  0.58005  1.0000
  H   H2675     1.0  0.15279  0.59543  0.56250  1.0000
  H   H2676     1.0  0.23423  0.60297  0.51337  1.0000
  H   H2677     1.0  0.17877  0.68448  0.57082  1.0000
  H   H2678     1.0  0.01197  0.59529  0.68821  1.0000
  H   H2679     1.0  0.09792  0.60533  0.69444  1.0000
  H   H2680     1.0  0.01994  0.71234  0.60331  1.0000
  C   C2264     1.0  0.16479  0.59158  0.65291  1.0000
  H   H2681     1.0  0.12044  0.61765  0.59405  1.0000
  C   C2265     1.0  0.25040  0.68994  0.48109  1.0000
  H   H2682     1.0  0.17193  0.60366  0.51599  1.0000
  H   H2683     1.0  0.17117  0.66648  0.61974  1.0000
  H   H2684     1.0  0.04038  0.72795  0.59247  1.0000
  H   H2685     1.0  0.46385  0.66554  0.97580  1.0000
  Fe  Fe308     1.0  0.46134  0.59389  0.92139  1.0000
  C   C2266     1.0  0.22719  0.62382  0.56170  1.0000
  H   H2686     1.0  0.01512  0.60527  0.72139  1.0000
  C   C2267     1.0  0.42109  0.64625  0.91277  1.0000
  H   H2687     1.0  0.19698  0.64051  0.64281  1.0000
  H   H2688     1.0  0.13666  0.59979  0.61835  1.0000
  C   C2268     1.0  0.21884  0.73810  0.62230  1.0000
  H   H2689     1.0  0.48178  0.66056  0.89913  1.0000
  H   H2690     1.0  0.24521  0.74078  0.49522  1.0000
  H   H2691     1.0  0.45392  0.75569  0.88260  1.0000
  N   N147      1.0  0.07485  0.60579  0.69610  1.0000
  H   H2692     1.0  0.39753  0.61114  0.97074  1.0000
  C   C2269     1.0  0.09138  0.73545  0.66866  1.0000
  H   H2693     1.0  0.21574  0.58635  0.53839  1.0000
  H   H2694     1.0  0.26589  0.73608  0.60003  1.0000
  H   H2695     1.0  0.42379  0.62335  0.93488  1.0000
  H   H2696     1.0  0.12284  0.67920  0.54336  1.0000
  H   H2697     1.0  0.37435  0.76188  0.51807  1.0000
  H   H2698     1.0  0.03081  0.73664  0.54264  1.0000
  H   H2699     1.0  0.10241  0.64006  0.57374  1.0000
  S   S613      1.0  0.22324  0.59718  0.56046  1.0000
  H   H2700     1.0  0.27958  0.76711  0.54348  1.0000
  H   H2701     1.0  0.99685  0.61190  0.65163  1.0000
  C   C2270     1.0  0.45169  0.64782  0.93741  1.0000
  C   C2271     1.0  0.41829  0.77458  0.89681  1.0000
  S   S614      1.0  0.99529  0.67205  0.64466  1.0000
  C   C2272     1.0  0.99757  0.69358  0.52460  1.0000
  H   H2702     1.0  0.21062  0.59406  0.52081  1.0000
  H   H2703     1.0  0.38258  0.77755  0.50871  1.0000
  C   C2273     1.0  0.99931  0.67719  0.54832  1.0000
  H   H2704     1.0  0.44161  0.66724  0.96620  1.0000
  H   H2705     1.0  0.09335  0.60644  0.67729  1.0000
  H   H2706     1.0  0.10861  0.66227  0.56146  1.0000
  H   H2707     1.0  0.17266  0.63274  0.56542  1.0000
  H   H2708     1.0  0.11143  0.64004  0.69280  1.0000
  H   H2709     1.0  0.23338  0.62442  0.55038  1.0000
  Fe  Fe309     1.0  0.01966  0.77719  0.62089  1.0000
  C   C2274     1.0  0.37324  0.72926  0.62063  1.0000
  H   H2710     1.0  0.20789  0.63055  0.53903  1.0000
  C   C2275     1.0  0.03714  0.71710  0.57686  1.0000
  H   H2711     1.0  0.17805  0.60136  0.58643  1.0000
  C   C2276     1.0  0.16204  0.68343  0.66554  1.0000
  H   H2712     1.0  0.25674  0.72324  0.50094  1.0000
  S   S615      1.0  0.43380  0.75656  0.96663  1.0000
  C   C2277     1.0  0.37512  0.71713  0.61466  1.0000
  C   C2278     1.0  0.00514  0.62179  0.69577  1.0000
  H   H2713     1.0  0.25384  0.71885  0.59525  1.0000
  C   C2279     1.0  0.12861  0.60473  0.71894  1.0000
  C   C2280     1.0  0.17764  0.68486  0.64089  1.0000
  N   N148      1.0  0.00210  0.60760  0.70552  1.0000
  H   H2714     1.0  0.17453  0.59904  0.62985  1.0000
  S   S616      1.0  0.45521  0.69395  0.95285  1.0000
  H   H2715     1.0  0.09480  0.65368  0.58512  1.0000
  S   S617      1.0  0.18947  0.65907  0.48721  1.0000
  C   C2281     1.0  0.45831  0.77590  0.88422  1.0000
  H   H2716     1.0  0.13459  0.59524  0.69024  1.0000
  C   C2282     1.0  0.42022  0.73229  0.92760  1.0000
  H   H2717     1.0  0.42314  0.72019  0.93248  1.0000
  C   C2283     1.0  0.48337  0.61949  0.91944  1.0000
  C   C2284     1.0  0.45455  0.76704  0.87717  1.0000
  C   C2285     1.0  0.14671  0.61784  0.61653  1.0000
  C   C2286     1.0  0.33883  0.71780  0.59690  1.0000
  S   S618      1.0  0.24400  0.67534  0.49464  1.0000
  C   C2287     1.0  0.15736  0.59901  0.60201  1.0000
  H   H2718     1.0  0.22350  0.72955  0.53266  1.0000
  H   H2719     1.0  0.12746  0.62384  0.57455  1.0000
  N   N149      1.0  0.15517  0.72199  0.59732  1.0000
  C   C2288     1.0  0.15623  0.72065  0.61271  1.0000
  C   C2289     1.0  0.16622  0.73062  0.58734  1.0000
  C   C2290     1.0  0.14008  0.73059  0.59536  1.0000
  C   C2291     1.0  0.15752  0.70711  0.59448  1.0000
  C   C2292     1.0  0.16827  0.70223  0.58230  1.0000
  C   C2293     1.0  0.14858  0.69711  0.60382  1.0000
  C   C2294     1.0  0.15066  0.68297  0.60145  1.0000
  C   C2295     1.0  0.16164  0.67836  0.58971  1.0000
  H   H2720     1.0  0.16725  0.71378  0.61474  1.0000
  H   H2721     1.0  0.15492  0.73165  0.61508  1.0000
  H   H2722     1.0  0.14739  0.71565  0.62112  1.0000
  H   H2723     1.0  0.17788  0.72471  0.58824  1.0000
  H   H2724     1.0  0.16439  0.74159  0.59003  1.0000
  H   H2725     1.0  0.16548  0.73301  0.57557  1.0000
  H   H2726     1.0  0.13109  0.72541  0.60332  1.0000
  H   H2727     1.0  0.13791  0.74202  0.59703  1.0000
  H   H2728     1.0  0.13874  0.73154  0.58402  1.0000
  H   H2729     1.0  0.13983  0.70018  0.61303  1.0000
  H   H2730     1.0  0.14382  0.67547  0.60885  1.0000
  H   H2731     1.0  0.32281  0.70205  0.62028  1.0000
  C   C2296     1.0  0.07261  0.59921  0.71225  1.0000
  H   H2732     1.0  0.18887  0.61734  0.56541  1.0000
  C   C2297     1.0  0.49308  0.64174  0.91315  1.0000
  C   C2298     1.0  0.34659  0.73465  0.62220  1.0000
  C   C2299     1.0  0.18420  0.62864  0.55942  1.0000
  C   C2300     1.0  0.34816  0.72260  0.61570  1.0000
  H   H2733     1.0  0.10941  0.65526  0.60209  1.0000
  H   H2734     1.0  0.17472  0.64927  0.65842  1.0000
  H   H2735     1.0  0.18047  0.64288  0.63582  1.0000
  S   S619      1.0  0.14353  0.63595  0.68423  1.0000
  H   H2736     1.0  0.04007  0.75214  0.57574  1.0000
  H   H2737     1.0  0.24497  0.72533  0.48854  1.0000
  H   H2738     1.0  0.34687  0.77584  0.50406  1.0000
  H   H2739     1.0  0.43208  0.63834  0.91092  1.0000
  S   S620      1.0  0.00213  0.77765  0.57499  1.0000
  C   C2301     1.0  0.01253  0.64544  0.69088  1.0000
  S   S621      1.0  0.09338  0.63119  0.65286  1.0000
  C   C2302     1.0  0.33249  0.70493  0.62230  1.0000
  H   H2740     1.0  0.17938  0.62389  0.59300  1.0000
  C   C2303     1.0  0.06261  0.60894  0.67499  1.0000
  C   C2304     1.0  0.25501  0.74114  0.60658  1.0000
  N   N150      1.0  0.24226  0.73956  0.60175  1.0000
  H   H2741     1.0  0.41851  0.73509  0.96774  1.0000
  C   C2305     1.0  0.39658  0.59965  0.97166  1.0000
  H   H2742     1.0  0.15620  0.60164  0.65257  1.0000
  H   H2743     1.0  0.44410  0.72365  0.93952  1.0000
  H   H2744     1.0  0.01156  0.63018  0.71150  1.0000
  C   C2306     1.0  0.44061  0.64282  0.93458  1.0000
  C   C2307     1.0  0.10210  0.64251  0.58442  1.0000
  C   C2308     1.0  0.42653  0.65228  0.93295  1.0000
  S   S622      1.0  0.48099  0.71487  0.91929  1.0000
  H   H2745     1.0  0.19846  0.73839  0.63909  1.0000
  C   C2309     1.0  0.20561  0.74502  0.63071  1.0000
  H   H2746     1.0  0.33035  0.77791  0.48157  1.0000
  Fe  Fe310     1.0  0.14141  0.64735  0.63216  1.0000
  C   C2310     1.0  0.13178  0.62583  0.69837  1.0000
  C   C2311     1.0  0.48215  0.64917  0.90496  1.0000
  C   C2312     1.0  0.15874  0.62468  0.60934  1.0000
  S   S623      1.0  0.21184  0.61959  0.49736  1.0000
  C   C2313     1.0  0.22368  0.76214  0.60892  1.0000
  C   C2314     1.0  0.03603  0.74572  0.55798  1.0000
  H   H2747     1.0  0.24380  0.59603  0.49132  1.0000
  C   C2315     1.0  0.19141  0.64603  0.63339  1.0000
  C   C2316     1.0  0.99995  0.60072  0.65778  1.0000
  H   H2748     1.0  0.33601  0.74216  0.62502  1.0000
  C   C2317     1.0  0.44655  0.70847  0.97544  1.0000
  C   C2318     1.0  0.43533  0.67189  0.93749  1.0000
  H   H2749     1.0  0.00986  0.69574  0.53914  1.0000
  C   C2319     1.0  0.07714  0.62864  0.63495  1.0000
  C   C2320     1.0  0.47171  0.70828  0.96094  1.0000
  S   S624      1.0  0.40608  0.69149  0.96233  1.0000
  C   C2321     1.0  0.36277  0.71370  0.61238  1.0000
  C   C2322     1.0  0.40048  0.65721  0.93004  1.0000
  H   H2750     1.0  0.23044  0.76929  0.60092  1.0000
  H   H2751     1.0  0.15919  0.66168  0.67777  1.0000
  C   C2323     1.0  0.03909  0.72909  0.58142  1.0000
  H   H2752     1.0  0.19582  0.58406  0.96799  1.0000
  H   H2753     1.0  0.44341  0.63158  0.93322  1.0000
  H   H2754     1.0  0.23934  0.59337  0.53044  1.0000
  Fe  Fe311     1.0  0.02245  0.62354  0.62858  1.0000
  C   C2324     1.0  0.99864  0.73665  0.57602  1.0000
  H   H2755     1.0  0.23734  0.70269  0.50774  1.0000
  H   H2756     1.0  0.22134  0.72615  0.62476  1.0000
  H   H2757     1.0  0.34249  0.72774  0.58921  1.0000
  C   C2325     1.0  0.41375  0.63220  0.93747  1.0000
  H   H2758     1.0  0.25315  0.74095  0.57863  1.0000
  H   H2759     1.0  0.14993  0.60986  0.70687  1.0000
  S   S625      1.0  0.13331  0.63092  0.65208  1.0000
  H   H2760     1.0  0.05164  0.78333  0.59986  1.0000
  H   H2761     1.0  0.22789  0.70494  0.52628  1.0000
  C   C2326     1.0  0.35900  0.73783  0.62461  1.0000
  C   C2327     1.0  0.44075  0.73573  0.93495  1.0000
  H   H2762     1.0  0.20456  0.67746  0.62140  1.0000
  H   H2763     1.0  0.17993  0.64525  0.52445  1.0000
  C   C2328     1.0  0.14780  0.66264  0.56519  1.0000
  C   C2329     1.0  0.13987  0.65274  0.57578  1.0000
  H   H2764     1.0  0.19084  0.76568  0.63442  1.0000
  C   C2330     1.0  0.44445  0.73109  0.91102  1.0000
  C   C2331     1.0  0.20337  0.58996  0.96923  1.0000
  Fe  Fe312     1.0  0.15297  0.77791  0.60823  1.0000
  H   H2765     1.0  0.14731  0.60506  0.67658  1.0000
  H   H2766     1.0  0.41350  0.77792  0.88713  1.0000
  C   C2332     1.0  0.00683  0.61187  0.57657  1.0000
  H   H2767     1.0  0.42185  0.77144  0.52641  1.0000
  H   H2768     1.0  0.43298  0.74044  0.94426  1.0000
  C   C2333     1.0  0.20128  0.76039  0.62809  1.0000
  C   C2334     1.0  0.16161  0.59842  0.53907  1.0000
  H   H2769     1.0  0.13611  0.59593  0.67123  1.0000
  S   S626      1.0  0.99957  0.63797  0.62805  1.0000
  H   H2770     1.0  0.21678  0.59027  0.94721  1.0000
  H   H2771     1.0  0.33569  0.77884  0.54235  1.0000
  H   H2772     1.0  0.42130  0.75164  0.89793  1.0000
  H   H2773     1.0  0.01245  0.65929  0.66908  1.0000
  H   H2774     1.0  0.42422  0.62110  0.97382  1.0000
  C   C2335     1.0  0.45167  0.77267  0.86306  1.0000
  H   H2775     1.0  0.20716  0.78090  0.61543  1.0000
  C   C2336     1.0  0.34680  0.77679  0.60452  1.0000
  H   H2776     1.0  0.00221  0.72562  0.58210  1.0000
  Fe  Fe313     1.0  0.39560  0.78264  0.59094  1.0000
  H   H2777     1.0  0.99560  0.61454  0.72625  1.0000
  C   C2337     1.0  0.34542  0.78160  0.54357  1.0000
  H   H2778     1.0  0.33549  0.78164  0.56655  1.0000
  N   N151      1.0  0.35838  0.78277  0.51645  1.0000
  C   C2338     1.0  0.35794  0.78359  0.53165  1.0000
  Fe  Fe314     1.0  0.30784  0.60555  0.97576  1.0000
  S   S627      1.0  0.25444  0.78338  0.59192  1.0000
  C   C2339     1.0  0.34511  0.78323  0.55759  1.0000
  C   C2340     1.0  0.23952  0.58436  0.47800  1.0000
  C   C2341     1.0  0.49413  0.75067  0.88585  1.0000
  H   H2779     1.0  0.43169  0.68036  0.97689  1.0000
  C   C2342     1.0  0.43485  0.66827  0.97737  1.0000
  H   H2780     1.0  0.44320  0.80421  0.28323  1.0000
  H   H2781     1.0  0.23023  0.84708  0.46320  1.0000
  H   H2782     1.0  0.06737  0.79438  0.40396  1.0000
  C   C2343     1.0  0.45933  0.82121  0.34399  1.0000
  C   C2344     1.0  0.21067  0.80704  0.40204  1.0000
  S   S628      1.0  0.44453  0.85220  0.28794  1.0000
  C   C2345     1.0  0.47629  0.90956  0.21793  1.0000
  H   H2783     1.0  0.24053  0.80703  0.39448  1.0000
  H   H2784     1.0  0.47661  0.90384  0.25413  1.0000
  C   C2346     1.0  0.46796  0.89076  0.24510  1.0000
  H   H2785     1.0  0.34628  0.82701  0.41714  1.0000
  H   H2786     1.0  0.44580  0.87477  0.25658  1.0000
  Fe  Fe315     1.0  0.40137  0.85842  0.29779  1.0000
  S   S629      1.0  0.41367  0.86632  0.30954  1.0000
  S   S630      1.0  0.37648  0.86069  0.30548  1.0000
  Fe  Fe316     1.0  0.42992  0.84556  0.27765  1.0000
  S   S631      1.0  0.44306  0.83311  0.25999  1.0000
  H   H2787     1.0  0.36106  0.90452  0.37956  1.0000
  Fe  Fe317     1.0  0.42747  0.87354  0.28694  1.0000
  C   C2347     1.0  0.46279  0.83891  0.32065  1.0000
  S   S632      1.0  0.41628  0.83568  0.29924  1.0000
  S   S633      1.0  0.41378  0.86758  0.27502  1.0000
  Fe  Fe318     1.0  0.33483  0.87878  0.38052  1.0000
  S   S634      1.0  0.33097  0.88570  0.40182  1.0000
  S   S635      1.0  0.35460  0.88561  0.36360  1.0000
  Fe  Fe319     1.0  0.30778  0.86527  0.39075  1.0000
  S   S636      1.0  0.30127  0.87159  0.41253  1.0000
  S   S637      1.0  0.29370  0.85113  0.38898  1.0000
  Fe  Fe320     1.0  0.30707  0.89307  0.39997  1.0000
  S   S638      1.0  0.29254  0.91418  0.40578  1.0000
  Fe  Fe321     1.0  0.32549  0.86355  0.41257  1.0000
  S   S639      1.0  0.31117  0.88785  0.37776  1.0000
  S   S640      1.0  0.33189  0.85564  0.39154  1.0000
  H   H2788     1.0  0.43914  0.92140  0.28486  1.0000
  H   H2789     1.0  0.46376  0.97355  0.24172  1.0000
  S   S641      1.0  0.27215  0.79706  0.43349  1.0000
  C   C2348     1.0  0.39176  0.86304  0.36743  1.0000
  C   C2349     1.0  0.24940  0.82138  0.43058  1.0000
  H   H2790     1.0  0.44777  0.86778  0.22119  1.0000
  Fe  Fe322     1.0  0.47488  0.83545  0.17212  1.0000
  S   S642      1.0  0.45233  0.83514  0.16964  1.0000
  H   H2791     1.0  0.48166  0.85232  0.34950  1.0000
  Fe  Fe323     1.0  0.46999  0.86904  0.16242  1.0000
  S   S643      1.0  0.44701  0.87152  0.15911  1.0000
  H   H2792     1.0  0.28611  0.84402  0.45899  1.0000
  Fe  Fe324     1.0  0.44449  0.85458  0.18048  1.0000
  S   S644      1.0  0.42407  0.85763  0.19869  1.0000
  Fe  Fe325     1.0  0.45712  0.85186  0.14857  1.0000
  S   S645      1.0  0.45559  0.85021  0.12618  1.0000
  S   S646      1.0  0.46673  0.85363  0.18460  1.0000
  S   S647      1.0  0.48038  0.85070  0.15022  1.0000
  H   H2793     1.0  0.40972  0.82486  0.98306  1.0000
  S   S648      1.0  0.43505  0.89502  0.27896  1.0000
  H   H2794     1.0  0.48451  0.81280  0.31011  1.0000
  H   H2795     1.0  0.38686  0.87130  0.35845  1.0000
  H   H2796     1.0  0.42289  0.80771  0.98149  1.0000
  Fe  Fe326     1.0  0.42947  0.84432  0.30942  1.0000
  Fe  Fe327     1.0  0.19969  0.85200  0.43458  1.0000
  S   S649      1.0  0.20937  0.85025  0.41099  1.0000
  S   S650      1.0  0.20722  0.83411  0.45327  1.0000
  Fe  Fe328     1.0  0.17834  0.88135  0.42636  1.0000
  S   S651      1.0  0.18589  0.88167  0.40216  1.0000
  S   S652      1.0  0.16150  0.90023  0.43503  1.0000
  Fe  Fe329     1.0  0.18548  0.85738  0.40888  1.0000
  S   S653      1.0  0.17701  0.84564  0.39662  1.0000
  Fe  Fe330     1.0  0.20887  0.87444  0.40686  1.0000
  S   S654      1.0  0.22678  0.88705  0.39446  1.0000
  S   S655      1.0  0.17575  0.85774  0.43278  1.0000
  S   S656      1.0  0.20124  0.87552  0.43070  1.0000
  H   H2797     1.0  0.29223  0.85169  0.43979  1.0000
  H   H2798     1.0  0.43892  0.81212  0.99425  1.0000
  H   H2799     1.0  0.48966  0.89841  0.34776  1.0000
  S   S657      1.0  0.41761  0.80740  0.12244  1.0000
  C   C2350     1.0  0.45381  0.83037  0.33179  1.0000
  C   C2351     1.0  0.33917  0.93094  0.35918  1.0000
  H   H2800     1.0  0.47197  0.81683  0.26640  1.0000
  C   C2352     1.0  0.13863  0.85342  0.41424  1.0000
  H   H2801     1.0  0.29318  0.81150  0.45479  1.0000
  N   N152      1.0  0.00799  0.78707  0.34890  1.0000
  H   H2802     1.0  0.48718  0.95908  0.35114  1.0000
  C   C2353     1.0  0.28185  0.81894  0.45546  1.0000
  C   C2354     1.0  0.48036  0.88700  0.32820  1.0000
  H   H2803     1.0  0.14968  0.97732  0.44951  1.0000
  Fe  Fe331     1.0  0.45823  0.95579  0.19652  1.0000
  H   H2804     1.0  0.42639  0.79670  0.05826  1.0000
  S   S658      1.0  0.44956  0.93653  0.19559  1.0000
  C   C2355     1.0  0.44213  0.80283  0.16588  1.0000
  S   S659      1.0  0.39598  0.98231  0.46198  1.0000
  C   C2356     1.0  0.34771  0.84604  0.43626  1.0000
  S   S660      1.0  0.47340  0.97069  0.18138  1.0000
  S   S661      1.0  0.46708  0.95344  0.21647  1.0000
  Fe  Fe332     1.0  0.44989  0.92788  0.33445  1.0000
  C   C2357     1.0  0.48326  0.81187  0.26796  1.0000
  S   S662      1.0  0.44262  0.90706  0.33698  1.0000
  H   H2805     1.0  0.40318  0.90917  0.35040  1.0000
  C   C2358     1.0  0.37080  0.90921  0.37670  1.0000
  H   H2806     1.0  0.38027  0.89921  0.35785  1.0000
  Fe  Fe333     1.0  0.45892  0.95595  0.31540  1.0000
  S   S663      1.0  0.45408  0.93124  0.35479  1.0000
  S   S664      1.0  0.47168  0.93249  0.32026  1.0000
  Fe  Fe334     1.0  0.32815  0.96144  0.42240  1.0000
  C   C2359     1.0  0.42164  0.79634  0.03782  1.0000
  S   S665      1.0  0.32605  0.93935  0.43738  1.0000
  S   S666      1.0  0.09538  0.78628  0.41314  1.0000
  H   H2807     1.0  0.41199  0.95260  0.35103  1.0000
  H   H2808     1.0  0.40650  0.92501  0.36477  1.0000
  H   H2809     1.0  0.13714  0.96496  0.45530  1.0000
  H   H2810     1.0  0.20837  0.82013  0.42366  1.0000
  C   C2360     1.0  0.46195  0.79415  0.21023  1.0000
  S   S667      1.0  0.35081  0.96675  0.41357  1.0000
  N   N153      1.0  0.41599  0.84041  0.47386  1.0000
  H   H2811     1.0  0.34695  0.93898  0.38538  1.0000
  Fe  Fe335     1.0  0.19591  0.96219  0.44415  1.0000
  H   H2812     1.0  0.45527  0.80558  0.13712  1.0000
  S   S668      1.0  0.18585  0.94275  0.45744  1.0000
  C   C2361     1.0  0.47470  0.90219  0.24421  1.0000
  H   H2813     1.0  0.45634  0.88306  0.10876  1.0000
  H   H2814     1.0  0.14548  0.83876  0.43353  1.0000
  S   S669      1.0  0.21715  0.96428  0.44820  1.0000
  H   H2815     1.0  0.42548  0.82849  0.99730  1.0000
  C   C2362     1.0  0.41249  0.85560  0.47651  1.0000
  C   C2363     1.0  0.01592  0.79361  0.33398  1.0000
  H   H2816     1.0  0.38430  0.84360  0.39594  1.0000
  N   N154      1.0  0.44375  0.78997  0.26935  1.0000
  C   C2364     1.0  0.48332  0.82782  0.33315  1.0000
  C   C2365     1.0  0.46501  0.88849  0.23238  1.0000
  H   H2817     1.0  0.16032  0.80141  0.39826  1.0000
  C   C2366     1.0  0.45856  0.79215  0.26001  1.0000
  H   H2818     1.0  0.35901  0.81527  0.40517  1.0000
  H   H2819     1.0  0.48469  0.84382  0.31241  1.0000
  S   S670      1.0  0.43589  0.83052  0.33051  1.0000
  C   C2367     1.0  0.40169  0.83613  0.47604  1.0000
  H   H2820     1.0  0.44338  0.91727  0.24726  1.0000
  H   H2821     1.0  0.44446  0.93639  0.24048  1.0000
  C   C2368     1.0  0.36371  0.93128  0.40592  1.0000
  C   C2369     1.0  0.26687  0.84275  0.44403  1.0000
  H   H2822     1.0  0.43017  0.90096  0.13708  1.0000
  H   H2823     1.0  0.42773  0.85222  0.98567  1.0000
  H   H2824     1.0  0.44487  0.92574  0.22792  1.0000
  C   C2370     1.0  0.36657  0.83292  0.45040  1.0000
  H   H2825     1.0  0.45843  0.93126  0.14761  1.0000
  H   H2826     1.0  0.47705  0.81266  0.29054  1.0000
  H   H2827     1.0  0.38539  0.95340  0.35328  1.0000
  H   H2828     1.0  0.38394  0.86514  0.37794  1.0000
  H   H2829     1.0  0.22804  0.88587  0.46801  1.0000
  C   C2371     1.0  0.33398  0.80326  0.42008  1.0000
  H   H2830     1.0  0.35461  0.93353  0.41569  1.0000
  H   H2831     1.0  0.25655  0.82547  0.42022  1.0000
  C   C2372     1.0  0.31353  0.79139  0.42243  1.0000
  H   H2832     1.0  0.27453  0.81274  0.45370  1.0000
  H   H2833     1.0  0.44630  0.88736  0.21584  1.0000
  C   C2373     1.0  0.31255  0.93327  0.36913  1.0000
  H   H2834     1.0  0.36470  0.94221  0.39835  1.0000
  Fe  Fe336     1.0  0.47468  0.93821  0.33998  1.0000
  S   S671      1.0  0.41494  0.79471  0.01265  1.0000
  C   C2374     1.0  0.16735  0.82103  0.39776  1.0000
  C   C2375     1.0  0.39494  0.83643  0.39243  1.0000
  C   C2376     1.0  0.35202  0.83569  0.44850  1.0000
  H   H2835     1.0  0.22384  0.80709  0.46788  1.0000
  H   H2836     1.0  0.15663  0.95769  0.45224  1.0000
  C   C2377     1.0  0.37684  0.84069  0.44024  1.0000
  C   C2378     1.0  0.41574  0.82739  0.37371  1.0000
  N   N155      1.0  0.48178  0.87563  0.34203  1.0000
  C   C2379     1.0  0.14482  0.95454  0.43092  1.0000
  C   C2380     1.0  0.45930  0.91643  0.13418  1.0000
  C   C2381     1.0  0.16920  0.91161  0.44085  1.0000
  C   C2382     1.0  0.18107  0.91800  0.43168  1.0000
  C   C2383     1.0  0.18621  0.92790  0.43638  1.0000
  C   C2384     1.0  0.17980  0.93097  0.45045  1.0000
  C   C2385     1.0  0.16814  0.92438  0.45959  1.0000
  C   C2386     1.0  0.16268  0.91501  0.45470  1.0000
  H   H2837     1.0  0.18603  0.91552  0.42087  1.0000
  H   H2838     1.0  0.19515  0.93303  0.42922  1.0000
  S   S672      1.0  0.42006  0.78587  0.09059  1.0000
  H   H2839     1.0  0.28063  0.97622  0.35911  1.0000
  C   C2387     1.0  0.47759  0.83760  0.32129  1.0000
  H   H2840     1.0  0.15350  0.91017  0.46180  1.0000
  N   N156      1.0  0.39396  0.84769  0.36578  1.0000
  C   C2388     1.0  0.41876  0.94560  0.23095  1.0000
  H   H2841     1.0  0.20377  0.80246  0.43149  1.0000
  C   C2389     1.0  0.32348  0.96703  0.46455  1.0000
  C   C2390     1.0  0.38552  0.92397  0.38054  1.0000
  C   C2391     1.0  0.35892  0.90735  0.40931  1.0000
  H   H2842     1.0  0.17289  0.80188  0.43740  1.0000
  H   H2843     1.0  0.47876  0.88072  0.11577  1.0000
  H   H2844     1.0  0.44461  0.79176  0.14298  1.0000
  C   C2392     1.0  0.34601  0.92870  0.39409  1.0000
  N   N157      1.0  0.36052  0.92142  0.39840  1.0000
  C   C2393     1.0  0.17264  0.82820  0.40540  1.0000
  C   C2394     1.0  0.17457  0.82125  0.41974  1.0000
  C   C2395     1.0  0.17134  0.80719  0.42632  1.0000
  H   H2845     1.0  0.42203  0.94485  0.25743  1.0000
  C   C2396     1.0  0.37250  0.85133  0.42808  1.0000
  H   H2846     1.0  0.17856  0.82670  0.42575  1.0000
  C   C2397     1.0  0.40838  0.81895  0.26186  1.0000
  C   C2398     1.0  0.47276  0.90127  0.16832  1.0000
  C   C2399     1.0  0.47976  0.91268  0.16711  1.0000
  C   C2400     1.0  0.47284  0.92361  0.17543  1.0000
  C   C2401     1.0  0.45882  0.92321  0.18488  1.0000
  C   C2402     1.0  0.45185  0.91179  0.18609  1.0000
  C   C2403     1.0  0.45883  0.90078  0.17794  1.0000
  H   H2847     1.0  0.48155  0.89396  0.12394  1.0000
  H   H2848     1.0  0.47828  0.93237  0.17445  1.0000
  H   H2849     1.0  0.44096  0.91148  0.19330  1.0000
  H   H2850     1.0  0.45330  0.89210  0.17883  1.0000
  C   C2404     1.0  0.42854  0.81900  0.12335  1.0000
  C   C2405     1.0  0.42403  0.82626  0.13512  1.0000
  C   C2406     1.0  0.43241  0.83563  0.13622  1.0000
  C   C2407     1.0  0.44522  0.83803  0.12539  1.0000
  C   C2408     1.0  0.44965  0.83092  0.11351  1.0000
  C   C2409     1.0  0.44146  0.82126  0.11260  1.0000
  H   H2851     1.0  0.41396  0.82468  0.14340  1.0000
  H   H2852     1.0  0.42875  0.84125  0.14528  1.0000
  H   H2853     1.0  0.45947  0.83285  0.10500  1.0000
  H   H2854     1.0  0.38049  0.85726  0.42013  1.0000
  C   C2410     1.0  0.30026  0.92050  0.41670  1.0000
  C   C2411     1.0  0.29628  0.93550  0.41699  1.0000
  C   C2412     1.0  0.30379  0.94116  0.42394  1.0000
  C   C2413     1.0  0.31502  0.93179  0.43097  1.0000
  C   C2414     1.0  0.31816  0.91655  0.43177  1.0000
  C   C2415     1.0  0.31085  0.91092  0.42453  1.0000
  H   H2855     1.0  0.28760  0.94279  0.41160  1.0000
  H   H2856     1.0  0.30090  0.95280  0.42388  1.0000
  H   H2857     1.0  0.32649  0.90917  0.43762  1.0000
  H   H2858     1.0  0.31334  0.89917  0.42512  1.0000
  H   H2859     1.0  0.37416  0.92627  0.41009  1.0000
  C   C2416     1.0  0.27504  0.86094  0.39086  1.0000
  C   C2417     1.0  0.27163  0.87634  0.38887  1.0000
  C   C2418     1.0  0.25677  0.88425  0.38989  1.0000
  C   C2419     1.0  0.24523  0.87675  0.39337  1.0000
  C   C2420     1.0  0.24858  0.86129  0.39587  1.0000
  C   C2421     1.0  0.26352  0.85340  0.39442  1.0000
  H   H2860     1.0  0.28047  0.88223  0.38612  1.0000
  H   H2861     1.0  0.25423  0.89620  0.38789  1.0000
  H   H2862     1.0  0.23972  0.85545  0.39854  1.0000
  H   H2863     1.0  0.26614  0.84148  0.39600  1.0000
  H   H2864     1.0  0.36975  0.90121  0.41237  1.0000
  C   C2422     1.0  0.23497  0.82969  0.43488  1.0000
  H   H2865     1.0  0.23121  0.84030  0.42800  1.0000
  S   S673      1.0  0.32217  0.96735  0.40036  1.0000
  C   C2423     1.0  0.36913  0.86883  0.32094  1.0000
  C   C2424     1.0  0.37569  0.87927  0.32272  1.0000
  C   C2425     1.0  0.37071  0.88481  0.33560  1.0000
  C   C2426     1.0  0.35901  0.88005  0.34677  1.0000
  C   C2427     1.0  0.35187  0.87019  0.34474  1.0000
  C   C2428     1.0  0.35695  0.86457  0.33181  1.0000
  H   H2866     1.0  0.38450  0.88325  0.31405  1.0000
  H   H2867     1.0  0.37606  0.89271  0.33691  1.0000
  H   H2868     1.0  0.34273  0.86656  0.35326  1.0000
  H   H2869     1.0  0.35168  0.85665  0.33038  1.0000
  C   C2429     1.0  0.43860  0.89844  0.29443  1.0000
  C   C2430     1.0  0.43976  0.91255  0.29460  1.0000
  C   C2431     1.0  0.44132  0.91530  0.30757  1.0000
  C   C2432     1.0  0.44148  0.90399  0.32036  1.0000
  C   C2433     1.0  0.44081  0.88983  0.31999  1.0000
  C   C2434     1.0  0.43963  0.88701  0.30699  1.0000
  C   C2435     1.0  0.16424  0.96799  0.42400  1.0000
  H   H2870     1.0  0.44200  0.92625  0.30778  1.0000
  H   H2871     1.0  0.44119  0.88099  0.32976  1.0000
  H   H2872     1.0  0.43946  0.87596  0.30676  1.0000
  C   C2436     1.0  0.43697  0.83913  0.24335  1.0000
  C   C2437     1.0  0.42343  0.84932  0.24221  1.0000
  C   C2438     1.0  0.41927  0.85469  0.22853  1.0000
  C   C2439     1.0  0.42867  0.84990  0.21598  1.0000
  C   C2440     1.0  0.44197  0.83935  0.21725  1.0000
  C   C2441     1.0  0.44611  0.83397  0.23091  1.0000
  H   H2873     1.0  0.41613  0.85303  0.25185  1.0000
  H   H2874     1.0  0.40887  0.86268  0.22761  1.0000
  H   H2875     1.0  0.44905  0.83527  0.20772  1.0000
  H   H2876     1.0  0.45649  0.82591  0.23177  1.0000
  H   H2877     1.0  0.34412  0.82967  0.45651  1.0000
  C   C2442     1.0  0.46825  0.80470  0.19885  1.0000
  Fe  Fe337     1.0  0.48025  0.97022  0.20206  1.0000
  H   H2878     1.0  0.40682  0.86396  0.46808  1.0000
  H   H2879     1.0  0.46107  0.81417  0.19347  1.0000
  H   H2880     1.0  0.36975  0.82482  0.45985  1.0000
  H   H2881     1.0  0.20066  0.80223  0.40739  1.0000
  Fe  Fe338     1.0  0.42727  0.78933  0.10950  1.0000
  H   H2882     1.0  0.41817  0.81039  0.28044  1.0000
  H   H2883     1.0  0.45885  0.80408  0.25665  1.0000
  H   H2884     1.0  0.43330  0.81013  0.38197  1.0000
  N   N158      1.0  0.29533  0.95857  0.37099  1.0000
  H   H2885     1.0  0.34716  0.95095  0.35377  1.0000
  C   C2443     1.0  0.38179  0.90602  0.36428  1.0000
  C   C2444     1.0  0.40354  0.95849  0.35864  1.0000
  C   C2445     1.0  0.37917  0.84448  0.36762  1.0000
  C   C2446     1.0  0.41560  0.81698  0.39967  1.0000
  H   H2886     1.0  0.27803  0.82062  0.46697  1.0000
  C   C2447     1.0  0.46495  0.97075  0.26432  1.0000
  C   C2448     1.0  0.40186  0.82649  0.40345  1.0000
  H   H2887     1.0  0.37357  0.85140  0.35855  1.0000
  H   H2888     1.0  0.42091  0.80924  0.40826  1.0000
  H   H2889     1.0  0.43245  0.79007  0.29209  1.0000
  H   H2890     1.0  0.46496  0.88379  0.25590  1.0000
  H   H2891     1.0  0.44495  0.81584  0.10341  1.0000
  C   C2449     1.0  0.37229  0.91832  0.38522  1.0000
  H   H2892     1.0  0.35061  0.90936  0.41964  1.0000
  H   H2893     1.0  0.46385  0.87467  0.21074  1.0000
  H   H2894     1.0  0.41333  0.84999  0.34795  1.0000
  H   H2895     1.0  0.30006  0.82121  0.43006  1.0000
  C   C2450     1.0  0.45376  0.87664  0.21974  1.0000
  H   H2896     1.0  0.43115  0.81188  0.47154  1.0000
  C   C2451     1.0  0.32571  0.79208  0.42731  1.0000
  C   C2452     1.0  0.44322  0.96959  0.25686  1.0000
  H   H2897     1.0  0.46486  0.78670  0.13814  1.0000
  H   H2898     1.0  0.43550  0.84274  0.45633  1.0000
  C   C2453     1.0  0.29497  0.96740  0.38146  1.0000
  H   H2899     1.0  0.40523  0.93899  0.25959  1.0000
  C   C2454     1.0  0.40229  0.84705  0.35039  1.0000
  H   H2900     1.0  0.46713  0.89095  0.35535  1.0000
  H   H2901     1.0  0.39662  0.82620  0.41502  1.0000
  S   S674      1.0  0.42188  0.79697  0.45341  1.0000
  C   C2455     1.0  0.43046  0.79235  0.04837  1.0000
  H   H2902     1.0  0.29245  0.96266  0.34882  1.0000
  H   H2903     1.0  0.40413  0.83588  0.34816  1.0000
  H   H2904     1.0  0.44075  0.79259  0.24125  1.0000
  H   H2905     1.0  0.46982  0.87177  0.36472  1.0000
  H   H2906     1.0  0.16764  0.97802  0.42427  1.0000
  N   N159      1.0  0.42317  0.93191  0.24197  1.0000
  H   H2907     1.0  0.44119  0.81438  0.15925  1.0000
  H   H2908     1.0  0.43719  0.86939  0.24556  1.0000
  H   H2909     1.0  0.42179  0.82719  0.36247  1.0000
  H   H2910     1.0  0.47949  0.79026  0.15468  1.0000
  H   H2911     1.0  0.33708  0.93189  0.40362  1.0000
  H   H2912     1.0  0.34182  0.92140  0.38988  1.0000
  C   C2456     1.0  0.16605  0.80003  0.41866  1.0000
  H   H2913     1.0  0.40256  0.86553  0.36705  1.0000
  H   H2914     1.0  0.37131  0.84681  0.37803  1.0000
  N   N160      1.0  0.23852  0.91833  0.42238  1.0000
  C   C2457     1.0  0.25120  0.92274  0.41044  1.0000
  C   C2458     1.0  0.22898  0.91357  0.41565  1.0000
  C   C2459     1.0  0.22982  0.93168  0.42817  1.0000
  C   C2460     1.0  0.24325  0.90625  0.43463  1.0000
  C   C2461     1.0  0.23240  0.90098  0.44697  1.0000
  C   C2462     1.0  0.25850  0.89936  0.43474  1.0000
  C   C2463     1.0  0.23656  0.88966  0.45872  1.0000
  C   C2464     1.0  0.26253  0.88801  0.44654  1.0000
  C   C2465     1.0  0.44281  0.79256  0.28408  1.0000
  H   H2915     1.0  0.25801  0.91340  0.40514  1.0000
  H   H2916     1.0  0.24727  0.93197  0.40152  1.0000
  H   H2917     1.0  0.25864  0.92684  0.41469  1.0000
  H   H2918     1.0  0.23494  0.90320  0.41172  1.0000
  H   H2919     1.0  0.22564  0.92209  0.40597  1.0000
  H   H2920     1.0  0.21844  0.91137  0.42350  1.0000
  H   H2921     1.0  0.23654  0.93535  0.43364  1.0000
  H   H2922     1.0  0.22648  0.94116  0.41917  1.0000
  H   H2923     1.0  0.21935  0.92985  0.43637  1.0000
  H   H2924     1.0  0.22058  0.90564  0.44763  1.0000
  H   H2925     1.0  0.26757  0.90255  0.42587  1.0000
  H   H2926     1.0  0.14494  0.95492  0.41926  1.0000
  H   H2927     1.0  0.47031  0.88118  0.13471  1.0000
  H   H2928     1.0  0.17222  0.95826  0.42891  1.0000
  H   H2929     1.0  0.38763  0.93121  0.38609  1.0000
  H   H2930     1.0  0.27424  0.88300  0.44637  1.0000
  S   S675      1.0  0.43358  0.97256  0.24296  1.0000
  H   H2931     1.0  0.47944  0.91696  0.20738  1.0000
  H   H2932     1.0  0.39613  0.85497  0.34208  1.0000
  C   C2466     1.0  0.47883  0.91161  0.23065  1.0000
  S   S676      1.0  0.40975  0.78526  0.97772  1.0000
  H   H2933     1.0  0.36359  0.81633  0.42154  1.0000
  C   C2467     1.0  0.24000  0.84955  0.45479  1.0000
  H   H2934     1.0  0.33313  0.81557  0.44214  1.0000
  H   H2935     1.0  0.24058  0.81099  0.41153  1.0000
  H   H2936     1.0  0.35012  0.92413  0.35578  1.0000
  H   H2937     1.0  0.45808  0.87914  0.35152  1.0000
  H   H2938     1.0  0.47071  0.86212  0.33611  1.0000
  H   H2939     1.0  0.29824  0.96008  0.39171  1.0000
  H   H2940     1.0  0.16319  0.92663  0.47049  1.0000
  C   C2468     1.0  0.48124  0.86136  0.33940  1.0000
  C   C2469     1.0  0.46396  0.90872  0.10495  1.0000
  H   H2941     1.0  0.40355  0.82530  0.47313  1.0000
  S   S677      1.0  0.39232  0.79824  0.44105  1.0000
  H   H2942     1.0  0.42412  0.94455  0.21939  1.0000
  H   H2943     1.0  0.41799  0.85023  0.45049  1.0000
  H   H2944     1.0  0.25590  0.97551  0.47042  1.0000
  H   H2945     1.0  0.45231  0.81483  0.35280  1.0000
  C   C2470     1.0  0.47312  0.88825  0.12354  1.0000
  H   H2946     1.0  0.47214  0.91479  0.10526  1.0000
  H   H2947     1.0  0.31348  0.82098  0.39346  1.0000
  H   H2948     1.0  0.35462  0.86189  0.41648  1.0000
  C   C2471     1.0  0.28307  0.95046  0.37766  1.0000
  H   H2949     1.0  0.29961  0.80124  0.40661  1.0000
  C   C2472     1.0  0.30920  0.80173  0.41023  1.0000
  S   S678      1.0  0.49172  0.81470  0.17867  1.0000
  C   C2473     1.0  0.44373  0.87737  0.24528  1.0000
  N   N161      1.0  0.22134  0.80305  0.41188  1.0000
  S   S679      1.0  0.39534  0.83601  0.44229  1.0000
  C   C2474     1.0  0.35793  0.85390  0.42599  1.0000
  S   S680      1.0  0.32969  0.84839  0.43384  1.0000
  C   C2475     1.0  0.13767  0.98128  0.42652  1.0000
  C   C2476     1.0  0.43193  0.79987  0.24730  1.0000
  H   H2950     1.0  0.16596  0.96742  0.41228  1.0000
  C   C2477     1.0  0.25703  0.97692  0.40936  1.0000
  H   H2951     1.0  0.48441  0.79374  0.31173  1.0000
  H   H2952     1.0  0.38031  0.83271  0.36750  1.0000
  C   C2478     1.0  0.25449  0.80775  0.43955  1.0000
  C   C2479     1.0  0.24538  0.80273  0.45312  1.0000
  H   H2953     1.0  0.42136  0.92600  0.26561  1.0000
  H   H2954     1.0  0.35496  0.89990  0.40506  1.0000
  S   S681      1.0  0.43663  0.95089  0.32779  1.0000
  C   C2480     1.0  0.43969  0.92761  0.23926  1.0000
  S   S682      1.0  0.24558  0.96495  0.41100  1.0000
  H   H2955     1.0  0.44994  0.79550  0.21345  1.0000
  H   H2956     1.0  0.24921  0.87423  0.42289  1.0000
  C   C2481     1.0  0.26891  0.97200  0.41658  1.0000
  C   C2482     1.0  0.42254  0.81748  0.38484  1.0000
  C   C2483     1.0  0.42083  0.91579  0.22664  1.0000
  H   H2957     1.0  0.31468  0.96483  0.46045  1.0000
  H   H2958     1.0  0.24941  0.79246  0.46031  1.0000
  C   C2484     1.0  0.40585  0.89732  0.23668  1.0000
  H   H2959     1.0  0.47082  0.91670  0.12890  1.0000
  H   H2960     1.0  0.22736  0.86887  0.44267  1.0000
  C   C2485     1.0  0.41936  0.80953  0.26925  1.0000
  H   H2961     1.0  0.49206  0.80972  0.24539  1.0000
  C   C2486     1.0  0.39465  0.91164  0.36005  1.0000
  N   N162      1.0  0.45772  0.87638  0.23365  1.0000
  S   S683      1.0  0.42634  0.96628  0.36473  1.0000
  C   C2487     1.0  0.40164  0.83716  0.37720  1.0000
  H   H2962     1.0  0.47615  0.97266  0.26142  1.0000
  C   C2488     1.0  0.21321  0.80802  0.42574  1.0000
  H   H2963     1.0  0.41777  0.90199  0.21408  1.0000
  H   H2964     1.0  0.28361  0.97423  0.38477  1.0000
  H   H2965     1.0  0.39955  0.97871  0.38373  1.0000
  H   H2966     1.0  0.01116  0.80351  0.35852  1.0000
  C   C2489     1.0  0.41510  0.90475  0.22480  1.0000
  C   C2490     1.0  0.31704  0.81283  0.40286  1.0000
  C   C2491     1.0  0.39651  0.92056  0.36818  1.0000
  H   H2967     1.0  0.30348  0.92754  0.37349  1.0000
  H   H2968     1.0  0.49062  0.85791  0.33031  1.0000
  H   H2969     1.0  0.24443  0.78902  0.42627  1.0000
  S   S684      1.0  0.20209  0.96934  0.41949  1.0000
  H   H2970     1.0  0.47050  0.86044  0.24876  1.0000
  S   S685      1.0  0.38820  0.80114  0.47485  1.0000
  H   H2971     1.0  0.44671  0.88169  0.12748  1.0000
  H   H2972     1.0  0.42480  0.83100  0.45435  1.0000
  C   C2492     1.0  0.47403  0.82006  0.34473  1.0000
  C   C2493     1.0  0.43772  0.92445  0.15266  1.0000
  H   H2973     1.0  0.28829  0.97708  0.41958  1.0000
  C   C2494     1.0  0.26474  0.85551  0.43248  1.0000
  H   H2974     1.0  0.39517  0.89504  0.25970  1.0000
  H   H2975     1.0  0.27029  0.96125  0.42405  1.0000
  C   C2495     1.0  0.49148  0.80137  0.31115  1.0000
  Fe  Fe339     1.0  0.44881  0.97317  0.22051  1.0000
  C   C2496     1.0  0.16405  0.80699  0.40436  1.0000
  C   C2497     1.0  0.29114  0.84116  0.44800  1.0000
  C   C2498     1.0  0.28936  0.82951  0.42971  1.0000
  H   H2976     1.0  0.47870  0.86084  0.22952  1.0000
  C   C2499     1.0  0.45795  0.97130  0.25317  1.0000
  C   C2500     1.0  0.40813  0.91180  0.25245  1.0000
  C   C2501     1.0  0.25062  0.86475  0.43201  1.0000
  N   N163      1.0  0.45949  0.89868  0.11934  1.0000
  H   H2977     1.0  0.22060  0.80570  0.43355  1.0000
  H   H2978     1.0  0.47063  0.88697  0.32405  1.0000
  C   C2502     1.0  0.32328  0.95485  0.36206  1.0000
  C   C2503     1.0  0.45177  0.90749  0.13075  1.0000
  C   C2504     1.0  0.42679  0.79070  0.02498  1.0000
  C   C2505     1.0  0.43678  0.90751  0.13874  1.0000
  H   H2979     1.0  0.43253  0.93066  0.16126  1.0000
  C   C2506     1.0  0.25405  0.84012  0.45531  1.0000
  C   C2507     1.0  0.45510  0.79414  0.14376  1.0000
  C   C2508     1.0  0.48638  0.80943  0.28186  1.0000
  H   H2980     1.0  0.02824  0.78929  0.33236  1.0000
  H   H2981     1.0  0.35126  0.80570  0.44552  1.0000
  C   C2509     1.0  0.46905  0.79790  0.15895  1.0000
  H   H2982     1.0  0.32256  0.96653  0.36067  1.0000
  N   N164      1.0  0.45566  0.79276  0.15932  1.0000
  C   C2510     1.0  0.45231  0.92482  0.14491  1.0000
  C   C2511     1.0  0.34187  0.80526  0.44106  1.0000
  H   H2983     1.0  0.36250  0.78823  0.41312  1.0000
  Fe  Fe340     1.0  0.22253  0.97308  0.42370  1.0000
  H   H2984     1.0  0.15296  0.94429  0.43477  1.0000
  H   H2985     1.0  0.49054  0.88512  0.31930  1.0000
  C   C2512     1.0  0.31033  0.94879  0.36765  1.0000
  H   H2986     1.0  0.47852  0.89842  0.32976  1.0000
  C   C2513     1.0  0.36713  0.98353  0.43762  1.0000
  C   C2514     1.0  0.46792  0.86194  0.23783  1.0000
  H   H2987     1.0  0.46958  0.79884  0.16998  1.0000
  H   H2988     1.0  0.14458  0.86158  0.41400  1.0000
  C   C2515     1.0  0.40759  0.96574  0.36706  1.0000
  N   N165      1.0  0.34687  0.80371  0.42548  1.0000
  H   H2989     1.0  0.46919  0.80915  0.15171  1.0000
  N   N166      1.0  0.14855  0.96799  0.43215  1.0000
  C   C2516     1.0  0.42996  0.91583  0.14957  1.0000
  H   H2990     1.0  0.43178  0.79936  0.16641  1.0000
  H   H2991     1.0  0.44490  0.82922  0.98893  1.0000
  H   H2992     1.0  0.30248  0.97529  0.37679  1.0000
  C   C2517     1.0  0.35424  0.81612  0.41688  1.0000
  H   H2993     1.0  0.32841  0.95631  0.47132  1.0000
  H   H2994     1.0  0.46815  0.89715  0.20836  1.0000
  C   C2518     1.0  0.38846  0.95891  0.35996  1.0000
  N   N167      1.0  0.11657  0.82016  0.41381  1.0000
  C   C2519     1.0  0.11903  0.80640  0.42537  1.0000
  C   C2520     1.0  0.10023  0.82633  0.41602  1.0000
  C   C2521     1.0  0.12203  0.81588  0.39929  1.0000
  C   C2522     1.0  0.12419  0.83142  0.41418  1.0000
  C   C2523     1.0  0.12359  0.84490  0.40334  1.0000
  C   C2524     1.0  0.13220  0.82955  0.42521  1.0000
  C   C2525     1.0  0.13084  0.85563  0.40333  1.0000
  C   C2526     1.0  0.13916  0.84050  0.42524  1.0000
  H   H2995     1.0  0.33215  0.97029  0.45458  1.0000
  H   H2996     1.0  0.11451  0.80854  0.43668  1.0000
  H   H2997     1.0  0.11320  0.79818  0.42472  1.0000
  H   H2998     1.0  0.13113  0.80094  0.42414  1.0000
  H   H2999     1.0  0.09411  0.81797  0.41615  1.0000
  H   H3000     1.0  0.09732  0.83603  0.40708  1.0000
  H   H3001     1.0  0.09571  0.82992  0.42670  1.0000
  H   H3002     1.0  0.13437  0.81173  0.39693  1.0000
  H   H3003     1.0  0.11690  0.80697  0.39892  1.0000
  H   H3004     1.0  0.11928  0.82520  0.38999  1.0000
  H   H3005     1.0  0.11763  0.84717  0.39468  1.0000
  H   H3006     1.0  0.13355  0.81963  0.43378  1.0000
  H   H3007     1.0  0.13063  0.86565  0.39471  1.0000
  C   C2527     1.0  0.22792  0.78697  0.41559  1.0000
  H   H3008     1.0  0.01216  0.79105  0.32524  1.0000
  H   H3009     1.0  0.30004  0.97621  0.35203  1.0000
  H   H3010     1.0  0.16589  0.82633  0.38664  1.0000
  H   H3011     1.0  0.44214  0.80330  0.17724  1.0000
  H   H3012     1.0  0.30272  0.83449  0.44816  1.0000
  C   C2528     1.0  0.43167  0.79984  0.26206  1.0000
  H   H3013     1.0  0.48398  0.92052  0.22999  1.0000
  H   H3014     1.0  0.36810  0.78950  0.42900  1.0000
  H   H3015     1.0  0.29230  0.83920  0.42103  1.0000
  H   H3016     1.0  0.36372  0.97573  0.43383  1.0000
  C   C2529     1.0  0.40926  0.81899  0.24722  1.0000
  H   H3017     1.0  0.34854  0.96687  0.46897  1.0000
  S   S686      1.0  0.43916  0.97488  0.20142  1.0000
  C   C2530     1.0  0.46960  0.89814  0.21869  1.0000
  H   H3018     1.0  0.45227  0.78525  0.28909  1.0000
  C   C2531     1.0  0.22566  0.82444  0.44822  1.0000
  H   H3019     1.0  0.41733  0.97927  0.41546  1.0000
  Fe  Fe341     1.0  0.38322  0.78616  0.46375  1.0000
  H   H3020     1.0  0.42375  0.98107  0.43751  1.0000
  H   H3021     1.0  0.40138  0.88878  0.23524  1.0000
  C   C2532     1.0  0.42400  0.84111  0.45816  1.0000
  H   H3022     1.0  0.39434  0.84436  0.46897  1.0000
  H   H3023     1.0  0.20624  0.81925  0.39913  1.0000
  C   C2533     1.0  0.14792  0.96700  0.44794  1.0000
  H   H3024     1.0  0.40097  0.82662  0.24140  1.0000
  H   H3025     1.0  0.40524  0.91371  0.26351  1.0000
  H   H3026     1.0  0.41072  0.80364  0.03975  1.0000
  H   H3027     1.0  0.28494  0.94247  0.38811  1.0000
  H   H3028     1.0  0.42217  0.95516  0.23230  1.0000
  S   S687      1.0  0.46350  0.96205  0.33419  1.0000
  S   S688      1.0  0.46556  0.96949  0.29264  1.0000
  H   H3029     1.0  0.22862  0.82339  0.40028  1.0000
  Fe  Fe342     1.0  0.44235  0.95469  0.34729  1.0000
  H   H3030     1.0  0.42172  0.80959  0.22853  1.0000
  H   H3031     1.0  0.21607  0.80336  0.39148  1.0000
  C   C2534     1.0  0.42710  0.98223  0.40749  1.0000
  C   C2535     1.0  0.44293  0.96557  0.28289  1.0000
  H   H3032     1.0  0.43707  0.96344  0.29433  1.0000
  C   C2536     1.0  0.23829  0.86176  0.44313  1.0000
  H   H3033     1.0  0.11840  0.97586  0.44375  1.0000
  H   H3034     1.0  0.27391  0.85843  0.42360  1.0000
  H   H3035     1.0  0.25476  0.87437  0.46761  1.0000
  H   H3036     1.0  0.42438  0.96519  0.27457  1.0000
  C   C2537     1.0  0.41763  0.93553  0.25682  1.0000
  S   S689      1.0  0.48126  0.88810  0.15731  1.0000
  H   H3037     1.0  0.46142  0.78799  0.24973  1.0000
  H   H3038     1.0  0.41866  0.91542  0.15579  1.0000
  C   C2538     1.0  0.25159  0.88318  0.45850  1.0000
  C   C2539     1.0  0.46869  0.87952  0.35394  1.0000
  H   H3039     1.0  0.43997  0.89693  0.11337  1.0000
  C   C2540     1.0  0.40238  0.90085  0.25046  1.0000
  C   C2541     1.0  0.29198  0.96887  0.35713  1.0000
  C   C2542     1.0  0.37738  0.96627  0.37000  1.0000
  C   C2543     1.0  0.32925  0.81365  0.40765  1.0000
  H   H3040     1.0  0.48609  0.97549  0.30549  1.0000
  C   C2544     1.0  0.44624  0.97729  0.38588  1.0000
  H   H3041     1.0  0.45844  0.84637  0.31146  1.0000
  C   C2545     1.0  0.42098  0.80943  0.23997  1.0000
  H   H3042     1.0  0.40644  0.94868  0.23199  1.0000
  C   C2546     1.0  0.43563  0.82418  0.98933  1.0000
  H   H3043     1.0  0.39451  0.78499  0.05415  1.0000
  N   N168      1.0  0.28197  0.83317  0.44436  1.0000
  H   H3044     1.0  0.33719  0.79582  0.44856  1.0000
  C   C2547     1.0  0.33745  0.94603  0.35794  1.0000
  H   H3045     1.0  0.43646  0.88865  0.24354  1.0000
  C   C2548     1.0  0.41734  0.91983  0.24048  1.0000
  H   H3046     1.0  0.42798  0.92124  0.21712  1.0000
  C   C2549     1.0  0.38139  0.97330  0.37867  1.0000
  H   H3047     1.0  0.39934  0.82656  0.26742  1.0000
  Fe  Fe343     1.0  0.39930  0.81168  0.45225  1.0000
  H   H3048     1.0  0.32823  0.91278  0.36591  1.0000
  C   C2550     1.0  0.45737  0.96807  0.27916  1.0000
  H   H3049     1.0  0.37287  0.97910  0.38639  1.0000
  H   H3050     1.0  0.33474  0.82256  0.40143  1.0000
  H   H3051     1.0  0.25444  0.83066  0.46447  1.0000
  C   C2551     1.0  0.23096  0.81107  0.45745  1.0000
  C   C2552     1.0  0.43577  0.96654  0.27171  1.0000
  C   C2553     1.0  0.35834  0.78976  0.42468  1.0000
  H   H3052     1.0  0.38338  0.96687  0.44855  1.0000
  H   H3053     1.0  0.46292  0.85252  0.23867  1.0000
  H   H3054     1.0  0.28207  0.82492  0.42579  1.0000
  H   H3055     1.0  0.47812  0.81321  0.35432  1.0000
  C   C2554     1.0  0.23328  0.81140  0.40424  1.0000
  H   H3056     1.0  0.45110  0.97103  0.37729  1.0000
  C   C2555     1.0  0.32678  0.92457  0.36488  1.0000
  H   H3057     1.0  0.45408  0.91711  0.10170  1.0000
  S   S690      1.0  0.35860  0.96642  0.37168  1.0000
  C   C2556     1.0  0.39649  0.97310  0.37715  1.0000
  H   H3058     1.0  0.13359  0.95313  0.43767  1.0000
  C   C2557     1.0  0.48377  0.80276  0.19428  1.0000
  C   C2558     1.0  0.45015  0.88981  0.11717  1.0000
  Fe  Fe344     1.0  0.34400  0.97423  0.39181  1.0000
  H   H3059     1.0  0.49053  0.91309  0.15967  1.0000
  H   H3060     1.0  0.46936  0.90251  0.09599  1.0000
  H   H3061     1.0  0.42809  0.96618  0.39534  1.0000
  C   C2559     1.0  0.37823  0.97853  0.44595  1.0000
  N   N169      1.0  0.31734  0.97874  0.47325  1.0000
  H   H3062     1.0  0.46776  0.78618  0.26589  1.0000
  C   C2560     1.0  0.43327  0.97452  0.39613  1.0000
  H   H3063     1.0  0.27201  0.95804  0.38059  1.0000
  H   H3064     1.0  0.23278  0.97917  0.46164  1.0000
  H   H3065     1.0  0.28188  0.94433  0.37002  1.0000
  C   C2561     1.0  0.49300  0.79065  0.20167  1.0000
  H   H3066     1.0  0.01397  0.80585  0.33201  1.0000
  H   H3067     1.0  0.00652  0.78732  0.37135  1.0000
  Fe  Fe345     1.0  0.41003  0.78500  0.47525  1.0000
  C   C2562     1.0  0.34408  0.97471  0.47602  1.0000
  H   H3068     1.0  0.42284  0.85895  0.47615  1.0000
  H   H3069     1.0  0.02498  0.78662  0.35995  1.0000
  C   C2563     1.0  0.01289  0.79133  0.36008  1.0000
  C   C2564     1.0  0.27909  0.98091  0.41405  1.0000
  H   H3070     1.0  0.40690  0.98219  0.31515  1.0000
  H   H3071     1.0  0.47229  0.78408  0.38409  1.0000
  S   S691      1.0  0.31668  0.98359  0.42771  1.0000
  H   H3072     1.0  0.49458  0.79863  0.32205  1.0000
  C   C2565     1.0  0.49458  0.80798  0.25609  1.0000
  H   H3073     1.0  0.48625  0.98330  0.22608  1.0000
  H   H3074     1.0  0.32864  0.78369  0.43679  1.0000
  H   H3075     1.0  0.29515  0.86310  0.65777  1.0000
  H   H3076     1.0  0.25997  0.85486  0.64157  1.0000
  S   S692      1.0  0.19828  0.90318  0.62635  1.0000
  Fe  Fe346     1.0  0.41915  0.86614  0.88833  1.0000
  S   S693      1.0  0.44150  0.87240  0.88013  1.0000
  S   S694      1.0  0.40866  0.85748  0.91215  1.0000
  Fe  Fe347     1.0  0.41324  0.87350  0.85745  1.0000
  S   S695      1.0  0.43510  0.87990  0.84674  1.0000
  S   S696      1.0  0.39641  0.87742  0.84374  1.0000
  Fe  Fe348     1.0  0.44440  0.86000  0.86266  1.0000
  S   S697      1.0  0.46618  0.84474  0.85544  1.0000
  Fe  Fe349     1.0  0.43008  0.89189  0.86496  1.0000
  S   S698      1.0  0.43378  0.91522  0.85610  1.0000
  S   S699      1.0  0.42289  0.85232  0.87189  1.0000
  S   S700      1.0  0.40741  0.88680  0.87473  1.0000
  Fe  Fe350     1.0  0.32507  0.86035  0.66635  1.0000
  S   S701      1.0  0.31587  0.88189  0.65217  1.0000
  C   C2566     1.0  0.30243  0.95466  0.65545  1.0000
  Fe  Fe351     1.0  0.34993  0.87183  0.67066  1.0000
  S   S702      1.0  0.34301  0.89420  0.65653  1.0000
  S   S703      1.0  0.37146  0.86720  0.67809  1.0000
  Fe  Fe352     1.0  0.31976  0.89204  0.66859  1.0000
  S   S704      1.0  0.30375  0.91221  0.67535  1.0000
  Fe  Fe353     1.0  0.33987  0.88199  0.64152  1.0000
  S   S705      1.0  0.32679  0.87036  0.68397  1.0000
  Fe  Fe354     1.0  0.40549  0.87490  0.76522  1.0000
  S   S706      1.0  0.40644  0.89865  0.75582  1.0000
  S   S707      1.0  0.42024  0.86112  0.78085  1.0000
  Fe  Fe355     1.0  0.38212  0.87646  0.74893  1.0000
  S   S708      1.0  0.38057  0.90053  0.73858  1.0000
  S   S709      1.0  0.36711  0.86435  0.74527  1.0000
  Fe  Fe356     1.0  0.40552  0.89453  0.73451  1.0000
  S   S710      1.0  0.41816  0.90635  0.71332  1.0000
  Fe  Fe357     1.0  0.38153  0.90249  0.76077  1.0000
  S   S711      1.0  0.36736  0.92211  0.76974  1.0000
  S   S712      1.0  0.40713  0.87015  0.74327  1.0000
  S   S713      1.0  0.38051  0.87897  0.77172  1.0000
  C   C2567     1.0  0.36450  0.95525  0.87382  1.0000
  H   H3077     1.0  0.39602  0.82596  0.77428  1.0000
  S   S714      1.0  0.46347  0.80610  0.81411  1.0000
  C   C2568     1.0  0.43301  0.83440  0.91449  1.0000
  H   H3078     1.0  0.29935  0.94368  0.65904  1.0000
  H   H3079     1.0  0.39806  0.83449  0.93587  1.0000
  H   H3080     1.0  0.45225  0.81674  0.91734  1.0000
  H   H3081     1.0  0.33972  0.92716  0.64257  1.0000
  C   C2569     1.0  0.38022  0.95157  0.83003  1.0000
  C   C2570     1.0  0.16408  0.83826  0.63769  1.0000
  C   C2571     1.0  0.44036  0.82038  0.92114  1.0000
  Fe  Fe358     1.0  0.45776  0.84553  0.67287  1.0000
  S   S715      1.0  0.44244  0.83081  0.68688  1.0000
  S   S716      1.0  0.44983  0.86973  0.66378  1.0000
  H   H3082     1.0  0.27218  0.80520  0.57610  1.0000
  C   C2572     1.0  0.24600  0.83846  0.65566  1.0000
  Fe  Fe359     1.0  0.45517  0.81528  0.67177  1.0000
  H   H3083     1.0  0.41098  0.80927  0.94710  1.0000
  Fe  Fe360     1.0  0.46040  0.82043  0.69978  1.0000
  N   N170      1.0  0.26318  0.90288  0.67029  1.0000
  S   S717      1.0  0.46960  0.83080  0.65693  1.0000
  H   H3084     1.0  0.34886  0.81754  0.63910  1.0000
  Fe  Fe361     1.0  0.33001  0.95169  0.71214  1.0000
  S   S718      1.0  0.31107  0.97096  0.71601  1.0000
  S   S719      1.0  0.32913  0.92803  0.72076  1.0000
  H   H3085     1.0  0.19883  0.84348  0.57874  1.0000
  H   H3086     1.0  0.34482  0.81323  0.65888  1.0000
  C   C2573     1.0  0.23908  0.80949  0.66808  1.0000
  H   H3087     1.0  0.09994  0.81964  0.63935  1.0000
  C   C2574     1.0  0.26308  0.80989  0.58416  1.0000
  H   H3088     1.0  0.40266  0.97292  0.66143  1.0000
  C   C2575     1.0  0.37987  0.95892  0.73827  1.0000
  C   C2576     1.0  0.41149  0.78811  0.50997  1.0000
  H   H3089     1.0  0.39487  0.80855  0.65548  1.0000
  C   C2577     1.0  0.48221  0.87608  0.67438  1.0000
  H   H3090     1.0  0.23243  0.80166  0.61007  1.0000
  C   C2578     1.0  0.27151  0.86162  0.70216  1.0000
  H   H3091     1.0  0.39225  0.91560  0.86071  1.0000
  Fe  Fe362     1.0  0.24570  0.97661  0.62988  1.0000
  C   C2579     1.0  0.46651  0.79331  0.89896  1.0000
  H   H3092     1.0  0.39064  0.93182  0.89210  1.0000
  Fe  Fe363     1.0  0.22472  0.95896  0.65268  1.0000
  S   S720      1.0  0.21260  0.97802  0.66377  1.0000
  S   S721      1.0  0.21930  0.93636  0.66239  1.0000
  S   S722      1.0  0.39206  0.79449  0.60906  1.0000
  H   H3093     1.0  0.43353  0.82267  0.51784  1.0000
  Fe  Fe364     1.0  0.23555  0.98168  0.66101  1.0000
  H   H3094     1.0  0.47991  0.79415  0.76637  1.0000
  S   S723      1.0  0.22373  0.97255  0.62980  1.0000
  S   S724      1.0  0.24763  0.96148  0.65192  1.0000
  H   H3095     1.0  0.44698  0.83717  0.77967  1.0000
  C   C2580     1.0  0.07727  0.78751  0.62268  1.0000
  H   H3096     1.0  0.46515  0.85391  0.78871  1.0000
  C   C2581     1.0  0.41775  0.83955  0.91980  1.0000
  C   C2582     1.0  0.22514  0.86511  0.66680  1.0000
  H   H3097     1.0  0.33949  0.94453  0.65490  1.0000
  C   C2583     1.0  0.35210  0.84111  0.60804  1.0000
  C   C2584     1.0  0.46434  0.84729  0.73013  1.0000
  Fe  Fe365     1.0  0.22997  0.85496  0.61634  1.0000
  Fe  Fe366     1.0  0.48529  0.82060  0.67255  1.0000
  H   H3098     1.0  0.45048  0.80777  0.97063  1.0000
  C   C2585     1.0  0.08321  0.78597  0.60809  1.0000
  H   H3099     1.0  0.44052  0.82786  0.75009  1.0000
  C   C2586     1.0  0.35445  0.97808  0.48160  1.0000
  C   C2587     1.0  0.38599  0.81347  0.66353  1.0000
  C   C2588     1.0  0.28529  0.85934  0.59574  1.0000
  C   C2589     1.0  0.08883  0.82024  0.63733  1.0000
  Fe  Fe367     1.0  0.35211  0.97055  0.69434  1.0000
  H   H3100     1.0  0.47529  0.83184  0.74632  1.0000
  H   H3101     1.0  0.37314  0.82303  0.62490  1.0000
  H   H3102     1.0  0.48726  0.83107  0.76301  1.0000
  C   C2590     1.0  0.47811  0.80449  0.87455  1.0000
  C   C2591     1.0  0.17264  0.81169  0.64428  1.0000
  H   H3103     1.0  0.48300  0.85981  0.65474  1.0000
  H   H3104     1.0  0.40001  0.80686  0.49619  1.0000
  C   C2592     1.0  0.22707  0.80492  0.57283  1.0000
  H   H3105     1.0  0.46545  0.88255  0.69297  1.0000
  H   H3106     1.0  0.48354  0.97730  0.48870  1.0000
  H   H3107     1.0  0.45612  0.79056  0.90679  1.0000
  S   S725      1.0  0.26426  0.97630  0.60964  1.0000
  H   H3108     1.0  0.48629  0.83869  0.77800  1.0000
  C   C2593     1.0  0.41637  0.97953  0.72893  1.0000
  N   N171      1.0  0.43261  0.82679  0.97441  1.0000
  C   C2594     1.0  0.05875  0.78438  0.60629  1.0000
  H   H3109     1.0  0.33959  0.78497  0.61058  1.0000
  H   H3110     1.0  0.24182  0.81832  0.69092  1.0000
  H   H3111     1.0  0.38183  0.82426  0.69535  1.0000
  H   H3112     1.0  0.41779  0.82026  0.96534  1.0000
  S   S726      1.0  0.34901  0.88574  0.61718  1.0000
  C   C2595     1.0  0.29762  0.84172  0.67266  1.0000
  C   C2596     1.0  0.32732  0.94518  0.65942  1.0000
  N   N172      1.0  0.41568  0.85369  0.65053  1.0000
  S   S727      1.0  0.44222  0.79355  0.94039  1.0000
  C   C2597     1.0  0.38497  0.91583  0.85347  1.0000
  H   H3113     1.0  0.43287  0.79377  0.76593  1.0000
  H   H3114     1.0  0.20458  0.82894  0.68141  1.0000
  H   H3115     1.0  0.40461  0.85654  0.48732  1.0000
  C   C2598     1.0  0.26178  0.91532  0.67710  1.0000
  H   H3116     1.0  0.44471  0.79315  0.48866  1.0000
  H   H3117     1.0  0.48916  0.82914  0.83558  1.0000
  H   H3118     1.0  0.17108  0.81953  0.59513  1.0000
  C   C2599     1.0  0.23030  0.81824  0.69054  1.0000
  C   C2600     1.0  0.37774  0.92870  0.77778  1.0000
  C   C2601     1.0  0.38994  0.91925  0.78333  1.0000
  C   C2602     1.0  0.39867  0.92486  0.78900  1.0000
  C   C2603     1.0  0.39528  0.93995  0.78896  1.0000
  C   C2604     1.0  0.38309  0.94934  0.78337  1.0000
  C   C2605     1.0  0.37417  0.94369  0.77803  1.0000
  H   H3119     1.0  0.39251  0.90758  0.78351  1.0000
  H   H3120     1.0  0.40798  0.91748  0.79346  1.0000
  H   H3121     1.0  0.38040  0.96096  0.78322  1.0000
  H   H3122     1.0  0.36468  0.95102  0.77383  1.0000
  C   C2606     1.0  0.42679  0.89587  0.69977  1.0000
  C   C2607     1.0  0.42757  0.88064  0.70295  1.0000
  C   C2608     1.0  0.43475  0.87248  0.69197  1.0000
  C   C2609     1.0  0.44074  0.87965  0.67768  1.0000
  C   C2610     1.0  0.43965  0.89493  0.67442  1.0000
  C   C2611     1.0  0.43286  0.90299  0.68549  1.0000
  H   H3123     1.0  0.42284  0.87507  0.71387  1.0000
  H   H3124     1.0  0.43553  0.86067  0.69455  1.0000
  H   H3125     1.0  0.44425  0.90052  0.66337  1.0000
  H   H3126     1.0  0.43222  0.91478  0.68293  1.0000
  C   C2612     1.0  0.37000  0.86661  0.69675  1.0000
  C   C2613     1.0  0.35642  0.86630  0.70703  1.0000
  C   C2614     1.0  0.35561  0.86561  0.72193  1.0000
  C   C2615     1.0  0.36825  0.86568  0.72651  1.0000
  C   C2616     1.0  0.38175  0.86637  0.71616  1.0000
  C   C2617     1.0  0.38269  0.86653  0.70136  1.0000
  H   H3127     1.0  0.34660  0.86634  0.70359  1.0000
  H   H3128     1.0  0.34514  0.86509  0.72990  1.0000
  H   H3129     1.0  0.39158  0.86631  0.71964  1.0000
  H   H3130     1.0  0.39326  0.86660  0.69347  1.0000
  C   C2618     1.0  0.30926  0.91611  0.68940  1.0000
  C   C2619     1.0  0.31947  0.90544  0.69691  1.0000
  C   C2620     1.0  0.32479  0.90886  0.70734  1.0000
  C   C2621     1.0  0.32049  0.92323  0.70968  1.0000
  C   C2622     1.0  0.31014  0.93394  0.70233  1.0000
  C   C2623     1.0  0.30421  0.93025  0.69247  1.0000
  H   H3131     1.0  0.32343  0.89455  0.69467  1.0000
  H   H3132     1.0  0.33274  0.90054  0.71308  1.0000
  H   H3133     1.0  0.30670  0.94505  0.70424  1.0000
  H   H3134     1.0  0.29608  0.93846  0.68693  1.0000
  C   C2624     1.0  0.23933  0.86687  0.65539  1.0000
  H   H3135     1.0  0.08431  0.78881  0.62902  1.0000
  H   H3136     1.0  0.38728  0.82245  0.63383  1.0000
  H   H3137     1.0  0.42376  0.91141  0.88815  1.0000
  C   C2625     1.0  0.46526  0.83616  0.84208  1.0000
  C   C2626     1.0  0.45147  0.83574  0.84003  1.0000
  C   C2627     1.0  0.45089  0.82700  0.83086  1.0000
  C   C2628     1.0  0.46412  0.81881  0.82366  1.0000
  C   C2629     1.0  0.47789  0.82012  0.82491  1.0000
  C   C2630     1.0  0.47847  0.82862  0.83424  1.0000
  H   H3138     1.0  0.44124  0.84162  0.84597  1.0000
  H   H3139     1.0  0.44019  0.82620  0.82979  1.0000
  C   C2631     1.0  0.19854  0.80031  0.58743  1.0000
  C   C2632     1.0  0.43886  0.79661  0.79768  1.0000
  C   C2633     1.0  0.40362  0.87313  0.82620  1.0000
  C   C2634     1.0  0.39519  0.87946  0.81536  1.0000
  C   C2635     1.0  0.40045  0.87601  0.80139  1.0000
  C   C2636     1.0  0.41401  0.86593  0.79823  1.0000
  C   C2637     1.0  0.42252  0.85959  0.80905  1.0000
  C   C2638     1.0  0.41741  0.86334  0.82297  1.0000
  H   H3140     1.0  0.38453  0.88705  0.81776  1.0000
  H   H3141     1.0  0.39387  0.88107  0.79315  1.0000
  H   H3142     1.0  0.43300  0.85173  0.80677  1.0000
  H   H3143     1.0  0.42395  0.85842  0.83131  1.0000
  H   H3144     1.0  0.43919  0.84143  0.90550  1.0000
  C   C2639     1.0  0.40987  0.83051  0.93172  1.0000
  H   H3145     1.0  0.19307  0.96115  0.64840  1.0000
  H   H3146     1.0  0.43683  0.85007  0.65641  1.0000
  H   H3147     1.0  0.25409  0.82933  0.65168  1.0000
  H   H3148     1.0  0.29318  0.86586  0.69905  1.0000
  C   C2640     1.0  0.33293  0.93249  0.63451  1.0000
  C   C2641     1.0  0.20530  0.91197  0.63582  1.0000
  C   C2642     1.0  0.20730  0.90526  0.65016  1.0000
  C   C2643     1.0  0.21180  0.91278  0.65810  1.0000
  C   C2644     1.0  0.21457  0.92698  0.65167  1.0000
  C   C2645     1.0  0.21296  0.93356  0.63717  1.0000
  C   C2646     1.0  0.20818  0.92612  0.62932  1.0000
  H   H3149     1.0  0.20481  0.89449  0.65529  1.0000
  H   H3150     1.0  0.21288  0.90767  0.66935  1.0000
  H   H3151     1.0  0.21520  0.94442  0.63203  1.0000
  H   H3152     1.0  0.20672  0.93132  0.61819  1.0000
  C   C2647     1.0  0.43068  0.92697  0.86817  1.0000
  H   H3153     1.0  0.32409  0.95079  0.66883  1.0000
  H   H3154     1.0  0.26806  0.86606  0.65992  1.0000
  C   C2648     1.0  0.40357  0.83310  0.76660  1.0000
  H   H3155     1.0  0.31436  0.79962  0.61321  1.0000
  H   H3156     1.0  0.45631  0.97101  0.73633  1.0000
  S   S728      1.0  0.47452  0.83685  0.68715  1.0000
  H   H3157     1.0  0.45837  0.92424  0.81637  1.0000
  C   C2649     1.0  0.32863  0.98162  0.47929  1.0000
  C   C2650     1.0  0.38853  0.96884  0.83821  1.0000
  H   H3158     1.0  0.39503  0.95515  0.89297  1.0000
  C   C2651     1.0  0.40661  0.95922  0.72721  1.0000
  S   S729      1.0  0.34672  0.95971  0.71812  1.0000
  H   H3159     1.0  0.32523  0.83806  0.60011  1.0000
  H   H3160     1.0  0.48685  0.81126  0.71187  1.0000
  H   H3161     1.0  0.31744  0.86435  0.60010  1.0000
  C   C2652     1.0  0.42204  0.86167  0.94565  1.0000
  C   C2653     1.0  0.48759  0.87702  0.69705  1.0000
  C   C2654     1.0  0.43985  0.80413  0.49086  1.0000
  H   H3162     1.0  0.47684  0.81101  0.86333  1.0000
  H   H3163     1.0  0.43964  0.97715  0.79957  1.0000
  H   H3164     1.0  0.39401  0.97768  0.73803  1.0000
  S   S730      1.0  0.99907  0.78853  0.61172  1.0000
  C   C2655     1.0  0.37496  0.82489  0.63505  1.0000
  S   S731      1.0  0.13234  0.81969  0.63374  1.0000
  C   C2656     1.0  0.25273  0.80158  0.59323  1.0000
  C   C2657     1.0  0.42611  0.80023  0.64617  1.0000
  C   C2658     1.0  0.14873  0.82200  0.63714  1.0000
  C   C2659     1.0  0.23163  0.83633  0.66747  1.0000
  C   C2660     1.0  0.39365  0.97445  0.65605  1.0000
  H   H3165     1.0  0.41733  0.86944  0.66183  1.0000
  C   C2661     1.0  0.43226  0.84917  0.64739  1.0000
  S   S732      1.0  0.22725  0.83798  0.63719  1.0000
  C   C2662     1.0  0.31154  0.81182  0.61219  1.0000
  C   C2663     1.0  0.42017  0.87281  0.95298  1.0000
  H   H3166     1.0  0.18427  0.83743  0.57525  1.0000
  C   C2664     1.0  0.18346  0.95876  0.65762  1.0000
  C   C2665     1.0  0.27427  0.85600  0.66571  1.0000
  H   H3167     1.0  0.29649  0.82067  0.68771  1.0000
  C   C2666     1.0  0.41720  0.81630  0.93814  1.0000
  C   C2667     1.0  0.28959  0.85445  0.66468  1.0000
  H   H3168     1.0  0.24220  0.87758  0.65138  1.0000
  H   H3169     1.0  0.38642  0.86436  0.64764  1.0000
  C   C2668     1.0  0.43111  0.95098  0.87133  1.0000
  H   H3170     1.0  0.38362  0.92753  0.81739  1.0000
  H   H3171     1.0  0.18508  0.97598  0.62772  1.0000
  H   H3172     1.0  0.38122  0.91024  0.82948  1.0000
  H   H3173     1.0  0.46125  0.95048  0.83547  1.0000
  H   H3174     1.0  0.42647  0.78951  0.92061  1.0000
  C   C2669     1.0  0.43249  0.81125  0.93287  1.0000
  H   H3175     1.0  0.21160  0.84906  0.68173  1.0000
  H   H3176     1.0  0.03567  0.83142  0.63538  1.0000
  H   H3177     1.0  0.28734  0.81471  0.60242  1.0000
  H   H3178     1.0  0.08774  0.80870  0.63882  1.0000
  H   H3179     1.0  0.41965  0.92877  0.90445  1.0000
  H   H3180     1.0  0.39941  0.87221  0.65833  1.0000
  H   H3181     1.0  0.43740  0.85623  0.63703  1.0000
  H   H3182     1.0  0.37099  0.84575  0.59054  1.0000
  C   C2670     1.0  0.37885  0.82236  0.68611  1.0000
  H   H3183     1.0  0.40624  0.90470  0.83151  1.0000
  H   H3184     1.0  0.41450  0.79711  0.63132  1.0000
  H   H3185     1.0  0.43959  0.97912  0.71906  1.0000
  N   N173      1.0  0.17016  0.95918  0.65234  1.0000
  C   C2671     1.0  0.17452  0.94900  0.64210  1.0000
  C   C2672     1.0  0.15911  0.95336  0.66538  1.0000
  C   C2673     1.0  0.16445  0.97446  0.64453  1.0000
  H   H3186     1.0  0.29659  0.97125  0.48131  1.0000
  H   H3187     1.0  0.30935  0.96413  0.49357  1.0000
  H   H3188     1.0  0.18366  0.95183  0.63251  1.0000
  H   H3189     1.0  0.17871  0.93732  0.64764  1.0000
  H   H3190     1.0  0.47383  0.87773  0.66824  1.0000
  H   H3191     1.0  0.18757  0.94764  0.66435  1.0000
  H   H3192     1.0  0.14891  0.95306  0.66216  1.0000
  H   H3193     1.0  0.16375  0.94181  0.67087  1.0000
  H   H3194     1.0  0.15583  0.96011  0.67390  1.0000
  H   H3195     1.0  0.41696  0.88431  0.94749  1.0000
  C   C2674     1.0  0.38447  0.98077  0.63359  1.0000
  C   C2675     1.0  0.38743  0.85955  0.62720  1.0000
  C   C2676     1.0  0.15968  0.80974  0.64162  1.0000
  C   C2677     1.0  0.47731  0.87888  0.68858  1.0000
  C   C2678     1.0  0.40985  0.84328  0.66401  1.0000
  H   H3196     1.0  0.29971  0.95932  0.66545  1.0000
  H   H3197     1.0  0.36855  0.79245  0.65803  1.0000
  H   H3198     1.0  0.36713  0.80247  0.50623  1.0000
  H   H3199     1.0  0.32540  0.93377  0.66423  1.0000
  S   S733      1.0  0.34892  0.85974  0.65447  1.0000
  H   H3200     1.0  0.27202  0.91442  0.68091  1.0000
  S   S734      1.0  0.03347  0.78798  0.62856  1.0000
  H   H3201     1.0  0.41407  0.84331  0.67363  1.0000
  H   H3202     1.0  0.18091  0.96697  0.66459  1.0000
  H   H3203     1.0  0.36832  0.92688  0.83337  1.0000
  S   S735      1.0  0.33715  0.96049  0.68799  1.0000
  H   H3204     1.0  0.27405  0.86539  0.59466  1.0000
  S   S736      1.0  0.40575  0.94684  0.79668  1.0000
  H   H3205     1.0  0.22804  0.80722  0.69681  1.0000
  H   H3206     1.0  0.05860  0.83473  0.63929  1.0000
  H   H3207     1.0  0.28627  0.90378  0.65982  1.0000
  C   C2679     1.0  0.36075  0.86398  0.60136  1.0000
  H   H3208     1.0  0.35562  0.83245  0.69262  1.0000
  S   S737      1.0  0.23167  0.87135  0.62766  1.0000
  H   H3209     1.0  0.03601  0.82296  0.61341  1.0000
  S   S738      1.0  0.20548  0.86324  0.61700  1.0000
  H   H3210     1.0  0.44906  0.86134  0.78125  1.0000
  C   C2680     1.0  0.42348  0.93226  0.89263  1.0000
  C   C2681     1.0  0.25767  0.86681  0.69830  1.0000
  S   S739      1.0  0.31669  0.83947  0.67202  1.0000
  C   C2682     1.0  0.20889  0.78983  0.58005  1.0000
  C   C2683     1.0  0.38031  0.92211  0.82919  1.0000
  C   C2684     1.0  0.47086  0.80827  0.73261  1.0000
  H   H3211     1.0  0.37570  0.86457  0.62743  1.0000
  H   H3212     1.0  0.27389  0.85100  0.70969  1.0000
  H   H3213     1.0  0.10086  0.83032  0.60022  1.0000
  C   C2685     1.0  0.21683  0.81548  0.58017  1.0000
  H   H3214     1.0  0.05955  0.81814  0.59490  1.0000
  H   H3215     1.0  0.46892  0.84026  0.72217  1.0000
  C   C2686     1.0  0.19790  0.82759  0.60635  1.0000
  C   C2687     1.0  0.35120  0.81968  0.64888  1.0000
  C   C2688     1.0  0.42339  0.80147  0.63220  1.0000
  H   H3216     1.0  0.42834  0.81022  0.74558  1.0000
  H   H3217     1.0  0.21128  0.82383  0.66394  1.0000
  S   S740      1.0  0.42950  0.81021  0.60146  1.0000
  H   H3218     1.0  0.08272  0.82065  0.59831  1.0000
  C   C2689     1.0  0.42637  0.85428  0.97450  1.0000
  C   C2690     1.0  0.26136  0.82453  0.58514  1.0000
  H   H3219     1.0  0.32234  0.82348  0.57505  1.0000
  H   H3220     1.0  0.37059  0.83687  0.63500  1.0000
  S   S741      1.0  0.47202  0.80347  0.68606  1.0000
  N   N174      1.0  0.44972  0.94796  0.81254  1.0000
  H   H3221     1.0  0.18021  0.84786  0.58926  1.0000
  C   C2691     1.0  0.38633  0.95561  0.88765  1.0000
  Fe  Fe368     1.0  0.41117  0.80462  0.59442  1.0000
  H   H3222     1.0  0.15803  0.79871  0.64341  1.0000
  H   H3223     1.0  0.24933  0.86014  0.70284  1.0000
  H   H3224     1.0  0.47003  0.80078  0.90361  1.0000
  H   H3225     1.0  0.18092  0.80208  0.64795  1.0000
  C   C2692     1.0  0.44058  0.80698  0.50395  1.0000
  H   H3226     1.0  0.45091  0.79136  0.84466  1.0000
  C   C2693     1.0  0.36216  0.84984  0.59915  1.0000
  H   H3227     1.0  0.36866  0.87064  0.59463  1.0000
  H   H3228     1.0  0.42566  0.84085  0.74264  1.0000
  H   H3229     1.0  0.30136  0.81451  0.62087  1.0000
  H   H3230     1.0  0.25228  0.91563  0.68690  1.0000
  S   S742      1.0  0.24776  0.84894  0.59685  1.0000
  C   C2694     1.0  0.43355  0.82076  0.50728  1.0000
  H   H3231     1.0  0.44200  0.97715  0.76039  1.0000
  H   H3232     1.0  0.27846  0.89291  0.65284  1.0000
  C   C2695     1.0  0.37978  0.96610  0.83037  1.0000
  H   H3233     1.0  0.41457  0.87712  0.64333  1.0000
  H   H3234     1.0  0.24954  0.89628  0.65999  1.0000
  C   C2696     1.0  0.45535  0.94913  0.79635  1.0000
  H   H3235     1.0  0.34844  0.82822  0.67231  1.0000
  H   H3236     1.0  0.42015  0.84193  0.50114  1.0000
  C   C2697     1.0  0.44445  0.97571  0.80886  1.0000
  H   H3237     1.0  0.22258  0.82663  0.69665  1.0000
  H   H3238     1.0  0.38516  0.90407  0.85410  1.0000
  C   C2698     1.0  0.26577  0.88877  0.68133  1.0000
  H   H3239     1.0  0.11111  0.82422  0.61441  1.0000
  C   C2699     1.0  0.37105  0.81785  0.66168  1.0000
  H   H3240     1.0  0.23865  0.81139  0.65630  1.0000
  C   C2700     1.0  0.27592  0.90306  0.65724  1.0000
  C   C2701     1.0  0.42492  0.82929  0.48397  1.0000
  N   N175      1.0  0.46632  0.84640  0.76920  1.0000
  C   C2702     1.0  0.45936  0.83380  0.77788  1.0000
  C   C2703     1.0  0.48280  0.84137  0.76730  1.0000
  C   C2704     1.0  0.46143  0.85797  0.77804  1.0000
  C   C2705     1.0  0.46218  0.85157  0.75463  1.0000
  C   C2706     1.0  0.45197  0.86518  0.75072  1.0000
  C   C2707     1.0  0.38976  0.81544  0.67571  1.0000
  H   H3241     1.0  0.16914  0.82985  0.60847  1.0000
  C   C2708     1.0  0.45289  0.78705  0.85576  1.0000
  N   N176      1.0  0.39449  0.95126  0.73046  1.0000
  C   C2709     1.0  0.28961  0.84427  0.59560  1.0000
  H   H3242     1.0  0.46210  0.82959  0.78899  1.0000
  H   H3243     1.0  0.32093  0.81460  0.61480  1.0000
  C   C2710     1.0  0.43285  0.96071  0.71638  1.0000
  C   C2711     1.0  0.43203  0.81503  0.48107  1.0000
  H   H3244     1.0  0.46591  0.86798  0.77191  1.0000
  H   H3245     1.0  0.44647  0.87246  0.75828  1.0000
  H   H3246     1.0  0.31983  0.97401  0.65125  1.0000
  C   C2712     1.0  0.41153  0.86876  0.65358  1.0000
  C   C2713     1.0  0.22312  0.79211  0.57278  1.0000
  H   H3247     1.0  0.45585  0.81643  0.63548  1.0000
  C   C2714     1.0  0.17494  0.82591  0.64230  1.0000
  H   H3248     1.0  0.45622  0.93865  0.79312  1.0000
  H   H3249     1.0  0.37104  0.95253  0.74086  1.0000
  H   H3250     1.0  0.41335  0.83176  0.66228  1.0000
  H   H3251     1.0  0.33244  0.84009  0.62562  1.0000
  C   C2715     1.0  0.34039  0.84669  0.61883  1.0000
  H   H3252     1.0  0.25981  0.92620  0.66919  1.0000
  H   H3253     1.0  0.24813  0.91584  0.65595  1.0000
  H   H3254     1.0  0.41026  0.80765  0.75704  1.0000
  H   H3255     1.0  0.22960  0.82741  0.61201  1.0000
  H   H3256     1.0  0.08513  0.85173  0.61055  1.0000
  C   C2716     1.0  0.33546  0.92554  0.62285  1.0000
  H   H3257     1.0  0.33039  0.86464  0.62995  1.0000
  C   C2717     1.0  0.34948  0.86922  0.61269  1.0000
  C   C2718     1.0  0.39376  0.85960  0.63859  1.0000
  H   H3258     1.0  0.34384  0.91532  0.62229  1.0000
  C   C2719     1.0  0.33922  0.86062  0.62129  1.0000
  C   C2720     1.0  0.40918  0.85352  0.63836  1.0000
  H   H3259     1.0  0.09693  0.84604  0.62369  1.0000
  Fe  Fe369     1.0  0.20697  0.87840  0.63039  1.0000
  Fe  Fe370     1.0  0.22803  0.85444  0.65045  1.0000
  H   H3260     1.0  0.23914  0.90720  0.67363  1.0000
  H   H3261     1.0  0.38818  0.98015  0.83825  1.0000
  Fe  Fe371     1.0  0.40034  0.97163  0.79066  1.0000
  H   H3262     1.0  0.36622  0.97287  0.47881  1.0000
  C   C2721     1.0  0.45687  0.79589  0.86259  1.0000
  C   C2722     1.0  0.46899  0.80364  0.74801  1.0000
  C   C2723     1.0  0.37951  0.97269  0.66446  1.0000
  H   H3263     1.0  0.29859  0.98286  0.49157  1.0000
  S   S743      1.0  0.11517  0.78504  0.63617  1.0000
  C   C2724     1.0  0.27952  0.88341  0.68598  1.0000
  C   C2725     1.0  0.41166  0.79182  0.53390  1.0000
  H   H3264     1.0  0.07703  0.84937  0.62998  1.0000
  C   C2726     1.0  0.40551  0.91623  0.83217  1.0000
  C   C2727     1.0  0.36408  0.82693  0.68458  1.0000
  H   H3265     1.0  0.33289  0.81907  0.58905  1.0000
  C   C2728     1.0  0.45653  0.96079  0.82875  1.0000
  H   H3266     1.0  0.35732  0.79794  0.49542  1.0000
  C   C2729     1.0  0.36012  0.82453  0.67270  1.0000
  C   C2730     1.0  0.29529  0.86658  0.59730  1.0000
  H   H3267     1.0  0.36781  0.98320  0.59882  1.0000
  C   C2731     1.0  0.42847  0.84265  0.96727  1.0000
  H   H3268     1.0  0.26922  0.83102  0.57792  1.0000
  H   H3269     1.0  0.37350  0.95030  0.82336  1.0000
  H   H3270     1.0  0.45016  0.82057  0.87368  1.0000
  H   H3271     1.0  0.20084  0.81719  0.61461  1.0000
  H   H3272     1.0  0.42021  0.86452  0.93449  1.0000
  C   C2732     1.0  0.48527  0.80764  0.72375  1.0000
  H   H3273     1.0  0.46023  0.97552  0.49952  1.0000
  C   C2733     1.0  0.45662  0.97372  0.83259  1.0000
  H   H3274     1.0  0.42077  0.87786  0.97304  1.0000
  C   C2734     1.0  0.05269  0.78649  0.62068  1.0000
  H   H3275     1.0  0.48815  0.81440  0.81889  1.0000
  H   H3276     1.0  0.35694  0.78799  0.57107  1.0000
  C   C2735     1.0  0.36690  0.96880  0.87416  1.0000
  H   H3277     1.0  0.33484  0.78451  0.51833  1.0000
  C   C2736     1.0  0.45218  0.81408  0.88470  1.0000
  C   C2737     1.0  0.42614  0.84683  0.95265  1.0000
  H   H3278     1.0  0.44606  0.79830  0.51183  1.0000
  C   C2738     1.0  0.42232  0.86913  0.96736  1.0000
  H   H3279     1.0  0.40126  0.81168  0.67699  1.0000
  C   C2739     1.0  0.46800  0.84263  0.74398  1.0000
  H   H3280     1.0  0.37893  0.79164  0.55079  1.0000
  C   C2740     1.0  0.35746  0.79785  0.50692  1.0000
  C   C2741     1.0  0.36994  0.78735  0.53469  1.0000
  H   H3281     1.0  0.30210  0.80194  0.59373  1.0000
  H   H3282     1.0  0.44431  0.81867  0.95449  1.0000
  H   H3283     1.0  0.22053  0.82516  0.57995  1.0000
  N   N177      1.0  0.31847  0.95322  0.64800  1.0000
  C   C2742     1.0  0.32170  0.96820  0.64220  1.0000
  C   C2743     1.0  0.32179  0.94573  0.63564  1.0000
  C   C2744     1.0  0.31369  0.95167  0.62424  1.0000
  C   C2745     1.0  0.31631  0.94463  0.61265  1.0000
  C   C2746     1.0  0.32713  0.93154  0.61200  1.0000
  H   H3284     1.0  0.31446  0.97546  0.63459  1.0000
  H   H3285     1.0  0.41936  0.79475  0.65603  1.0000
  H   H3286     1.0  0.33349  0.96766  0.63597  1.0000
  H   H3287     1.0  0.29488  0.96215  0.64824  1.0000
  H   H3288     1.0  0.30516  0.96177  0.62428  1.0000
  H   H3289     1.0  0.39044  0.96039  0.70857  1.0000
  H   H3290     1.0  0.32908  0.92596  0.60310  1.0000
  C   C2747     1.0  0.43244  0.80808  0.61937  1.0000
  C   C2748     1.0  0.45455  0.86079  0.72656  1.0000
  H   H3291     1.0  0.24395  0.88324  0.68528  1.0000
  C   C2749     1.0  0.43172  0.81131  0.79777  1.0000
  C   C2750     1.0  0.28238  0.86995  0.69608  1.0000
  N   N178      1.0  0.36747  0.81565  0.64859  1.0000
  C   C2751     1.0  0.25477  0.88015  0.68803  1.0000
  H   H3292     1.0  0.39814  0.83952  0.75721  1.0000
  C   C2752     1.0  0.29034  0.83051  0.68150  1.0000
  C   C2753     1.0  0.42479  0.81425  0.77428  1.0000
  C   C2754     1.0  0.21321  0.82108  0.67528  1.0000
  C   C2755     1.0  0.24057  0.80799  0.60317  1.0000
  C   C2756     1.0  0.40317  0.80260  0.50668  1.0000
  H   H3293     1.0  0.38960  0.93019  0.74291  1.0000
  C   C2757     1.0  0.41725  0.81593  0.75121  1.0000
  C   C2758     1.0  0.30424  0.83598  0.59695  1.0000
  H   H3294     1.0  0.45527  0.82179  0.88943  1.0000
  C   C2759     1.0  0.37292  0.79989  0.64755  1.0000
  H   H3295     1.0  0.26939  0.82369  0.69008  1.0000
  Fe  Fe372     1.0  0.48679  0.79402  0.80580  1.0000
  H   H3296     1.0  0.43329  0.96189  0.86654  1.0000
  C   C2760     1.0  0.44422  0.81333  0.62069  1.0000
  H   H3297     1.0  0.25081  0.80840  0.66872  1.0000
  C   C2761     1.0  0.44676  0.81231  0.63467  1.0000
  C   C2762     1.0  0.42575  0.92245  0.88344  1.0000
  H   H3298     1.0  0.21805  0.87450  0.67120  1.0000
  C   C2763     1.0  0.43317  0.94129  0.86217  1.0000
  C   C2764     1.0  0.35715  0.78683  0.56018  1.0000
  C   C2765     1.0  0.37781  0.96936  0.88130  1.0000
  C   C2766     1.0  0.44628  0.81939  0.96506  1.0000
  S   S744      1.0  0.37984  0.80030  0.57875  1.0000
  H   H3299     1.0  0.45791  0.80413  0.75491  1.0000
  C   C2767     1.0  0.23898  0.82255  0.60431  1.0000
  H   H3300     1.0  0.43676  0.94492  0.85041  1.0000
  H   H3301     1.0  0.28825  0.88952  0.68178  1.0000
  C   C2768     1.0  0.29800  0.81389  0.59392  1.0000
  C   C2769     1.0  0.45711  0.98081  0.73914  1.0000
  C   C2770     1.0  0.37290  0.94197  0.88041  1.0000
  H   H3302     1.0  0.37276  0.97536  0.82433  1.0000
  N   N179      1.0  0.37659  0.91509  0.69149  1.0000
  C   C2771     1.0  0.36353  0.90881  0.70052  1.0000
  C   C2772     1.0  0.39048  0.90386  0.69359  1.0000
  C   C2773     1.0  0.37639  0.92786  0.69735  1.0000
  C   C2774     1.0  0.37610  0.91906  0.67565  1.0000
  C   C2775     1.0  0.37766  0.93314  0.66642  1.0000
  C   C2776     1.0  0.37458  0.90844  0.66884  1.0000
  C   C2777     1.0  0.37755  0.93634  0.65140  1.0000
  C   C2778     1.0  0.37441  0.91178  0.65384  1.0000
  C   C2779     1.0  0.37587  0.92571  0.64513  1.0000
  H   H3303     1.0  0.36391  0.89787  0.69864  1.0000
  H   H3304     1.0  0.36266  0.90699  0.71261  1.0000
  H   H3305     1.0  0.35296  0.91641  0.69802  1.0000
  H   H3306     1.0  0.39120  0.89370  0.68995  1.0000
  H   H3307     1.0  0.39129  0.90037  0.70539  1.0000
  H   H3308     1.0  0.40054  0.90825  0.68711  1.0000
  H   H3309     1.0  0.36631  0.93685  0.69583  1.0000
  H   H3310     1.0  0.37617  0.92460  0.70939  1.0000
  H   H3311     1.0  0.38655  0.93246  0.69197  1.0000
  H   H3312     1.0  0.37916  0.94184  0.67050  1.0000
  H   H3313     1.0  0.37368  0.89740  0.67506  1.0000
  H   H3314     1.0  0.37901  0.94708  0.64453  1.0000
  H   H3315     1.0  0.37329  0.90341  0.64895  1.0000
  H   H3316     1.0  0.37591  0.92821  0.63346  1.0000
  N   N180      1.0  0.31947  0.93344  0.76205  1.0000
  C   C2780     1.0  0.33249  0.94005  0.75375  1.0000
  C   C2781     1.0  0.30633  0.94289  0.75609  1.0000
  C   C2782     1.0  0.31658  0.93408  0.77778  1.0000
  C   C2783     1.0  0.32280  0.91782  0.76078  1.0000
  C   C2784     1.0  0.31409  0.91242  0.75456  1.0000
  C   C2785     1.0  0.33538  0.90756  0.76547  1.0000
  C   C2786     1.0  0.31818  0.89785  0.75264  1.0000
  C   C2787     1.0  0.33928  0.89300  0.76360  1.0000
  C   C2788     1.0  0.33079  0.88820  0.75708  1.0000
  H   H3317     1.0  0.33002  0.95220  0.75303  1.0000
  H   H3318     1.0  0.34226  0.93520  0.75890  1.0000
  H   H3319     1.0  0.33613  0.93812  0.74236  1.0000
  H   H3320     1.0  0.30808  0.94321  0.74411  1.0000
  H   H3321     1.0  0.30429  0.95460  0.75698  1.0000
  H   H3322     1.0  0.29594  0.93893  0.76215  1.0000
  H   H3323     1.0  0.31373  0.94572  0.77912  1.0000
  H   H3324     1.0  0.30720  0.92874  0.78453  1.0000
  H   H3325     1.0  0.32653  0.92838  0.78265  1.0000
  H   H3326     1.0  0.30450  0.91939  0.75039  1.0000
  H   H3327     1.0  0.34251  0.91081  0.77033  1.0000
  H   H3328     1.0  0.31178  0.89417  0.74727  1.0000
  H   H3329     1.0  0.34914  0.88544  0.76693  1.0000
  H   H3330     1.0  0.33413  0.87701  0.75529  1.0000
  C   C2789     1.0  0.41766  0.84680  0.62635  1.0000
  C   C2790     1.0  0.41113  0.84649  0.61520  1.0000
  C   C2791     1.0  0.39610  0.85296  0.61555  1.0000
  H   H3331     1.0  0.39744  0.84607  0.66721  1.0000
  H   H3332     1.0  0.43630  0.83737  0.64662  1.0000
  H   H3333     1.0  0.42936  0.84161  0.62531  1.0000
  H   H3334     1.0  0.41781  0.84113  0.60623  1.0000
  H   H3335     1.0  0.39115  0.85276  0.60681  1.0000
  N   N181      1.0  0.08711  0.82903  0.62235  1.0000
  C   C2792     1.0  0.24968  0.85360  0.64963  1.0000
  C   C2793     1.0  0.10076  0.82361  0.61165  1.0000
  C   C2794     1.0  0.08650  0.84473  0.62162  1.0000
  C   C2795     1.0  0.07314  0.82784  0.61939  1.0000
  C   C2796     1.0  0.07279  0.82350  0.60660  1.0000
  C   C2797     1.0  0.05928  0.83108  0.62949  1.0000
  C   C2798     1.0  0.05946  0.82202  0.60444  1.0000
  C   C2799     1.0  0.04605  0.82939  0.62729  1.0000
  C   C2800     1.0  0.04617  0.82476  0.61484  1.0000
  S   S745      1.0  0.24733  0.84731  0.67835  1.0000
  C   C2801     1.0  0.26693  0.84488  0.67487  1.0000
  S   S746      1.0  0.40070  0.81895  0.54178  1.0000
  H   H3336     1.0  0.10180  0.81183  0.61161  1.0000
  C   C2802     1.0  0.27502  0.83219  0.68278  1.0000
  H   H3337     1.0  0.40991  0.92225  0.82083  1.0000
  H   H3338     1.0  0.41327  0.91535  0.83917  1.0000
  Fe  Fe373     1.0  0.42925  0.98092  0.88801  1.0000
  S   S747      1.0  0.20214  0.86276  0.65230  1.0000
  H   H3339     1.0  0.29556  0.81968  0.58287  1.0000
  H   H3340     1.0  0.27365  0.91286  0.64814  1.0000
  C   C2803     1.0  0.22135  0.84999  0.67289  1.0000
  C   C2804     1.0  0.24942  0.90555  0.66477  1.0000
  N   N182      1.0  0.38996  0.92371  0.83805  1.0000
  C   C2805     1.0  0.42626  0.94652  0.88660  1.0000
  C   C2806     1.0  0.38942  0.93929  0.83779  1.0000
  H   H3341     1.0  0.37334  0.92112  0.85827  1.0000
  H   H3342     1.0  0.28119  0.83944  0.59446  1.0000
  C   C2807     1.0  0.39814  0.94252  0.84571  1.0000
  H   H3343     1.0  0.38976  0.97540  0.90163  1.0000
  H   H3344     1.0  0.40478  0.97547  0.87679  1.0000
  H   H3345     1.0  0.14204  0.97862  0.65898  1.0000
  C   C2808     1.0  0.39773  0.95708  0.84585  1.0000
  H   H3346     1.0  0.40536  0.93377  0.85189  1.0000
  H   H3347     1.0  0.40884  0.92939  0.73435  1.0000
  N   N183      1.0  0.30909  0.81991  0.59727  1.0000
  C   C2809     1.0  0.17690  0.82104  0.60292  1.0000
  S   S748      1.0  0.13587  0.79895  0.60452  1.0000
  C   C2810     1.0  0.17373  0.98150  0.63182  1.0000
  S   S749      1.0  0.35439  0.82287  0.60654  1.0000
  C   C2811     1.0  0.40397  0.80653  0.53027  1.0000
  S   S750      1.0  0.42271  0.95887  0.89821  1.0000
  H   H3348     1.0  0.23629  0.79854  0.67368  1.0000
  Fe  Fe374     1.0  0.20269  0.84697  0.63884  1.0000
  H   H3349     1.0  0.39347  0.82313  0.51398  1.0000
  H   H3350     1.0  0.16568  0.84928  0.63624  1.0000
  H   H3351     1.0  0.44046  0.88010  0.73408  1.0000
  H   H3352     1.0  0.29190  0.87827  0.59737  1.0000
  C   C2812     1.0  0.43047  0.97366  0.72121  1.0000
  H   H3353     1.0  0.16492  0.94923  0.63760  1.0000
  C   C2813     1.0  0.43760  0.80589  0.64750  1.0000
  H   H3354     1.0  0.18992  0.83582  0.61254  1.0000
  H   H3355     1.0  0.43289  0.93650  0.81356  1.0000
  S   S751      1.0  0.45505  0.81520  0.72472  1.0000
  S   S752      1.0  0.39645  0.82397  0.58216  1.0000
  H   H3356     1.0  0.45139  0.81829  0.61082  1.0000
  H   H3357     1.0  0.14247  0.84586  0.63192  1.0000
  N   N184      1.0  0.22866  0.82151  0.67507  1.0000
  N   N185      1.0  0.19152  0.82499  0.59520  1.0000
  H   H3358     1.0  0.40457  0.95918  0.85196  1.0000
  H   H3359     1.0  0.45415  0.93158  0.83224  1.0000
  H   H3360     1.0  0.08041  0.82499  0.64629  1.0000
  C   C2814     1.0  0.45866  0.93408  0.82008  1.0000
  H   H3361     1.0  0.42925  0.94547  0.82855  1.0000
  C   C2815     1.0  0.42478  0.82001  0.78628  1.0000
  C   C2816     1.0  0.18859  0.83903  0.58413  1.0000
  C   C2817     1.0  0.43398  0.94646  0.81650  1.0000
  H   H3362     1.0  0.45544  0.82536  0.96233  1.0000
  Fe  Fe375     1.0  0.37776  0.81285  0.59560  1.0000
  C   C2818     1.0  0.31406  0.84368  0.59869  1.0000
  C   C2819     1.0  0.40457  0.97251  0.73190  1.0000
  H   H3363     1.0  0.34642  0.83167  0.64858  1.0000
  S   S753      1.0  0.19153  0.82742  0.64594  1.0000
  Fe  Fe376     1.0  0.39979  0.80960  0.56622  1.0000
  H   H3364     1.0  0.41593  0.79698  0.89836  1.0000
  C   C2820     1.0  0.39950  0.81179  0.51675  1.0000
  C   C2821     1.0  0.15092  0.83629  0.63530  1.0000
  C   C2822     1.0  0.32334  0.81676  0.58629  1.0000
  C   C2823     1.0  0.30965  0.85875  0.59880  1.0000
  C   C2824     1.0  0.45042  0.96140  0.81669  1.0000
  C   C2825     1.0  0.24942  0.83081  0.59536  1.0000
  C   C2826     1.0  0.06198  0.78806  0.62885  1.0000
  H   H3365     1.0  0.46311  0.82429  0.77236  1.0000
  C   C2827     1.0  0.30501  0.97403  0.48546  1.0000
  C   C2828     1.0  0.42579  0.83178  0.49751  1.0000
  S   S754      1.0  0.43975  0.80492  0.66545  1.0000
  Fe  Fe377     1.0  0.31970  0.98090  0.69211  1.0000
  H   H3366     1.0  0.44779  0.95772  0.78976  1.0000
  H   H3367     1.0  0.43182  0.81607  0.80666  1.0000
  H   H3368     1.0  0.37578  0.96995  0.73148  1.0000
  H   H3369     1.0  0.40382  0.84151  0.77232  1.0000
  Fe  Fe378     1.0  0.32847  0.97981  0.72039  1.0000
  H   H3370     1.0  0.40703  0.98011  0.63415  1.0000
  H   H3371     1.0  0.41972  0.83141  0.78676  1.0000
  C   C2829     1.0  0.39862  0.93639  0.73991  1.0000
  H   H3372     1.0  0.32676  0.80486  0.58571  1.0000
  H   H3373     1.0  0.42905  0.84196  0.75963  1.0000
  H   H3374     1.0  0.18774  0.79775  0.59278  1.0000
  H   H3375     1.0  0.46136  0.97305  0.84180  1.0000
  H   H3376     1.0  0.47057  0.93464  0.81789  1.0000
  H   H3377     1.0  0.17824  0.81074  0.61171  1.0000
  S   S755      1.0  0.41605  0.79103  0.57722  1.0000
  H   H3378     1.0  0.41513  0.78764  0.54432  1.0000
  H   H3379     1.0  0.44449  0.79000  0.80647  1.0000
  H   H3380     1.0  0.45787  0.80688  0.85639  1.0000
  N   N186      1.0  0.41867  0.82409  0.76153  1.0000
  N   N187      1.0  0.46401  0.80035  0.88382  1.0000
  C   C2830     1.0  0.45963  0.79068  0.87704  1.0000
  H   H3381     1.0  0.44135  0.81159  0.89165  1.0000
  C   C2831     1.0  0.44830  0.86969  0.73684  1.0000
  H   H3382     1.0  0.23826  0.80654  0.56738  1.0000
  H   H3383     1.0  0.34710  0.80561  0.51121  1.0000
  C   C2832     1.0  0.42885  0.83417  0.75315  1.0000
  Fe  Fe379     1.0  0.13354  0.79779  0.62857  1.0000
  C   C2833     1.0  0.42023  0.81963  0.97610  1.0000
  H   H3384     1.0  0.05730  0.78982  0.63995  1.0000
  C   C2834     1.0  0.43896  0.79051  0.78619  1.0000
  C   C2835     1.0  0.39232  0.94950  0.71648  1.0000
  H   H3385     1.0  0.48188  0.81168  0.87934  1.0000
  H   H3386     1.0  0.41199  0.82351  0.74210  1.0000
  H   H3387     1.0  0.38532  0.79645  0.64504  1.0000
  C   C2836     1.0  0.37042  0.97861  0.64197  1.0000
  C   C2837     1.0  0.20223  0.81350  0.58773  1.0000
  H   H3388     1.0  0.35612  0.95508  0.86832  1.0000
  H   H3389     1.0  0.42669  0.95608  0.81063  1.0000
  H   H3390     1.0  0.36015  0.97865  0.86865  1.0000
  H   H3391     1.0  0.20811  0.83210  0.60132  1.0000
  H   H3392     1.0  0.35698  0.97338  0.66382  1.0000
  H   H3393     1.0  0.21079  0.80993  0.68060  1.0000
  H   H3394     1.0  0.36974  0.98155  0.90472  1.0000
  H   H3395     1.0  0.40070  0.93723  0.75040  1.0000
  H   H3396     1.0  0.42356  0.94341  0.71554  1.0000
  C   C2838     1.0  0.38390  0.94215  0.88718  1.0000
  C   C2839     1.0  0.41970  0.78533  0.90307  1.0000
  H   H3397     1.0  0.45168  0.86424  0.71584  1.0000
  H   H3398     1.0  0.48507  0.88534  0.64421  1.0000
  H   H3399     1.0  0.36137  0.98044  0.63654  1.0000
  H   H3400     1.0  0.38055  0.96039  0.74906  1.0000
  H   H3401     1.0  0.37094  0.93150  0.88025  1.0000
  S   S756      1.0  0.41054  0.98251  0.76789  1.0000
  H   H3402     1.0  0.48375  0.87919  0.70807  1.0000
  S   S757      1.0  0.10182  0.78712  0.59931  1.0000
  H   H3403     1.0  0.29305  0.97629  0.59020  1.0000
  C   C2840     1.0  0.07393  0.78432  0.59995  1.0000
  H   H3404     1.0  0.39540  0.83515  0.48773  1.0000
  C   C2841     1.0  0.36793  0.97466  0.65742  1.0000
  H   H3405     1.0  0.36581  0.97645  0.58408  1.0000
  C   C2842     1.0  0.42114  0.95354  0.71933  1.0000
  H   H3406     1.0  0.46657  0.95186  0.79259  1.0000
  H   H3407     1.0  0.48856  0.85005  0.75959  1.0000
  H   H3408     1.0  0.36937  0.79769  0.63846  1.0000
  C   C2843     1.0  0.43202  0.79912  0.77464  1.0000
  H   H3409     1.0  0.30982  0.94931  0.60418  1.0000
  C   C2844     1.0  0.36955  0.78885  0.54876  1.0000
  H   H3410     1.0  0.42736  0.83862  0.94652  1.0000
  H   H3411     1.0  0.40205  0.94202  0.71088  1.0000
  H   H3412     1.0  0.44389  0.95611  0.71047  1.0000
  Fe  Fe380     1.0  0.11909  0.78458  0.61227  1.0000
  C   C2845     1.0  0.48145  0.79804  0.75451  1.0000
  H   H3413     1.0  0.38247  0.94467  0.71839  1.0000
  H   H3414     1.0  0.23117  0.78393  0.56717  1.0000
  C   C2846     1.0  0.39611  0.97857  0.64062  1.0000
  S   S758      1.0  0.37638  0.96848  0.68375  1.0000
  H   H3415     1.0  0.37970  0.78933  0.52618  1.0000
  H   H3416     1.0  0.48721  0.79451  0.87318  1.0000
  C   C2847     1.0  0.29222  0.98187  0.59877  1.0000
  C   C2848     1.0  0.14984  0.98284  0.64929  1.0000
  N   N188      1.0  0.38084  0.98343  0.88177  1.0000
  C   C2849     1.0  0.27919  0.98333  0.60988  1.0000
  Fe  Fe381     1.0  0.53558  0.10421  0.16319  1.0000
  S   S759      1.0  0.52303  0.12494  0.17109  1.0000
  S   S760      1.0  0.55973  0.09467  0.16386  1.0000
  H   H3417     1.0  0.51572  0.07501  0.20801  1.0000
  S   S761      1.0  0.52543  0.10971  0.14351  1.0000
  Fe  Fe382     1.0  0.50516  0.03701  0.27109  1.0000
  H   H3418     1.0  0.71270  0.07963  0.01263  1.0000
  S   S762      1.0  0.51532  0.05090  0.27885  1.0000
  C   C2850     1.0  0.69261  0.09252  0.03331  1.0000
  S   S763      1.0  0.71789  0.15198  0.00505  1.0000
  H   H3419     1.0  0.76796  0.99430  0.41515  1.0000
  S   S764      1.0  0.50845  0.03460  0.24790  1.0000
  S   S765      1.0  0.50768  0.01275  0.28060  1.0000
  C   C2851     1.0  0.79787  0.02967  0.38995  1.0000
  Fe  Fe383     1.0  0.52845  0.01462  0.37410  1.0000
  C   C2852     1.0  0.68064  0.05602  0.01033  1.0000
  S   S766      1.0  0.54677  0.02754  0.36673  1.0000
  H   H3420     1.0  0.52187  0.04258  0.34678  1.0000
  S   S767      1.0  0.72561  0.12198  0.98167  1.0000
  C   C2853     1.0  0.79009  0.16394  0.43552  1.0000
  C   C2854     1.0  0.72042  0.01307  0.08295  1.0000
  S   S768      1.0  0.52174  0.01104  0.35518  1.0000
  H   H3421     1.0  0.81226  0.14043  0.43011  1.0000
  C   C2855     1.0  0.72030  0.99391  0.07174  1.0000
  C   C2856     1.0  0.66681  0.06565  0.01371  1.0000
  H   H3422     1.0  0.61942  0.12363  0.98684  1.0000
  H   H3423     1.0  0.69904  0.08848  0.04217  1.0000
  C   C2857     1.0  0.82014  0.99958  0.44001  1.0000
  H   H3424     1.0  0.68624  0.02021  0.23633  1.0000
  N   N189      1.0  0.59287  0.03629  0.41946  1.0000
  Fe  Fe384     1.0  0.71080  0.04695  0.46515  1.0000
  S   S769      1.0  0.70218  0.06110  0.44509  1.0000
  H   H3425     1.0  0.64851  0.01824  0.23385  1.0000
  Fe  Fe385     1.0  0.74160  0.03602  0.44735  1.0000
  S   S770      1.0  0.73599  0.04898  0.42576  1.0000
  S   S771      1.0  0.76406  0.02279  0.45117  1.0000
  Fe  Fe386     1.0  0.72465  0.06724  0.43786  1.0000
  S   S772      1.0  0.72863  0.09018  0.42795  1.0000
  Fe  Fe387     1.0  0.71418  0.04159  0.43468  1.0000
  S   S773      1.0  0.70740  0.03101  0.42008  1.0000
  S   S774      1.0  0.73199  0.05483  0.45872  1.0000
  S   S775      1.0  0.72102  0.02689  0.45539  1.0000
  Fe  Fe388     1.0  0.62537  0.01439  0.38301  1.0000
  S   S776      1.0  0.62330  0.03896  0.37676  1.0000
  S   S777      1.0  0.60535  0.00385  0.39291  1.0000
  Fe  Fe389     1.0  0.65937  0.00815  0.37487  1.0000
  S   S778      1.0  0.65989  0.03215  0.36749  1.0000
  S   S779      1.0  0.76188  0.11460  0.46118  1.0000
  Fe  Fe390     1.0  0.64230  0.03439  0.38809  1.0000
  S   S780      1.0  0.64376  0.04723  0.40374  1.0000
  Fe  Fe391     1.0  0.64113  0.03415  0.35689  1.0000
  S   S781      1.0  0.64092  0.04747  0.33374  1.0000
  S   S782      1.0  0.64287  0.01016  0.39614  1.0000
  S   S783      1.0  0.64217  0.00978  0.36239  1.0000
  C   C2858     1.0  0.50225  0.98786  0.23531  1.0000
  Fe  Fe392     1.0  0.49823  0.01774  0.36721  1.0000
  H   H3426     1.0  0.86863  0.09496  0.43877  1.0000
  C   C2859     1.0  0.62064  0.09695  0.00077  1.0000
  S   S784      1.0  0.49779  0.08112  0.15511  1.0000
  S   S785      1.0  0.81572  0.00309  0.36021  1.0000
  H   H3427     1.0  0.51015  0.03148  0.15034  1.0000
  N   N190      1.0  0.57922  0.09847  0.20395  1.0000
  H   H3428     1.0  0.49942  0.06493  0.31999  1.0000
  C   C2860     1.0  0.78340  0.03273  0.39842  1.0000
  N   N191      1.0  0.61160  0.09639  0.99077  1.0000
  H   H3429     1.0  0.92606  0.06133  0.45422  1.0000
  H   H3430     1.0  0.90095  0.02793  0.47480  1.0000
  H   H3431     1.0  0.71985  0.00225  0.06112  1.0000
  C   C2861     1.0  0.52112  0.06303  0.20977  1.0000
  Fe  Fe393     1.0  0.80378  0.06999  0.46417  1.0000
  S   S786      1.0  0.80254  0.09289  0.45006  1.0000
  S   S787      1.0  0.80653  0.05213  0.45240  1.0000
  Fe  Fe394     1.0  0.81584  0.09592  0.46435  1.0000
  C   C2862     1.0  0.49550  0.01685  0.19334  1.0000
  Fe  Fe395     1.0  0.71946  0.14565  0.98394  1.0000
  H   H3432     1.0  0.74374  0.99612  0.40053  1.0000
  H   H3433     1.0  0.67641  0.13756  0.98576  1.0000
  Fe  Fe396     1.0  0.87705  0.99856  0.43119  1.0000
  S   S788      1.0  0.88631  0.01428  0.41110  1.0000
  S   S789      1.0  0.86795  0.00585  0.45265  1.0000
  H   H3434     1.0  0.51384  0.12231  0.10437  1.0000
  H   H3435     1.0  0.89874  0.00685  0.43829  1.0000
  C   C2863     1.0  0.98344  0.14179  0.40953  1.0000
  Fe  Fe397     1.0  0.90616  0.99554  0.40865  1.0000
  S   S790      1.0  0.92944  0.99928  0.40520  1.0000
  Fe  Fe398     1.0  0.87676  0.00383  0.39890  1.0000
  S   S791      1.0  0.86612  0.01840  0.38037  1.0000
  H   H3436     1.0  0.94449  0.99574  0.37491  1.0000
  H   H3437     1.0  0.98057  0.14769  0.36903  1.0000
  Fe  Fe399     1.0  0.95820  0.06965  0.40519  1.0000
  H   H3438     1.0  0.67295  0.99401  0.22371  1.0000
  S   S792      1.0  0.94071  0.06325  0.39772  1.0000
  H   H3439     1.0  0.50319  0.01760  0.02644  1.0000
  H   H3440     1.0  0.73225  0.98860  0.07179  1.0000
  H   H3441     1.0  0.77165  0.14490  0.44474  1.0000
  H   H3442     1.0  0.50748  0.03667  0.32690  1.0000
  Fe  Fe400     1.0  0.95641  0.08190  0.43146  1.0000
  S   S793      1.0  0.94051  0.08529  0.45286  1.0000
  S   S794      1.0  0.94775  0.09187  0.41078  1.0000
  H   H3443     1.0  0.64410  0.02060  0.16618  1.0000
  H   H3444     1.0  0.76478  0.15038  0.08082  1.0000
  H   H3445     1.0  0.57717  0.11530  0.18381  1.0000
  S   S795      1.0  0.68176  0.99243  0.37378  1.0000
  C   C2864     1.0  0.65853  0.98382  0.27462  1.0000
  S   S796      1.0  0.86840  0.17811  0.44352  1.0000
  H   H3446     1.0  0.74636  0.12062  0.06918  1.0000
  C   C2865     1.0  0.81612  0.98576  0.42009  1.0000
  Fe  Fe401     1.0  0.71183  0.16264  0.09487  1.0000
  S   S797      1.0  0.71234  0.13849  0.10408  1.0000
  C   C2866     1.0  0.64444  0.06032  0.18950  1.0000
  H   H3447     1.0  0.55300  0.99705  0.35044  1.0000
  Fe  Fe402     1.0  0.62078  0.13302  0.18339  1.0000
  S   S798      1.0  0.62188  0.11884  0.16826  1.0000
  S   S799      1.0  0.61054  0.12549  0.20729  1.0000
  Fe  Fe403     1.0  0.63502  0.15566  0.15870  1.0000
  S   S800      1.0  0.63730  0.14335  0.14139  1.0000
  C   C2867     1.0  0.61252  0.12354  0.97975  1.0000
  Fe  Fe404     1.0  0.61420  0.14034  0.15310  1.0000
  S   S801      1.0  0.59584  0.14522  0.14106  1.0000
  Fe  Fe405     1.0  0.64476  0.12318  0.15811  1.0000
  S   S802      1.0  0.66514  0.10580  0.15226  1.0000
  S   S803      1.0  0.61118  0.15435  0.16912  1.0000
  S   S804      1.0  0.64439  0.13567  0.17455  1.0000
  Fe  Fe406     1.0  0.59665  0.04518  0.24914  1.0000
  S   S805      1.0  0.60436  0.05696  0.26156  1.0000
  C   C2868     1.0  0.64578  0.99092  0.28331  1.0000
  S   S806      1.0  0.83589  0.10624  0.45419  1.0000
  S   S807      1.0  0.63192  0.02751  0.26521  1.0000
  Fe  Fe407     1.0  0.60829  0.03477  0.27720  1.0000
  S   S808      1.0  0.60159  0.02923  0.30202  1.0000
  Fe  Fe408     1.0  0.62719  0.04858  0.24834  1.0000
  S   S809      1.0  0.64446  0.06138  0.23420  1.0000
  S   S810      1.0  0.61901  0.03832  0.23497  1.0000
  Fe  Fe409     1.0  0.69193  0.05572  0.06677  1.0000
  S   S811      1.0  0.71251  0.06303  0.06582  1.0000
  S   S812      1.0  0.69488  0.04401  0.04867  1.0000
  Fe  Fe410     1.0  0.67582  0.06551  0.09557  1.0000
  S   S813      1.0  0.69521  0.07355  0.09661  1.0000
  S   S814      1.0  0.65525  0.06781  0.11382  1.0000
  Fe  Fe411     1.0  0.69667  0.08321  0.07256  1.0000
  S   S815      1.0  0.69898  0.10662  0.06192  1.0000
  Fe  Fe412     1.0  0.70883  0.05254  0.09001  1.0000
  S   S816      1.0  0.67615  0.07678  0.07174  1.0000
  S   S817      1.0  0.68939  0.04372  0.09061  1.0000
  H   H3448     1.0  0.77194  0.13628  0.46955  1.0000
  C   C2869     1.0  0.62069  0.10816  0.21499  1.0000
  C   C2870     1.0  0.61493  0.10087  0.22930  1.0000
  C   C2871     1.0  0.62233  0.08659  0.23526  1.0000
  C   C2872     1.0  0.63569  0.07964  0.22708  1.0000
  C   C2873     1.0  0.64179  0.08716  0.21296  1.0000
  C   C2874     1.0  0.63417  0.10131  0.20682  1.0000
  H   H3449     1.0  0.60463  0.10619  0.23574  1.0000
  H   H3450     1.0  0.61783  0.08110  0.24633  1.0000
  H   H3451     1.0  0.65221  0.08192  0.20664  1.0000
  H   H3452     1.0  0.63872  0.10689  0.19576  1.0000
  C   C2875     1.0  0.66186  0.09452  0.14268  1.0000
  C   C2876     1.0  0.64762  0.09619  0.14033  1.0000
  C   C2877     1.0  0.64540  0.08744  0.13208  1.0000
  C   C2878     1.0  0.65749  0.07729  0.12586  1.0000
  C   C2879     1.0  0.67153  0.07522  0.12879  1.0000
  C   C2880     1.0  0.67377  0.08390  0.13706  1.0000
  H   H3453     1.0  0.63836  0.10440  0.14459  1.0000
  H   H3454     1.0  0.63442  0.08887  0.13016  1.0000
  H   H3455     1.0  0.68066  0.06668  0.12498  1.0000
  H   H3456     1.0  0.68475  0.08242  0.13903  1.0000
  C   C2881     1.0  0.70843  0.12982  0.09235  1.0000
  C   C2882     1.0  0.71157  0.11435  0.09520  1.0000
  C   C2883     1.0  0.70920  0.10717  0.08558  1.0000
  C   C2884     1.0  0.70344  0.11542  0.07322  1.0000
  C   C2885     1.0  0.70056  0.13091  0.07021  1.0000
  C   C2886     1.0  0.70295  0.13811  0.07982  1.0000
  H   H3457     1.0  0.71599  0.10788  0.10478  1.0000
  H   H3458     1.0  0.71197  0.09525  0.08770  1.0000
  H   H3459     1.0  0.69622  0.13738  0.06057  1.0000
  H   H3460     1.0  0.70049  0.15007  0.07753  1.0000
  C   C2887     1.0  0.93258  0.01710  0.40296  1.0000
  C   C2888     1.0  0.94612  0.01844  0.40497  1.0000
  C   C2889     1.0  0.94881  0.03248  0.40352  1.0000
  C   C2890     1.0  0.93807  0.04529  0.39977  1.0000
  C   C2891     1.0  0.92466  0.04393  0.39752  1.0000
  C   C2892     1.0  0.92188  0.02993  0.39920  1.0000
  H   H3461     1.0  0.95453  0.00858  0.40778  1.0000
  H   H3462     1.0  0.95923  0.03339  0.40518  1.0000
  H   H3463     1.0  0.91637  0.05379  0.39443  1.0000
  H   H3464     1.0  0.91151  0.02913  0.39741  1.0000
  C   C2893     1.0  0.82383  0.03968  0.45230  1.0000
  C   C2894     1.0  0.83051  0.03262  0.44048  1.0000
  C   C2895     1.0  0.84427  0.02244  0.44039  1.0000
  C   C2896     1.0  0.85115  0.01906  0.45229  1.0000
  C   C2897     1.0  0.84450  0.02616  0.46407  1.0000
  C   C2898     1.0  0.83088  0.03655  0.46403  1.0000
  H   H3465     1.0  0.82509  0.03501  0.43139  1.0000
  H   H3466     1.0  0.84940  0.01706  0.43122  1.0000
  H   H3467     1.0  0.70363  0.00482  0.38065  1.0000
  S   S818      1.0  0.74825  0.17509  0.99668  1.0000
  C   C2899     1.0  0.94190  0.16342  0.40091  1.0000
  S   S819      1.0  0.50473  0.02341  0.38517  1.0000
  C   C2900     1.0  0.92245  0.05185  0.45361  1.0000
  C   C2901     1.0  0.51894  0.03856  0.32150  1.0000
  H   H3468     1.0  0.58538  0.98431  0.32112  1.0000
  S   S820      1.0  0.63295  0.99512  0.24961  1.0000
  C   C2902     1.0  0.92114  0.01491  0.36818  1.0000
  C   C2903     1.0  0.90044  0.00612  0.46516  1.0000
  C   C2904     1.0  0.71412  0.98941  0.09848  1.0000
  C   C2905     1.0  0.82945  0.00677  0.36672  1.0000
  C   C2906     1.0  0.83679  0.01789  0.35783  1.0000
  C   C2907     1.0  0.84785  0.02133  0.36232  1.0000
  C   C2908     1.0  0.85178  0.01366  0.37575  1.0000
  C   C2909     1.0  0.84433  0.00260  0.38489  1.0000
  C   C2910     1.0  0.83312  0.99915  0.38035  1.0000
  H   H3469     1.0  0.83393  0.02388  0.34736  1.0000
  H   H3470     1.0  0.85346  0.02995  0.35527  1.0000
  C   C2911     1.0  0.64700  0.99696  0.29438  1.0000
  Fe  Fe413     1.0  0.96985  0.09807  0.40072  1.0000
  H   H3471     1.0  0.79752  0.17075  0.43599  1.0000
  H   H3472     1.0  0.56767  0.05546  0.32870  1.0000
  H   H3473     1.0  0.90610  0.00267  0.47458  1.0000
  H   H3474     1.0  0.54537  0.06569  0.22802  1.0000
  H   H3475     1.0  0.93062  0.00516  0.43650  1.0000
  C   C2912     1.0  0.60771  0.11066  0.98033  1.0000
  C   C2913     1.0  0.62889  0.04341  0.32535  1.0000
  C   C2914     1.0  0.62895  0.04972  0.31038  1.0000
  C   C2915     1.0  0.62041  0.04557  0.30315  1.0000
  C   C2916     1.0  0.61165  0.03526  0.31097  1.0000
  C   C2917     1.0  0.61120  0.02932  0.32604  1.0000
  C   C2918     1.0  0.61988  0.03332  0.33320  1.0000
  H   H3476     1.0  0.63588  0.05755  0.30428  1.0000
  H   H3477     1.0  0.62074  0.05025  0.29153  1.0000
  H   H3478     1.0  0.60434  0.02142  0.33216  1.0000
  H   H3479     1.0  0.61964  0.02854  0.34479  1.0000
  C   C2919     1.0  0.76961  0.00688  0.44402  1.0000
  C   C2920     1.0  0.76581  0.00696  0.43104  1.0000
  H   H3480     1.0  0.92119  0.99111  0.44760  1.0000
  C   C2921     1.0  0.97789  0.13328  0.39070  1.0000
  C   C2922     1.0  0.49568  0.14018  0.08696  1.0000
  S   S821      1.0  0.50105  0.08341  0.08847  1.0000
  H   H3481     1.0  0.75927  0.01691  0.42539  1.0000
  H   H3482     1.0  0.60036  0.08127  0.00845  1.0000
  N   N192      1.0  0.56976  0.00190  0.33058  1.0000
  C   C2923     1.0  0.77763  0.14324  0.47197  1.0000
  C   C2924     1.0  0.75285  0.10741  0.45212  1.0000
  C   C2925     1.0  0.75606  0.09223  0.45247  1.0000
  C   C2926     1.0  0.74845  0.08678  0.44534  1.0000
  C   C2927     1.0  0.73790  0.09653  0.43753  1.0000
  C   C2928     1.0  0.73500  0.11171  0.43691  1.0000
  C   C2929     1.0  0.74228  0.11710  0.44435  1.0000
  H   H3483     1.0  0.98856  0.16637  0.37654  1.0000
  H   H3484     1.0  0.75097  0.07511  0.44561  1.0000
  H   H3485     1.0  0.72693  0.11930  0.43084  1.0000
  H   H3486     1.0  0.89774  0.99604  0.46399  1.0000
  C   C2930     1.0  0.68948  0.03565  0.41604  1.0000
  C   C2931     1.0  0.67811  0.04703  0.42110  1.0000
  C   C2932     1.0  0.66410  0.05050  0.41733  1.0000
  C   C2933     1.0  0.66138  0.04264  0.40848  1.0000
  C   C2934     1.0  0.67277  0.03122  0.40348  1.0000
  C   C2935     1.0  0.68673  0.02776  0.40725  1.0000
  H   H3487     1.0  0.68011  0.05321  0.42785  1.0000
  H   H3488     1.0  0.65537  0.05935  0.42123  1.0000
  H   H3489     1.0  0.67084  0.02507  0.39668  1.0000
  H   H3490     1.0  0.69550  0.01907  0.40314  1.0000
  H   H3491     1.0  0.92771  0.02992  0.43005  1.0000
  C   C2936     1.0  0.72082  0.99083  0.43464  1.0000
  C   C2937     1.0  0.64068  0.04662  0.19308  1.0000
  C   C2938     1.0  0.98129  0.14606  0.38038  1.0000
  C   C2939     1.0  0.72126  0.04145  0.38250  1.0000
  H   H3492     1.0  0.66721  0.02069  0.24643  1.0000
  N   N193      1.0  0.89843  0.09454  0.42271  1.0000
  C   C2940     1.0  0.69205  0.10582  0.00811  1.0000
  Fe  Fe414     1.0  0.69723  0.16839  0.99980  1.0000
  C   C2941     1.0  0.80854  0.14168  0.44177  1.0000
  H   H3493     1.0  0.57720  0.08877  0.18717  1.0000
  H   H3494     1.0  0.76902  0.05089  0.43497  1.0000
  H   H3495     1.0  0.58751  0.07663  0.36847  1.0000
  H   H3496     1.0  0.89093  0.02500  0.44187  1.0000
  C   C2942     1.0  0.51149  0.06515  0.31577  1.0000
  C   C2943     1.0  0.67061  0.06284  0.03835  1.0000
  H   H3497     1.0  0.73164  0.00645  0.34426  1.0000
  H   H3498     1.0  0.72241  0.08563  0.02230  1.0000
  H   H3499     1.0  0.58985  0.03568  0.44262  1.0000
  S   S822      1.0  0.57794  0.05631  0.23753  1.0000
  C   C2944     1.0  0.72227  0.00424  0.14331  1.0000
  C   C2945     1.0  0.54732  0.99997  0.32241  1.0000
  H   H3500     1.0  0.88544  0.10781  0.43863  1.0000
  H   H3501     1.0  0.70010  0.00619  0.14071  1.0000
  C   C2946     1.0  0.65478  0.06420  0.17651  1.0000
  H   H3502     1.0  0.68981  0.08265  0.03190  1.0000
  S   S823      1.0  0.97322  0.11976  0.38481  1.0000
  C   C2947     1.0  0.50752  0.09051  0.12516  1.0000
  H   H3503     1.0  0.80372  0.16455  0.45820  1.0000
  Fe  Fe415     1.0  0.72964  0.16984  0.99054  1.0000
  H   H3504     1.0  0.63676  0.00248  0.30073  1.0000
  H   H3505     1.0  0.75138  0.14057  0.09351  1.0000
  C   C2948     1.0  0.51553  0.05225  0.33991  1.0000
  H   H3506     1.0  0.78705  0.13959  0.43028  1.0000
  H   H3507     1.0  0.93003  0.98558  0.38117  1.0000
  C   C2949     1.0  0.65628  0.02167  0.22323  1.0000
  C   C2950     1.0  0.90999  0.12911  0.43815  1.0000
  C   C2951     1.0  0.90503  0.11961  0.45144  1.0000
  C   C2952     1.0  0.91475  0.10647  0.45667  1.0000
  C   C2953     1.0  0.92946  0.10304  0.44866  1.0000
  C   C2954     1.0  0.93463  0.11304  0.43589  1.0000
  C   C2955     1.0  0.92482  0.12592  0.43047  1.0000
  C   C2956     1.0  0.58829  0.06868  0.37883  1.0000
  H   H3508     1.0  0.94610  0.11062  0.42989  1.0000
  H   H3509     1.0  0.92872  0.13329  0.42025  1.0000
  C   C2957     1.0  0.56317  0.02057  0.37381  1.0000
  C   C2958     1.0  0.57523  0.02762  0.36758  1.0000
  C   C2959     1.0  0.58835  0.02246  0.37314  1.0000
  C   C2960     1.0  0.58943  0.01027  0.38505  1.0000
  C   C2961     1.0  0.57741  0.00319  0.39120  1.0000
  C   C2962     1.0  0.56436  0.00826  0.38556  1.0000
  H   H3510     1.0  0.57443  0.03712  0.35844  1.0000
  H   H3511     1.0  0.59753  0.02801  0.36832  1.0000
  H   H3512     1.0  0.69122  0.99961  0.08311  1.0000
  H   H3513     1.0  0.55516  0.00275  0.39046  1.0000
  C   C2963     1.0  0.53305  0.05191  0.26795  1.0000
  C   C2964     1.0  0.53872  0.06427  0.26633  1.0000
  C   C2965     1.0  0.55285  0.06533  0.25740  1.0000
  C   C2966     1.0  0.56128  0.05402  0.25016  1.0000
  C   C2967     1.0  0.55583  0.04141  0.25218  1.0000
  C   C2968     1.0  0.54158  0.04044  0.26093  1.0000
  H   H3514     1.0  0.53210  0.07311  0.27182  1.0000
  H   H3515     1.0  0.55718  0.07495  0.25603  1.0000
  H   H3516     1.0  0.56249  0.03254  0.24679  1.0000
  H   H3517     1.0  0.53722  0.03084  0.26223  1.0000
  H   H3518     1.0  0.49686  0.01592  0.21550  1.0000
  H   H3519     1.0  0.66658  0.06537  0.04919  1.0000
  H   H3520     1.0  0.50075  0.02253  0.00093  1.0000
  H   H3521     1.0  0.62491  0.01063  0.19901  1.0000
  H   H3522     1.0  0.49840  0.98693  0.30429  1.0000
  H   H3523     1.0  0.50358  0.05155  0.34383  1.0000
  C   C2969     1.0  0.69964  0.04116  0.36831  1.0000
  C   C2970     1.0  0.58358  0.08638  0.19589  1.0000
  C   C2971     1.0  0.71162  0.02132  0.12307  1.0000
  C   C2972     1.0  0.65341  0.99520  0.32343  1.0000
  C   C2973     1.0  0.97871  0.13134  0.40536  1.0000
  H   H3524     1.0  0.89770  0.01367  0.36118  1.0000
  C   C2974     1.0  0.57004  0.10849  0.15637  1.0000
  C   C2975     1.0  0.56306  0.12302  0.15075  1.0000
  C   C2976     1.0  0.57113  0.13423  0.14576  1.0000
  C   C2977     1.0  0.58615  0.13094  0.14652  1.0000
  C   C2978     1.0  0.59329  0.11630  0.15158  1.0000
  C   C2979     1.0  0.58525  0.10507  0.15647  1.0000
  H   H3525     1.0  0.55145  0.12566  0.15021  1.0000
  H   H3526     1.0  0.56568  0.14546  0.14148  1.0000
  H   H3527     1.0  0.60507  0.11356  0.15142  1.0000
  H   H3528     1.0  0.59082  0.09377  0.16035  1.0000
  C   C2980     1.0  0.93867  0.00725  0.34702  1.0000
  H   H3529     1.0  0.49589  0.04807  0.16567  1.0000
  C   C2981     1.0  0.68925  0.04950  0.02111  1.0000
  H   H3530     1.0  0.57872  0.12178  0.19894  1.0000
  N   N194      1.0  0.92841  0.00211  0.36103  1.0000
  H   H3531     1.0  0.59470  0.11124  0.18866  1.0000
  H   H3532     1.0  0.51436  0.09805  0.10155  1.0000
  S   S824      1.0  0.81906  0.07229  0.47686  1.0000
  H   H3533     1.0  0.49708  0.04237  0.21074  1.0000
  C   C2982     1.0  0.70823  0.05250  0.38284  1.0000
  C   C2983     1.0  0.90240  0.00308  0.35817  1.0000
  H   H3534     1.0  0.64387  0.03658  0.15118  1.0000
  H   H3535     1.0  0.72861  0.99800  0.10665  1.0000
  S   S825      1.0  0.97982  0.07678  0.39300  1.0000
  H   H3536     1.0  0.71898  0.02179  0.07274  1.0000
  S   S826      1.0  0.78012  0.99010  0.38607  1.0000
  H   H3537     1.0  0.58786  0.08369  0.22259  1.0000
  C   C2984     1.0  0.88808  0.05829  0.42588  1.0000
  H   H3538     1.0  0.71208  0.14133  0.14829  1.0000
  C   C2985     1.0  0.59778  0.09177  0.00016  1.0000
  H   H3539     1.0  0.70244  0.02591  0.11752  1.0000
  H   H3540     1.0  0.90817  0.02132  0.42851  1.0000
  H   H3541     1.0  0.51820  0.01344  0.15995  1.0000
  H   H3542     1.0  0.65642  0.02356  0.31476  1.0000
  S   S827      1.0  0.99396  0.16671  0.40469  1.0000
  H   H3543     1.0  0.67671  0.00780  0.16064  1.0000
  N   N195      1.0  0.49889  0.14353  0.09966  1.0000
  C   C2986     1.0  0.66129  0.05443  0.16697  1.0000
  H   H3544     1.0  0.67577  0.16998  0.14808  1.0000
  H   H3545     1.0  0.92449  0.15573  0.39720  1.0000
  C   C2987     1.0  0.69745  0.05235  0.37577  1.0000
  C   C2988     1.0  0.53183  0.10534  0.22324  1.0000
  C   C2989     1.0  0.55871  0.05440  0.29752  1.0000
  C   C2990     1.0  0.68764  0.12112  0.00169  1.0000
  S   S828      1.0  0.72822  0.03872  0.09990  1.0000
  C   C2991     1.0  0.71026  0.01023  0.13620  1.0000
  H   H3546     1.0  0.70982  0.14860  0.12961  1.0000
  H   H3547     1.0  0.50183  0.99634  0.17552  1.0000
  H   H3548     1.0  0.53930  0.08119  0.19799  1.0000
  H   H3549     1.0  0.49728  0.15496  0.16631  1.0000
  C   C2992     1.0  0.77272  0.15177  0.05075  1.0000
  C   C2993     1.0  0.75280  0.14432  0.04569  1.0000
  H   H3550     1.0  0.91282  0.01185  0.37853  1.0000
  C   C2994     1.0  0.75642  0.15172  0.03093  1.0000
  H   H3551     1.0  0.82158  0.00495  0.44782  1.0000
  C   C2995     1.0  0.83442  0.14787  0.46876  1.0000
  H   H3552     1.0  0.69100  0.01172  0.09431  1.0000
  C   C2996     1.0  0.56720  0.05537  0.30666  1.0000
  H   H3553     1.0  0.57109  0.03119  0.42508  1.0000
  H   H3554     1.0  0.54702  0.06547  0.18960  1.0000
  H   H3555     1.0  0.56478  0.04811  0.21698  1.0000
  C   C2997     1.0  0.49670  0.99908  0.45623  1.0000
  C   C2998     1.0  0.75490  0.14603  0.08170  1.0000
  H   H3556     1.0  0.66919  0.05809  0.15715  1.0000
  H   H3557     1.0  0.78108  0.12816  0.07293  1.0000
  C   C2999     1.0  0.55943  0.01426  0.21946  1.0000
  H   H3558     1.0  0.67785  0.00459  0.32010  1.0000
  H   H3559     1.0  0.75005  0.15184  0.02318  1.0000
  Fe  Fe416     1.0  0.51132  0.12947  0.15264  1.0000
  C   C3000     1.0  0.69356  0.00953  0.20341  1.0000
  H   H3560     1.0  0.52857  0.99965  0.31432  1.0000
  C   C3001     1.0  0.86604  0.09975  0.47624  1.0000
  H   H3561     1.0  0.67153  0.03591  0.23180  1.0000
  C   C3002     1.0  0.54481  0.01814  0.21754  1.0000
  S   S829      1.0  0.64487  0.17585  0.15092  1.0000
  C   C3003     1.0  0.56429  0.99191  0.34471  1.0000
  H   H3562     1.0  0.69072  0.12964  0.00470  1.0000
  H   H3563     1.0  0.95078  0.15632  0.39462  1.0000
  H   H3564     1.0  0.86424  0.10546  0.46530  1.0000
  C   C3004     1.0  0.53720  0.03298  0.21514  1.0000
  H   H3565     1.0  0.67584  0.09265  0.98837  1.0000
  H   H3566     1.0  0.52754  0.07698  0.22560  1.0000
  C   C3005     1.0  0.80995  0.00697  0.43107  1.0000
  H   H3567     1.0  0.56373  0.05445  0.28595  1.0000
  H   H3568     1.0  0.50130  0.18188  0.12223  1.0000
  C   C3006     1.0  0.67902  0.10062  0.99219  1.0000
  S   S830      1.0  0.89750  0.98616  0.39454  1.0000
  C   C3007     1.0  0.77076  0.99420  0.42522  1.0000
  S   S831      1.0  0.86537  0.99005  0.41931  1.0000
  C   C3008     1.0  0.60857  0.02779  0.41763  1.0000
  C   C3009     1.0  0.59095  0.04741  0.40562  1.0000
  C   C3010     1.0  0.59865  0.05914  0.40069  1.0000
  C   C3011     1.0  0.58194  0.04674  0.39643  1.0000
  C   C3012     1.0  0.58067  0.05727  0.38328  1.0000
  H   H3569     1.0  0.61151  0.02207  0.40836  1.0000
  H   H3570     1.0  0.61666  0.03496  0.41514  1.0000
  H   H3571     1.0  0.57601  0.03801  0.39895  1.0000
  H   H3572     1.0  0.59099  0.08970  0.99362  1.0000
  N   N196      1.0  0.78539  0.06123  0.41781  1.0000
  C   C3013     1.0  0.79769  0.06795  0.41754  1.0000
  C   C3014     1.0  0.79002  0.05020  0.40844  1.0000
  C   C3015     1.0  0.80480  0.04658  0.39990  1.0000
  C   C3016     1.0  0.77953  0.04276  0.40759  1.0000
  C   C3017     1.0  0.50097  0.08195  0.10696  1.0000
  H   H3573     1.0  0.72357  0.00054  0.37850  1.0000
  C   C3018     1.0  0.77804  0.99402  0.45135  1.0000
  H   H3574     1.0  0.80200  0.07416  0.40626  1.0000
  H   H3575     1.0  0.79396  0.07591  0.42496  1.0000
  H   H3576     1.0  0.80709  0.05940  0.42158  1.0000
  H   H3577     1.0  0.77764  0.06153  0.44104  1.0000
  H   H3578     1.0  0.81368  0.05141  0.39997  1.0000
  H   H3579     1.0  0.76822  0.04471  0.41403  1.0000
  C   C3019     1.0  0.49571  0.04074  0.17645  1.0000
  N   N197      1.0  0.75784  0.13588  0.07167  1.0000
  H   H3580     1.0  0.55870  0.16720  0.15409  1.0000
  N   N198      1.0  0.65611  0.12288  0.09385  1.0000
  C   C3020     1.0  0.66748  0.11174  0.10127  1.0000
  C   C3021     1.0  0.66105  0.12383  0.07767  1.0000
  C   C3022     1.0  0.65560  0.13746  0.09653  1.0000
  C   C3023     1.0  0.64162  0.11832  0.09939  1.0000
  C   C3024     1.0  0.62866  0.12674  0.10726  1.0000
  C   C3025     1.0  0.64020  0.10496  0.09701  1.0000
  C   C3026     1.0  0.61518  0.12204  0.11224  1.0000
  C   C3027     1.0  0.62670  0.10031  0.10216  1.0000
  C   C3028     1.0  0.61421  0.10884  0.10978  1.0000
  H   H3581     1.0  0.66932  0.10059  0.09908  1.0000
  H   H3582     1.0  0.67851  0.11484  0.09758  1.0000
  H   H3583     1.0  0.66407  0.11061  0.11344  1.0000
  H   H3584     1.0  0.67125  0.12843  0.07285  1.0000
  H   H3585     1.0  0.65220  0.13108  0.07181  1.0000
  H   H3586     1.0  0.66403  0.11282  0.07482  1.0000
  H   H3587     1.0  0.65273  0.13728  0.10857  1.0000
  H   H3588     1.0  0.66667  0.14057  0.09207  1.0000
  H   H3589     1.0  0.64740  0.14644  0.09105  1.0000
  H   H3590     1.0  0.62859  0.13695  0.10984  1.0000
  H   H3591     1.0  0.64966  0.09774  0.09151  1.0000
  H   H3592     1.0  0.62610  0.08981  0.10060  1.0000
  H   H3593     1.0  0.60380  0.10512  0.11398  1.0000
  H   H3594     1.0  0.57784  0.02217  0.22070  1.0000
  H   H3595     1.0  0.54337  0.17332  0.13832  1.0000
  C   C3029     1.0  0.58311  0.02551  0.42370  1.0000
  C   C3030     1.0  0.55234  0.10569  0.20180  1.0000
  Fe  Fe417     1.0  0.88596  0.15753  0.44772  1.0000
  C   C3031     1.0  0.56303  0.10068  0.21079  1.0000
  H   H3596     1.0  0.68296  0.98805  0.31338  1.0000
  H   H3597     1.0  0.52586  0.03510  0.21392  1.0000
  H   H3598     1.0  0.56465  0.09358  0.23406  1.0000
  H   H3599     1.0  0.53792  0.09778  0.24430  1.0000
  H   H3600     1.0  0.89351  0.12205  0.45720  1.0000
  C   C3032     1.0  0.69715  0.00753  0.08414  1.0000
  C   C3033     1.0  0.54200  0.10006  0.23241  1.0000
  H   H3601     1.0  0.68998  0.08397  0.00768  1.0000
  C   C3034     1.0  0.76814  0.15903  0.02607  1.0000
  H   H3602     1.0  0.62335  0.08607  0.00851  1.0000
  H   H3603     1.0  0.65468  0.99886  0.33288  1.0000
  C   C3035     1.0  0.56039  0.00550  0.31961  1.0000
  C   C3036     1.0  0.56419  0.01500  0.30560  1.0000
  H   H3604     1.0  0.92938  0.01895  0.37137  1.0000
  C   C3037     1.0  0.55545  0.01875  0.29511  1.0000
  H   H3605     1.0  0.54353  0.99264  0.33268  1.0000
  C   C3038     1.0  0.78391  0.14018  0.44213  1.0000
  H   H3606     1.0  0.60353  0.07826  0.38384  1.0000
  H   H3607     1.0  0.71146  0.00521  0.18470  1.0000
  C   C3039     1.0  0.50837  0.02004  0.15519  1.0000
  C   C3040     1.0  0.90842  0.03262  0.46507  1.0000
  Fe  Fe418     1.0  0.85627  0.16920  0.46648  1.0000
  H   H3608     1.0  0.68277  0.01847  0.16944  1.0000
  H   H3609     1.0  0.55866  0.02208  0.33792  1.0000
  C   C3041     1.0  0.67758  0.00000  0.31082  1.0000
  C   C3042     1.0  0.62037  0.08487  0.98236  1.0000
  H   H3610     1.0  0.57394  0.01969  0.30268  1.0000
  H   H3611     1.0  0.75857  0.04574  0.47216  1.0000
  H   H3612     1.0  0.55860  0.02604  0.28450  1.0000
  C   C3043     1.0  0.57016  0.01575  0.33414  1.0000
  H   H3613     1.0  0.53577  0.01636  0.29017  1.0000
  H   H3614     1.0  0.89327  0.04806  0.42217  1.0000
  H   H3615     1.0  0.71249  0.11832  0.01301  1.0000
  H   H3616     1.0  0.59564  0.08456  0.19029  1.0000
  H   H3617     1.0  0.65289  0.03394  0.22024  1.0000
  C   C3044     1.0  0.70581  0.11213  0.02297  1.0000
  H   H3618     1.0  0.76428  0.08468  0.45835  1.0000
  C   C3045     1.0  0.56078  0.17713  0.15542  1.0000
  H   H3619     1.0  0.68459  0.00559  0.30068  1.0000
  H   H3620     1.0  0.64122  0.99800  0.32383  1.0000
  H   H3621     1.0  0.55575  0.10783  0.18987  1.0000
  H   H3622     1.0  0.70603  0.00974  0.34668  1.0000
  C   C3046     1.0  0.58251  0.11227  0.19339  1.0000
  C   C3047     1.0  0.68056  0.03519  0.20205  1.0000
  H   H3623     1.0  0.63164  0.09956  0.99445  1.0000
  C   C3048     1.0  0.71447  0.00352  0.37242  1.0000
  H   H3624     1.0  0.63259  0.04366  0.20314  1.0000
  H   H3625     1.0  0.60627  0.06000  0.40668  1.0000
  H   H3626     1.0  0.77379  0.11618  0.06689  1.0000
  N   N199      1.0  0.66363  0.03010  0.16006  1.0000
  H   H3627     1.0  0.50617  0.02639  0.04418  1.0000
  H   H3628     1.0  0.50841  0.01538  0.14585  1.0000
  C   C3049     1.0  0.62791  0.00377  0.22146  1.0000
  H   H3629     1.0  0.68196  0.10002  0.03746  1.0000
  H   H3630     1.0  0.58157  0.07576  0.20358  1.0000
  H   H3631     1.0  0.61792  0.17979  0.17397  1.0000
  H   H3632     1.0  0.73944  0.01149  0.35616  1.0000
  H   H3633     1.0  0.67222  0.04399  0.20651  1.0000
  H   H3634     1.0  0.61058  0.01916  0.42770  1.0000
  H   H3635     1.0  0.53926  0.00953  0.21814  1.0000
  H   H3636     1.0  0.69149  0.17005  0.13304  1.0000
  H   H3637     1.0  0.73145  0.02563  0.34213  1.0000
  S   S832      1.0  0.67585  0.17186  0.01665  1.0000
  N   N200      1.0  0.67205  0.01637  0.22465  1.0000
  H   H3638     1.0  0.69245  0.01929  0.35946  1.0000
  H   H3639     1.0  0.71477  0.98525  0.07162  1.0000
  H   H3640     1.0  0.50625  0.16412  0.08931  1.0000
  S   S833      1.0  0.72623  0.17290  0.10194  1.0000
  H   H3641     1.0  0.53769  0.05238  0.29584  1.0000
  C   C3050     1.0  0.59725  0.06963  0.38753  1.0000
  H   H3642     1.0  0.51395  0.06527  0.30378  1.0000
  C   C3051     1.0  0.65123  0.02641  0.15636  1.0000
  C   C3052     1.0  0.65745  0.04050  0.17013  1.0000
  C   C3053     1.0  0.91762  0.99569  0.35777  1.0000
  H   H3643     1.0  0.88091  0.00249  0.35561  1.0000
  S   S834      1.0  0.71823  0.17264  0.07076  1.0000
  H   H3644     1.0  0.74480  0.00471  0.14274  1.0000
  N   N201      1.0  0.52103  0.05230  0.32390  1.0000
  H   H3645     1.0  0.71557  0.01868  0.09236  1.0000
  H   H3646     1.0  0.69952  0.99327  0.42163  1.0000
  H   H3647     1.0  0.55613  0.06899  0.20175  1.0000
  C   C3054     1.0  0.67439  0.02361  0.23522  1.0000
  H   H3648     1.0  0.62468  0.07422  0.98968  1.0000
  H   H3649     1.0  0.73444  0.13769  0.07374  1.0000
  H   H3650     1.0  0.53222  0.17286  0.15699  1.0000
  H   H3651     1.0  0.52887  0.05834  0.23615  1.0000
  H   H3652     1.0  0.57627  0.01354  0.34307  1.0000
  H   H3653     1.0  0.51404  0.15367  0.10448  1.0000
  H   H3654     1.0  0.86697  0.05209  0.43635  1.0000
  Fe  Fe419     1.0  0.50771  0.09805  0.15872  1.0000
  N   N202      1.0  0.79253  0.14904  0.44542  1.0000
  N   N203      1.0  0.90992  0.01300  0.45132  1.0000
  C   C3055     1.0  0.90161  0.01679  0.43946  1.0000
  Fe  Fe420     1.0  0.50458  0.99962  0.39648  1.0000
  C   C3056     1.0  0.98711  0.15441  0.39917  1.0000
  C   C3057     1.0  0.91381  0.02646  0.45230  1.0000
  H   H3655     1.0  0.95705  0.17238  0.40613  1.0000
  C   C3058     1.0  0.92335  0.03384  0.44016  1.0000
  H   H3656     1.0  0.52157  0.05940  0.19966  1.0000
  C   C3059     1.0  0.92764  0.04628  0.44084  1.0000
  H   H3657     1.0  0.80084  0.02193  0.38279  1.0000
  C   C3060     1.0  0.50004  0.16693  0.14362  1.0000
  H   H3658     1.0  0.68163  0.10482  0.18080  1.0000
  C   C3061     1.0  0.49597  0.16575  0.15890  1.0000
  C   C3062     1.0  0.94534  0.17271  0.40768  1.0000
  S   S835      1.0  0.87316  0.14793  0.46966  1.0000
  S   S836      1.0  0.89876  0.16715  0.45731  1.0000
  H   H3659     1.0  0.84716  0.99679  0.39539  1.0000
  H   H3660     1.0  0.81991  0.03383  0.38437  1.0000
  H   H3661     1.0  0.68167  0.13496  0.13603  1.0000
  C   C3063     1.0  0.53439  0.17987  0.14563  1.0000
  H   H3662     1.0  0.69566  0.99793  0.20867  1.0000
  H   H3663     1.0  0.82736  0.99066  0.38729  1.0000
  H   H3664     1.0  0.98407  0.14012  0.42090  1.0000
  C   C3064     1.0  0.91564  0.17201  0.41052  1.0000
  N   N204      1.0  0.68920  0.14822  0.14607  1.0000
  C   C3065     1.0  0.70522  0.14187  0.14049  1.0000
  C   C3066     1.0  0.68030  0.14668  0.13646  1.0000
  C   C3067     1.0  0.68763  0.16430  0.14468  1.0000
  C   C3068     1.0  0.68422  0.14011  0.16139  1.0000
  C   C3069     1.0  0.68556  0.12456  0.16451  1.0000
  H   H3665     1.0  0.79240  0.16328  0.42374  1.0000
  C   C3070     1.0  0.68095  0.11660  0.17884  1.0000
  N   N205      1.0  0.53624  0.06024  0.21265  1.0000
  C   C3071     1.0  0.92374  0.00165  0.44770  1.0000
  H   H3666     1.0  0.78511  0.16516  0.03223  1.0000
  C   C3072     1.0  0.67734  0.18003  0.03010  1.0000
  H   H3667     1.0  0.65422  0.01709  0.21480  1.0000
  S   S837      1.0  0.69767  0.16053  0.97994  1.0000
  H   H3668     1.0  0.59069  0.00184  0.31437  1.0000
  C   C3073     1.0  0.49633  0.02287  0.20461  1.0000
  H   H3669     1.0  0.69436  0.16630  0.15133  1.0000
  C   C3074     1.0  0.49976  0.08105  0.13653  1.0000
  C   C3075     1.0  0.51045  0.15252  0.09491  1.0000
  H   H3670     1.0  0.68984  0.11847  0.15580  1.0000
  C   C3076     1.0  0.53692  0.05320  0.31830  1.0000
  S   S838      1.0  0.72159  0.99036  0.15962  1.0000
  C   C3077     1.0  0.72247  0.98955  0.10851  1.0000
  H   H3671     1.0  0.68333  0.03844  0.14749  1.0000
  C   C3078     1.0  0.68983  0.03912  0.18820  1.0000
  H   H3672     1.0  0.91883  0.07924  0.42734  1.0000
  C   C3079     1.0  0.68208  0.02024  0.21005  1.0000
  C   C3080     1.0  0.73550  0.00928  0.13730  1.0000
  C   C3081     1.0  0.67933  0.12588  0.99073  1.0000
  S   S839      1.0  0.51926  0.09068  0.17746  1.0000
  C   C3082     1.0  0.77099  0.12383  0.07451  1.0000
  C   C3083     1.0  0.88951  0.10885  0.42648  1.0000
  H   H3673     1.0  0.69976  0.04175  0.01858  1.0000
  H   H3674     1.0  0.52411  0.18208  0.14140  1.0000
  H   H3675     1.0  0.81065  0.13038  0.44891  1.0000
  C   C3084     1.0  0.68726  0.09575  0.00318  1.0000
  H   H3676     1.0  0.68569  0.99561  0.23372  1.0000
  H   H3677     1.0  0.90413  0.17156  0.41177  1.0000
  C   C3085     1.0  0.67324  0.03606  0.14584  1.0000
  C   C3086     1.0  0.57337  0.17526  0.16098  1.0000
  H   H3678     1.0  0.72935  0.04138  0.38847  1.0000
  N   N206      1.0  0.71308  0.00083  0.08463  1.0000
  C   C3087     1.0  0.92710  0.16309  0.40229  1.0000
  C   C3088     1.0  0.54506  0.06929  0.19998  1.0000
  C   C3089     1.0  0.63614  0.99351  0.23133  1.0000
  C   C3090     1.0  0.87329  0.06058  0.43379  1.0000
  H   H3679     1.0  0.51296  0.09756  0.12772  1.0000
  S   S840      1.0  0.89738  0.14431  0.43055  1.0000
  H   H3680     1.0  0.65543  0.01882  0.14856  1.0000
  H   H3681     1.0  0.51307  0.07578  0.31680  1.0000
  C   C3091     1.0  0.89252  0.99672  0.35499  1.0000
  H   H3682     1.0  0.74354  0.13897  0.04863  1.0000
  H   H3683     1.0  0.66643  0.01120  0.17826  1.0000
  H   H3684     1.0  0.94510  0.99802  0.34143  1.0000
  C   C3092     1.0  0.67496  0.12382  0.19051  1.0000
  C   C3093     1.0  0.53447  0.06552  0.22617  1.0000
  N   N207      1.0  0.66208  0.00222  0.30913  1.0000
  N   N208      1.0  0.73028  0.98623  0.42087  1.0000
  C   C3094     1.0  0.93387  0.18195  0.41619  1.0000
  H   H3685     1.0  0.67605  0.15900  0.17219  1.0000
  H   H3686     1.0  0.57583  0.02317  0.32452  1.0000
  C   C3095     1.0  0.49544  0.03231  0.05009  1.0000
  C   C3096     1.0  0.65569  0.01836  0.30611  1.0000
  H   H3687     1.0  0.57394  0.05637  0.37634  1.0000
  C   C3097     1.0  0.67793  0.14719  0.17352  1.0000
  H   H3688     1.0  0.51629  0.06255  0.34241  1.0000
  H   H3689     1.0  0.91551  0.02458  0.36072  1.0000
  S   S841      1.0  0.64849  0.99111  0.18282  1.0000
  H   H3690     1.0  0.68366  0.15272  0.12484  1.0000
  H   H3691     1.0  0.77088  0.16471  0.01459  1.0000
  S   S842      1.0  0.49718  0.10970  0.20837  1.0000
  H   H3692     1.0  0.58031  0.16427  0.16363  1.0000
  C   C3098     1.0  0.89623  0.06922  0.42256  1.0000
  H   H3693     1.0  0.70708  0.13053  0.13870  1.0000
  C   C3099     1.0  0.50437  0.12983  0.11020  1.0000
  C   C3100     1.0  0.69127  0.17885  0.03294  1.0000
  H   H3694     1.0  0.93725  0.17533  0.44383  1.0000
  H   H3695     1.0  0.66843  0.14470  0.19691  1.0000
  H   H3696     1.0  0.82563  0.04177  0.47330  1.0000
  H   H3697     1.0  0.58457  0.01748  0.43427  1.0000
  H   H3698     1.0  0.67741  0.02806  0.13846  1.0000
  H   H3699     1.0  0.97575  0.12177  0.41349  1.0000
  C   C3101     1.0  0.63131  0.00274  0.20662  1.0000
  H   H3700     1.0  0.73267  0.00913  0.08219  1.0000
  C   C3102     1.0  0.86660  0.07385  0.43837  1.0000
  H   H3701     1.0  0.77001  0.08236  0.41896  1.0000
  H   H3702     1.0  0.60542  0.12862  0.11820  1.0000
  H   H3703     1.0  0.56519  0.00271  0.22147  1.0000
  S   S843      1.0  0.97757  0.09009  0.42197  1.0000
  S   S844      1.0  0.96587  0.05935  0.42652  1.0000
  C   C3103     1.0  0.87458  0.08495  0.43491  1.0000
  H   H3704     1.0  0.60093  0.09325  0.20920  1.0000
  H   H3705     1.0  0.65118  0.07656  0.03036  1.0000
  S   S845      1.0  0.49626  0.99463  0.37922  1.0000
  C   C3104     1.0  0.78833  0.15042  0.46103  1.0000
  H   H3706     1.0  0.77923  0.15230  0.05802  1.0000
  H   H3707     1.0  0.66689  0.04629  0.13963  1.0000
  H   H3708     1.0  0.52902  0.11204  0.20093  1.0000
  H   H3709     1.0  0.77515  0.02726  0.39789  1.0000
  H   H3710     1.0  0.85279  0.12870  0.44181  1.0000
  H   H3711     1.0  0.70341  0.02946  0.34340  1.0000
  H   H3712     1.0  0.71197  0.00093  0.43239  1.0000
  H   H3713     1.0  0.59757  0.05058  0.43053  1.0000
  H   H3714     1.0  0.76279  0.06967  0.41422  1.0000
  C   C3105     1.0  0.77975  0.05408  0.43337  1.0000
  H   H3715     1.0  0.69599  0.12008  0.02785  1.0000
  H   H3716     1.0  0.57808  0.05119  0.43288  1.0000
  H   H3717     1.0  0.70623  0.06089  0.38906  1.0000
  Fe  Fe421     1.0  0.50800  0.01073  0.25791  1.0000
  C   C3106     1.0  0.58942  0.04378  0.43188  1.0000
  Fe  Fe422     1.0  0.78246  0.09893  0.46759  1.0000
  H   H3718     1.0  0.51346  0.05749  0.21932  1.0000
  C   C3107     1.0  0.72355  0.03016  0.37513  1.0000
  C   C3108     1.0  0.55897  0.04008  0.21673  1.0000
  S   S846      1.0  0.50766  0.15113  0.13617  1.0000
  C   C3109     1.0  0.77323  0.07343  0.41270  1.0000
  C   C3110     1.0  0.70377  0.01911  0.35217  1.0000
  H   H3719     1.0  0.71549  0.99385  0.36782  1.0000
  C   C3111     1.0  0.54262  0.01328  0.29827  1.0000
  H   H3720     1.0  0.54192  0.05355  0.33911  1.0000
  C   C3112     1.0  0.73561  0.99919  0.41056  1.0000
  H   H3721     1.0  0.90777  0.06679  0.41668  1.0000
  H   H3722     1.0  0.64369  0.02092  0.30587  1.0000
  H   H3723     1.0  0.89620  0.10070  0.40009  1.0000
  S   S847      1.0  0.52363  0.99283  0.24681  1.0000
  H   H3724     1.0  0.51989  0.10723  0.22793  1.0000
  C   C3113     1.0  0.79514  0.15910  0.46572  1.0000
  H   H3725     1.0  0.64398  0.02624  0.18696  1.0000
  C   C3114     1.0  0.83566  0.12179  0.46041  1.0000
  H   H3726     1.0  0.52707  0.02877  0.32599  1.0000
  H   H3727     1.0  0.78794  0.04390  0.43722  1.0000
  C   C3115     1.0  0.73003  0.01518  0.35040  1.0000
  H   H3728     1.0  0.63929  0.06795  0.19681  1.0000
  C   C3116     1.0  0.72513  0.02603  0.11693  1.0000
  H   H3729     1.0  0.70130  0.17280  0.02684  1.0000
  C   C3117     1.0  0.55739  0.09772  0.22635  1.0000
  C   C3118     1.0  0.98579  0.15666  0.38461  1.0000
  H   H3730     1.0  0.57875  0.05624  0.30219  1.0000
  H   H3731     1.0  0.59061  0.10040  0.00627  1.0000
  S   S848      1.0  0.59826  0.02375  0.26597  1.0000
  H   H3732     1.0  0.77665  0.07853  0.40078  1.0000
  C   C3119     1.0  0.56652  0.02522  0.21899  1.0000
  C   C3120     1.0  0.67442  0.00020  0.23116  1.0000
  N   N209      1.0  0.71517  0.01718  0.36071  1.0000
  H   H3733     1.0  0.66156  0.02405  0.29524  1.0000
  C   C3121     1.0  0.56090  0.05501  0.32158  1.0000
  H   H3734     1.0  0.72157  0.09492  0.00353  1.0000
  S   S849      1.0  0.65511  0.07316  0.00101  1.0000
  H   H3735     1.0  0.93087  0.99914  0.45582  1.0000
  H   H3736     1.0  0.76891  0.11716  0.08605  1.0000
  C   C3122     1.0  0.71284  0.02970  0.36773  1.0000
  C   C3123     1.0  0.54382  0.05328  0.30325  1.0000
  Fe  Fe423     1.0  0.98657  0.06841  0.41497  1.0000
  H   H3737     1.0  0.78609  0.12851  0.44848  1.0000
  C   C3124     1.0  0.54599  0.05393  0.32741  1.0000
  H   H3738     1.0  0.73360  0.02157  0.37562  1.0000
  H   H3739     1.0  0.69062  0.04156  0.36344  1.0000
  C   C3125     1.0  0.88964  0.08303  0.42668  1.0000
  H   H3740     1.0  0.58586  0.01868  0.41532  1.0000
  C   C3126     1.0  0.54408  0.04445  0.21468  1.0000
  C   C3127     1.0  0.77620  0.15918  0.03598  1.0000
  C   C3128     1.0  0.84514  0.13125  0.45184  1.0000
  S   S850      1.0  0.52898  0.99121  0.38688  1.0000
  H   H3741     1.0  0.74583  0.15578  0.07908  1.0000
  C   C3129     1.0  0.53857  0.00392  0.31188  1.0000
  H   H3742     1.0  0.81601  0.14782  0.44338  1.0000
  H   H3743     1.0  0.52042  0.03882  0.30960  1.0000
  H   H3744     1.0  0.71296  0.10758  0.03124  1.0000
  H   H3745     1.0  0.93238  0.01574  0.33914  1.0000
  C   C3130     1.0  0.53700  0.10806  0.20799  1.0000
  H   H3746     1.0  0.78646  0.18005  0.06153  1.0000
  H   H3747     1.0  0.89627  0.11746  0.42272  1.0000
  C   C3131     1.0  0.93738  0.99083  0.37108  1.0000
  H   H3748     1.0  0.73976  0.12883  0.44401  1.0000
  H   H3749     1.0  0.66816  0.15109  0.14051  1.0000
  C   C3132     1.0  0.84453  0.14425  0.45600  1.0000
  H   H3750     1.0  0.85169  0.15164  0.44915  1.0000
  C   C3133     1.0  0.82586  0.12517  0.47340  1.0000
  H   H3751     1.0  0.74104  0.00445  0.41590  1.0000
  Fe  Fe424     1.0  0.50587  0.11171  0.18403  1.0000
  H   H3752     1.0  0.66623  0.99765  0.24177  1.0000
  C   C3134     1.0  0.80858  0.03644  0.39083  1.0000
  H   H3753     1.0  0.85507  0.07565  0.44453  1.0000
  C   C3135     1.0  0.68422  0.05284  0.03516  1.0000
  Fe  Fe425     1.0  0.52053  0.98833  0.36862  1.0000
  C   C3136     1.0  0.70279  0.01359  0.18958  1.0000
  H   H3754     1.0  0.58626  0.10321  0.22116  1.0000
  C   C3137     1.0  0.58888  0.09448  0.21476  1.0000
  H   H3755     1.0  0.88941  0.01372  0.46806  1.0000
  H   H3756     1.0  0.67108  0.11765  0.20155  1.0000
  C   C3138     1.0  0.50827  0.09083  0.11038  1.0000
  H   H3757     1.0  0.80340  0.01797  0.43202  1.0000
  H   H3758     1.0  0.68450  0.05326  0.99958  1.0000
  H   H3759     1.0  0.72615  0.00785  0.40672  1.0000
  C   C3139     1.0  0.67276  0.01633  0.16741  1.0000
  H   H3760     1.0  0.74743  0.02353  0.11944  1.0000
  H   H3761     1.0  0.74230  0.12341  0.08749  1.0000
  H   H3762     1.0  0.79982  0.00568  0.41442  1.0000
  H   H3763     1.0  0.57818  0.99374  0.40039  1.0000
  C   C3140     1.0  0.64717  0.03678  0.18366  1.0000
  N   N210      1.0  0.70121  0.10027  0.01943  1.0000
  C   C3141     1.0  0.91076  0.08918  0.43068  1.0000
  H   H3764     1.0  0.94695  0.01229  0.34891  1.0000
  C   C3142     1.0  0.49824  0.18093  0.13407  1.0000
  H   H3765     1.0  0.91069  0.09863  0.46639  1.0000
  H   H3766     1.0  0.65763  0.07494  0.17370  1.0000
  H   H3767     1.0  0.70817  0.03136  0.17127  1.0000
  H   H3768     1.0  0.93518  0.05151  0.43145  1.0000
  C   C3143     1.0  0.70094  0.02833  0.18199  1.0000
  C   C3144     1.0  0.91892  0.18117  0.41751  1.0000
  H   H3769     1.0  0.69593  0.01702  0.07446  1.0000
  C   C3145     1.0  0.71504  0.08965  0.01423  1.0000
  H   H3770     1.0  0.50594  0.99864  0.44667  1.0000
  C   C3146     1.0  0.64310  0.99160  0.20163  1.0000
  C   C3147     1.0  0.74470  0.12910  0.07561  1.0000
  C   C3148     1.0  0.66188  0.06912  0.02770  1.0000
  C   C3149     1.0  0.73699  0.01997  0.12411  1.0000
  C   C3150     1.0  0.76095  0.14405  0.05607  1.0000
  H   H3771     1.0  0.77832  0.17012  0.43853  1.0000
  H   H3772     1.0  0.68844  0.05062  0.18232  1.0000
  H   H3773     1.0  0.61465  0.10518  0.00771  1.0000
  C   C3151     1.0  0.80800  0.00008  0.42110  1.0000
  C   C3152     1.0  0.66113  0.99595  0.29715  1.0000
  C   C3153     1.0  0.90500  0.09760  0.40658  1.0000
  H   H3774     1.0  0.49906  0.16094  0.07122  1.0000
  Fe  Fe426     1.0  0.62161  0.01798  0.25294  1.0000
  H   H3775     1.0  0.91731  0.09774  0.42835  1.0000
  H   H3776     1.0  0.91103  0.10678  0.40319  1.0000
  H   H3777     1.0  0.61882  0.01237  0.22530  1.0000
  H   H3778     1.0  0.87981  0.11336  0.42109  1.0000
  H   H3779     1.0  0.91348  0.08798  0.40299  1.0000
  H   H3780     1.0  0.68708  0.06069  0.37652  1.0000
  H   H3781     1.0  0.90647  0.08633  0.44285  1.0000
  C   C3154     1.0  0.58523  0.99456  0.32434  1.0000
  H   H3782     1.0  0.50844  0.13223  0.11879  1.0000
  H   H3783     1.0  0.59253  0.99151  0.33240  1.0000
  C   C3155     1.0  0.67347  0.13907  0.18785  1.0000
  C   C3156     1.0  0.49500  0.02570  0.17888  1.0000
  S   S851      1.0  0.83322  0.16453  0.47355  1.0000
  H   H3784     1.0  0.68680  0.98495  0.40805  1.0000
  H   H3785     1.0  0.52055  0.14746  0.08740  1.0000
  H   H3786     1.0  0.68516  0.98746  0.28913  1.0000
  C   C3157     1.0  0.51744  0.98670  0.23442  1.0000
  C   C3158     1.0  0.82526  0.13818  0.47757  1.0000
  H   H3787     1.0  0.57161  0.98940  0.35267  1.0000
  H   H3788     1.0  0.90873  0.04956  0.47554  1.0000
  H   H3789     1.0  0.95996  0.18113  0.42447  1.0000
  H   H3790     1.0  0.63488  0.99182  0.28135  1.0000
  C   C3159     1.0  0.49635  0.15035  0.07304  1.0000
  C   C3160     1.0  0.49661  0.03776  0.20191  1.0000
  H   H3791     1.0  0.49681  0.03091  0.06151  1.0000
  C   C3161     1.0  0.67394  0.98875  0.28797  1.0000
  S   S852      1.0  0.69142  0.18037  0.09923  1.0000
  C   C3162     1.0  0.67514  0.11564  0.98590  1.0000
  H   H3792     1.0  0.84979  0.02353  0.47331  1.0000
  H   H3793     1.0  0.78102  0.99398  0.46136  1.0000
  C   C3163     1.0  0.49588  0.98677  0.46790  1.0000
  C   C3164     1.0  0.49637  0.04666  0.18784  1.0000
  H   H3794     1.0  0.72737  0.99392  0.44074  1.0000
  C   C3165     1.0  0.82841  0.98527  0.43903  1.0000
  H   H3795     1.0  0.49676  0.05823  0.18567  1.0000
  C   C3166     1.0  0.91275  0.04513  0.46564  1.0000
  Fe  Fe427     1.0  0.80335  0.98505  0.37226  1.0000
  C   C3167     1.0  0.70629  0.98561  0.41479  1.0000
  H   H3796     1.0  0.85609  0.08201  0.47725  1.0000
  H   H3797     1.0  0.49543  0.00442  0.05082  1.0000
  H   H3798     1.0  0.49541  0.00521  0.19620  1.0000
  H   H3799     1.0  0.49544  0.12376  0.11652  1.0000
  H   H3800     1.0  0.72038  0.09531  0.97803  1.0000
  Fe  Fe428     1.0  0.62607  0.04638  0.67664  1.0000
  S   S853      1.0  0.60924  0.03202  0.68633  1.0000
  S   S854      1.0  0.64635  0.03885  0.65952  1.0000
  Fe  Fe429     1.0  0.61134  0.06617  0.69877  1.0000
  S   S855      1.0  0.59347  0.05346  0.71003  1.0000
  S   S856      1.0  0.60839  0.08593  0.70813  1.0000
  Fe  Fe430     1.0  0.61188  0.03343  0.70813  1.0000
  S   S857      1.0  0.61225  0.01353  0.72690  1.0000
  Fe  Fe431     1.0  0.59236  0.05343  0.68726  1.0000
  S   S858      1.0  0.56943  0.06022  0.68233  1.0000
  S   S859      1.0  0.63010  0.04601  0.69855  1.0000
  S   S860      1.0  0.60889  0.06785  0.67582  1.0000
  Fe  Fe432     1.0  0.71322  0.07548  0.58020  1.0000
  S   S861      1.0  0.72684  0.06152  0.56404  1.0000
  S   S862      1.0  0.72228  0.08977  0.58873  1.0000
  Fe  Fe433     1.0  0.68428  0.06715  0.58174  1.0000
  S   S863      1.0  0.69537  0.05222  0.56578  1.0000
  S   S864      1.0  0.65959  0.07181  0.59204  1.0000
  Fe  Fe434     1.0  0.71370  0.04474  0.57821  1.0000
  S   S865      1.0  0.72552  0.02106  0.58433  1.0000
  Fe  Fe435     1.0  0.70757  0.07025  0.55282  1.0000
  H   H3801     1.0  0.83224  0.14005  0.50758  1.0000
  S   S866      1.0  0.70151  0.05803  0.59545  1.0000
  S   S867      1.0  0.69500  0.08590  0.56774  1.0000
  Fe  Fe436     1.0  0.79269  0.99758  0.65059  1.0000
  C   C3168     1.0  0.67712  0.00593  0.68590  1.0000
  S   S868      1.0  0.81270  0.00531  0.63491  1.0000
  C   C3169     1.0  0.86153  0.08647  0.48293  1.0000
  Fe  Fe437     1.0  0.66819  0.99375  0.77297  1.0000
  H   H3802     1.0  0.62266  0.99173  0.75116  1.0000
  Fe  Fe438     1.0  0.75966  0.00313  0.65213  1.0000
  S   S869      1.0  0.74127  0.02017  0.64311  1.0000
  H   H3803     1.0  0.71034  0.14196  0.95948  1.0000
  S   S870      1.0  0.77290  0.01300  0.66100  1.0000
  Fe  Fe439     1.0  0.81573  0.08311  0.58661  1.0000
  S   S871      1.0  0.83966  0.07474  0.57286  1.0000
  S   S872      1.0  0.78725  0.06358  0.60145  1.0000
  Fe  Fe440     1.0  0.82640  0.11380  0.58126  1.0000
  S   S873      1.0  0.84922  0.10660  0.56790  1.0000
  S   S874      1.0  0.81765  0.13639  0.58619  1.0000
  Fe  Fe441     1.0  0.83746  0.09680  0.55722  1.0000
  S   S875      1.0  0.84152  0.09970  0.53274  1.0000
  Fe  Fe442     1.0  0.84887  0.08544  0.58490  1.0000
  S   S876      1.0  0.86688  0.07416  0.59725  1.0000
  S   S877      1.0  0.81460  0.10584  0.56916  1.0000
  S   S878      1.0  0.82677  0.09332  0.59900  1.0000
  Fe  Fe443     1.0  0.90431  0.99740  0.61352  1.0000
  S   S879      1.0  0.90414  0.00977  0.63010  1.0000
  S   S880      1.0  0.90177  0.01004  0.59066  1.0000
  N   N211      1.0  0.75359  0.03196  0.49402  1.0000
  S   S881      1.0  0.96982  0.16928  0.69406  1.0000
  H   H3804     1.0  0.75008  0.00870  0.51789  1.0000
  S   S882      1.0  0.94508  0.99496  0.63673  1.0000
  C   C3170     1.0  0.54502  0.07178  0.84693  1.0000
  C   C3171     1.0  0.69640  0.99767  0.84071  1.0000
  Fe  Fe444     1.0  0.96709  0.06508  0.64515  1.0000
  S   S883      1.0  0.98752  0.06261  0.62673  1.0000
  S   S884      1.0  0.94721  0.05427  0.65171  1.0000
  Fe  Fe445     1.0  0.97418  0.09154  0.65153  1.0000
  H   H3805     1.0  0.51730  0.16307  0.89414  1.0000
  S   S885      1.0  0.96383  0.10994  0.66384  1.0000
  Fe  Fe446     1.0  0.98169  0.08739  0.62009  1.0000
  S   S886      1.0  0.98266  0.10130  0.59707  1.0000
  C   C3172     1.0  0.68799  0.00891  0.67298  1.0000
  H   H3806     1.0  0.73451  0.09535  0.55486  1.0000
  S   S887      1.0  0.96042  0.08969  0.63718  1.0000
  H   H3807     1.0  0.53271  0.10069  0.69752  1.0000
  C   C3173     1.0  0.57068  0.17584  0.86206  1.0000
  C   C3174     1.0  0.49522  0.02472  0.87143  1.0000
  H   H3808     1.0  0.73490  0.99634  0.60748  1.0000
  C   C3175     1.0  0.70904  0.06583  0.49313  1.0000
  H   H3809     1.0  0.93176  0.14205  0.68839  1.0000
  C   C3176     1.0  0.83216  0.16442  0.60011  1.0000
  C   C3177     1.0  0.66263  0.14250  0.81375  1.0000
  S   S888      1.0  0.65180  0.01527  0.76839  1.0000
  H   H3810     1.0  0.90149  0.11378  0.50233  1.0000
  C   C3178     1.0  0.77184  0.16213  0.94726  1.0000
  S   S889      1.0  0.53766  0.01333  0.67674  1.0000
  Fe  Fe447     1.0  0.59963  0.09240  0.80580  1.0000
  S   S890      1.0  0.60855  0.10567  0.78359  1.0000
  S   S891      1.0  0.57493  0.09568  0.81395  1.0000
  Fe  Fe448     1.0  0.63008  0.07956  0.81287  1.0000
  S   S892      1.0  0.64164  0.09199  0.79157  1.0000
  S   S893      1.0  0.64433  0.06504  0.82835  1.0000
  Fe  Fe449     1.0  0.62242  0.11097  0.79587  1.0000
  S   S894      1.0  0.62361  0.13403  0.79507  1.0000
  Fe  Fe450     1.0  0.62672  0.08522  0.78158  1.0000
  S   S895      1.0  0.63780  0.07365  0.76276  1.0000
  S   S896      1.0  0.61219  0.09901  0.81820  1.0000
  S   S897      1.0  0.61641  0.07134  0.80280  1.0000
  C   C3179     1.0  0.52287  0.00354  0.73306  1.0000
  C   C3180     1.0  0.89595  0.10908  0.49654  1.0000
  S   S898      1.0  0.64432  0.01282  0.92181  1.0000
  H   H3811     1.0  0.53204  0.00189  0.71039  1.0000
  C   C3181     1.0  0.96219  0.06360  0.59426  1.0000
  S   S899      1.0  0.51212  0.14511  0.86911  1.0000
  H   H3812     1.0  0.90383  0.09894  0.49342  1.0000
  S   S900      1.0  0.62019  0.00953  0.86806  1.0000
  S   S901      1.0  0.65223  0.01253  0.88191  1.0000
  Fe  Fe451     1.0  0.67724  0.06140  0.94895  1.0000
  S   S902      1.0  0.65452  0.06401  0.96409  1.0000
  S   S903      1.0  0.68770  0.04100  0.93932  1.0000
  Fe  Fe452     1.0  0.68058  0.09196  0.94857  1.0000
  H   H3813     1.0  0.96030  0.12272  0.63279  1.0000
  S   S904      1.0  0.69149  0.11155  0.93940  1.0000
  H   H3814     1.0  0.57311  0.12649  0.76012  1.0000
  H   H3815     1.0  0.77389  0.07425  0.54431  1.0000
  Fe  Fe453     1.0  0.65028  0.08684  0.94989  1.0000
  S   S905      1.0  0.62880  0.09673  0.94213  1.0000
  S   S906      1.0  0.68771  0.06946  0.96273  1.0000
  S   S907      1.0  0.67215  0.08358  0.93369  1.0000
  C   C3182     1.0  0.80835  0.08118  0.52120  1.0000
  H   H3816     1.0  0.56672  0.02556  0.70964  1.0000
  S   S908      1.0  0.88982  0.15570  0.57040  1.0000
  C   C3183     1.0  0.53763  0.17301  0.90227  1.0000
  Fe  Fe454     1.0  0.91032  0.14502  0.57959  1.0000
  S   S909      1.0  0.91868  0.12049  0.58270  1.0000
  H   H3817     1.0  0.89464  0.11756  0.48621  1.0000
  S   S910      1.0  0.90178  0.15438  0.59991  1.0000
  C   C3184     1.0  0.74776  0.98934  0.71253  1.0000
  C   C3185     1.0  0.72367  0.98959  0.72974  1.0000
  C   C3186     1.0  0.97957  0.15402  0.63736  1.0000
  C   C3187     1.0  0.74596  0.04570  0.51492  1.0000
  H   H3818     1.0  0.75516  0.02612  0.57129  1.0000
  H   H3819     1.0  0.67994  0.17061  0.80941  1.0000
  H   H3820     1.0  0.67854  0.04496  0.90392  1.0000
  S   S911      1.0  0.49795  0.00880  0.67466  1.0000
  H   H3821     1.0  0.81489  0.01973  0.58665  1.0000
  C   C3188     1.0  0.52536  0.00621  0.74551  1.0000
  H   H3822     1.0  0.66790  0.15621  0.83317  1.0000
  H   H3823     1.0  0.70215  0.05158  0.53564  1.0000
  S   S912      1.0  0.60660  0.15837  0.88372  1.0000
  S   S913      1.0  0.63433  0.13404  0.85675  1.0000
  C   C3189     1.0  0.99435  0.12856  0.67920  1.0000
  Fe  Fe455     1.0  0.62056  0.16931  0.89055  1.0000
  S   S914      1.0  0.62240  0.16520  0.91413  1.0000
  C   C3190     1.0  0.56733  0.02576  0.72086  1.0000
  H   H3824     1.0  0.81773  0.14070  0.48766  1.0000
  N   N212      1.0  0.54022  0.08432  0.71577  1.0000
  H   H3825     1.0  0.83686  0.00044  0.67528  1.0000
  H   H3826     1.0  0.67042  0.14368  0.93526  1.0000
  H   H3827     1.0  0.67262  0.17000  0.87093  1.0000
  H   H3828     1.0  0.58123  0.13555  0.82799  1.0000
  C   C3191     1.0  0.95549  0.05558  0.60766  1.0000
  C   C3192     1.0  0.53893  0.08898  0.70010  1.0000
  H   H3829     1.0  0.95773  0.12923  0.68310  1.0000
  H   H3830     1.0  0.61384  0.08237  0.97584  1.0000
  H   H3831     1.0  0.66980  0.08329  0.55768  1.0000
  H   H3832     1.0  0.97526  0.12390  0.61639  1.0000
  H   H3833     1.0  0.94903  0.16750  0.65584  1.0000
  H   H3834     1.0  0.93035  0.13639  0.67291  1.0000
  H   H3835     1.0  0.54224  0.11856  0.74113  1.0000
  S   S915      1.0  0.89232  0.14698  0.49946  1.0000
  H   H3836     1.0  0.71156  0.00657  0.66320  1.0000
  H   H3837     1.0  0.66616  0.05506  0.50402  1.0000
  H   H3838     1.0  0.91080  0.14671  0.66080  1.0000
  C   C3193     1.0  0.56901  0.03253  0.67980  1.0000
  C   C3194     1.0  0.53800  0.03959  0.68245  1.0000
  H   H3839     1.0  0.58611  0.07179  0.65161  1.0000
  C   C3195     1.0  0.52488  0.13461  0.77093  1.0000
  C   C3196     1.0  0.68119  0.99793  0.69951  1.0000
  C   C3197     1.0  0.76472  0.15345  0.94329  1.0000
  H   H3840     1.0  0.76786  0.00992  0.49665  1.0000
  H   H3841     1.0  0.77205  0.02145  0.47883  1.0000
  H   H3842     1.0  0.89195  0.08553  0.51893  1.0000
  Fe  Fe456     1.0  0.63901  0.99784  0.87962  1.0000
  H   H3843     1.0  0.59452  0.15290  0.79999  1.0000
  H   H3844     1.0  0.80415  0.03570  0.59435  1.0000
  C   C3198     1.0  0.81811  0.08882  0.50996  1.0000
  C   C3199     1.0  0.56172  0.15304  0.85636  1.0000
  H   H3845     1.0  0.59761  0.14773  0.95166  1.0000
  H   H3846     1.0  0.49894  0.05803  0.75530  1.0000
  H   H3847     1.0  0.56764  0.12092  0.72653  1.0000
  H   H3848     1.0  0.66945  0.02788  0.89550  1.0000
  H   H3849     1.0  0.68428  0.03593  0.85709  1.0000
  H   H3850     1.0  0.76845  0.10475  0.55990  1.0000
  H   H3851     1.0  0.97279  0.14572  0.59554  1.0000
  H   H3852     1.0  0.52598  0.15617  0.77212  1.0000
  C   C3200     1.0  0.56209  0.09597  0.71091  1.0000
  C   C3201     1.0  0.74167  0.04569  0.53000  1.0000
  C   C3202     1.0  0.62674  0.11583  0.93474  1.0000
  C   C3203     1.0  0.63444  0.12409  0.93854  1.0000
  C   C3204     1.0  0.63257  0.13936  0.93270  1.0000
  C   C3205     1.0  0.62346  0.14636  0.92255  1.0000
  C   C3206     1.0  0.61544  0.13819  0.91906  1.0000
  C   C3207     1.0  0.61702  0.12297  0.92519  1.0000
  H   H3853     1.0  0.64168  0.11880  0.94613  1.0000
  H   H3854     1.0  0.63835  0.14565  0.93593  1.0000
  H   H3855     1.0  0.60780  0.14357  0.91187  1.0000
  H   H3856     1.0  0.61083  0.11670  0.92240  1.0000
  C   C3208     1.0  0.70103  0.11416  0.95123  1.0000
  C   C3209     1.0  0.70228  0.12847  0.95047  1.0000
  C   C3210     1.0  0.70962  0.13090  0.95997  1.0000
  H   H3857     1.0  0.67393  0.07603  0.48484  1.0000
  H   H3858     1.0  0.55927  0.02251  0.74985  1.0000
  H   H3859     1.0  0.57606  0.98854  0.73370  1.0000
  H   H3860     1.0  0.69736  0.13770  0.94269  1.0000
  C   C3211     1.0  0.71527  0.10460  0.97042  1.0000
  C   C3212     1.0  0.69056  0.98819  0.82261  1.0000
  S   S916      1.0  0.76319  0.99737  0.70362  1.0000
  C   C3213     1.0  0.65656  0.02027  0.92684  1.0000
  C   C3214     1.0  0.67151  0.01305  0.92652  1.0000
  C   C3215     1.0  0.68090  0.01932  0.93069  1.0000
  C   C3216     1.0  0.67544  0.03290  0.93509  1.0000
  C   C3217     1.0  0.66048  0.04011  0.93540  1.0000
  C   C3218     1.0  0.65106  0.03374  0.93142  1.0000
  H   H3861     1.0  0.67575  0.00250  0.92331  1.0000
  H   H3862     1.0  0.69243  0.01363  0.93054  1.0000
  H   H3863     1.0  0.65617  0.05061  0.93869  1.0000
  H   H3864     1.0  0.63945  0.03929  0.93191  1.0000
  C   C3219     1.0  0.62616  0.13397  0.81239  1.0000
  C   C3220     1.0  0.62053  0.14675  0.81808  1.0000
  C   C3221     1.0  0.62237  0.14663  0.83202  1.0000
  C   C3222     1.0  0.63036  0.13395  0.84006  1.0000
  C   C3223     1.0  0.63584  0.12111  0.83442  1.0000
  C   C3224     1.0  0.63362  0.12108  0.82068  1.0000
  H   H3865     1.0  0.56825  0.01164  0.67628  1.0000
  C   C3225     1.0  0.60517  0.05409  0.62388  1.0000
  H   H3866     1.0  0.64197  0.11122  0.84058  1.0000
  H   H3867     1.0  0.63811  0.11118  0.81630  1.0000
  C   C3226     1.0  0.56902  0.08116  0.81173  1.0000
  C   C3227     1.0  0.57547  0.06645  0.81747  1.0000
  C   C3228     1.0  0.56962  0.05498  0.81664  1.0000
  C   C3229     1.0  0.55779  0.05827  0.80955  1.0000
  C   C3230     1.0  0.55189  0.07295  0.80329  1.0000
  C   C3231     1.0  0.55728  0.08440  0.80464  1.0000
  H   H3868     1.0  0.58454  0.06399  0.82303  1.0000
  H   H3869     1.0  0.57417  0.04361  0.82154  1.0000
  H   H3870     1.0  0.68256  0.99591  0.72809  1.0000
  H   H3871     1.0  0.55243  0.09577  0.80004  1.0000
  C   C3232     1.0  0.63744  0.04917  0.83751  1.0000
  C   C3233     1.0  0.64740  0.03602  0.84199  1.0000
  C   C3234     1.0  0.64200  0.02352  0.85039  1.0000
  C   C3235     1.0  0.62663  0.02429  0.85494  1.0000
  C   C3236     1.0  0.61663  0.03729  0.85001  1.0000
  C   C3237     1.0  0.62206  0.04975  0.84115  1.0000
  H   H3872     1.0  0.65929  0.03547  0.83912  1.0000
  H   H3873     1.0  0.64980  0.01330  0.85350  1.0000
  H   H3874     1.0  0.60472  0.03787  0.85344  1.0000
  H   H3875     1.0  0.61434  0.05995  0.83768  1.0000
  H   H3876     1.0  0.53298  0.08196  0.69748  1.0000
  S   S917      1.0  0.52410  0.16645  0.83689  1.0000
  H   H3877     1.0  0.69658  0.03810  0.52023  1.0000
  H   H3878     1.0  0.55226  0.14240  0.82141  1.0000
  Fe  Fe457     1.0  0.50407  0.13409  0.85621  1.0000
  C   C3238     1.0  0.54776  0.11230  0.73261  1.0000
  N   N213      1.0  0.67009  0.99407  0.71334  1.0000
  H   H3879     1.0  0.83362  0.13979  0.55143  1.0000
  H   H3880     1.0  0.52607  0.04244  0.68339  1.0000
  C   C3239     1.0  0.83697  0.14420  0.53970  1.0000
  C   C3240     1.0  0.77264  0.03751  0.55880  1.0000
  C   C3241     1.0  0.78602  0.04064  0.55873  1.0000
  S   S918      1.0  0.69153  0.00369  0.85740  1.0000
  C   C3242     1.0  0.51674  0.06858  0.84176  1.0000
  C   C3243     1.0  0.86003  0.17159  0.53711  1.0000
  C   C3244     1.0  0.54940  0.06903  0.71830  1.0000
  H   H3881     1.0  0.77314  0.10543  0.51360  1.0000
  C   C3245     1.0  0.96520  0.10611  0.59245  1.0000
  C   C3246     1.0  0.96188  0.11852  0.58124  1.0000
  C   C3247     1.0  0.94751  0.12313  0.57831  1.0000
  C   C3248     1.0  0.93670  0.11491  0.58612  1.0000
  C   C3249     1.0  0.94022  0.10217  0.59690  1.0000
  C   C3250     1.0  0.95433  0.09800  0.60033  1.0000
  H   H3882     1.0  0.97032  0.12476  0.57506  1.0000
  H   H3883     1.0  0.94491  0.13284  0.56978  1.0000
  H   H3884     1.0  0.93200  0.09565  0.60279  1.0000
  H   H3885     1.0  0.95685  0.08835  0.60892  1.0000
  Fe  Fe458     1.0  0.51937  0.08499  0.77839  1.0000
  C   C3251     1.0  0.74931  0.17575  0.93158  1.0000
  C   C3252     1.0  0.77321  0.10796  0.54823  1.0000
  Fe  Fe459     1.0  0.77060  0.99389  0.68039  1.0000
  H   H3886     1.0  0.95592  0.14123  0.59516  1.0000
  H   H3887     1.0  0.74469  0.02659  0.47845  1.0000
  C   C3253     1.0  0.69670  0.99353  0.69936  1.0000
  N   N214      1.0  0.75727  0.09456  0.54230  1.0000
  C   C3254     1.0  0.73604  0.99603  0.72265  1.0000
  H   H3888     1.0  0.81801  0.09017  0.49853  1.0000
  C   C3255     1.0  0.94575  0.01115  0.64141  1.0000
  C   C3256     1.0  0.95935  0.01568  0.63751  1.0000
  C   C3257     1.0  0.96011  0.02876  0.64078  1.0000
  C   C3258     1.0  0.94728  0.03726  0.64816  1.0000
  C   C3259     1.0  0.93380  0.03249  0.65238  1.0000
  C   C3260     1.0  0.93295  0.01965  0.64880  1.0000
  H   H3889     1.0  0.96931  0.00911  0.63185  1.0000
  H   H3890     1.0  0.97059  0.03225  0.63758  1.0000
  H   H3891     1.0  0.92399  0.03876  0.65853  1.0000
  H   H3892     1.0  0.92248  0.01611  0.65207  1.0000
  C   C3261     1.0  0.82937  0.14416  0.59156  1.0000
  C   C3262     1.0  0.82315  0.15728  0.59660  1.0000
  H   H3893     1.0  0.54656  0.06640  0.83773  1.0000
  C   C3263     1.0  0.70517  0.98762  0.81421  1.0000
  C   C3264     1.0  0.85391  0.14561  0.59310  1.0000
  C   C3265     1.0  0.84476  0.13817  0.59001  1.0000
  C   C3266     1.0  0.55773  0.17001  0.91481  1.0000
  Fe  Fe460     1.0  0.92302  0.99108  0.63601  1.0000
  H   H3894     1.0  0.86580  0.14110  0.59176  1.0000
  H   H3895     1.0  0.84963  0.12797  0.58623  1.0000
  C   C3267     1.0  0.82861  0.09284  0.52825  1.0000
  C   C3268     1.0  0.82816  0.09475  0.51349  1.0000
  C   C3269     1.0  0.87242  0.10594  0.48374  1.0000
  C   C3270     1.0  0.80866  0.07949  0.53597  1.0000
  C   C3271     1.0  0.81880  0.08533  0.53945  1.0000
  H   H3896     1.0  0.83559  0.10074  0.50478  1.0000
  H   H3897     1.0  0.80109  0.07369  0.54470  1.0000
  H   H3898     1.0  0.81919  0.08399  0.55076  1.0000
  C   C3272     1.0  0.87458  0.05610  0.59484  1.0000
  C   C3273     1.0  0.87443  0.04443  0.60725  1.0000
  C   C3274     1.0  0.88174  0.03004  0.60568  1.0000
  C   C3275     1.0  0.88982  0.02735  0.59187  1.0000
  C   C3276     1.0  0.88946  0.03893  0.57932  1.0000
  C   C3277     1.0  0.88170  0.05334  0.58079  1.0000
  H   H3899     1.0  0.86884  0.04651  0.61811  1.0000
  H   H3900     1.0  0.88148  0.02107  0.61526  1.0000
  H   H3901     1.0  0.89560  0.03686  0.56858  1.0000
  H   H3902     1.0  0.88178  0.06238  0.57117  1.0000
  H   H3903     1.0  0.65875  0.08457  0.86976  1.0000
  S   S919      1.0  0.53923  0.06719  0.77221  1.0000
  H   H3904     1.0  0.56755  0.14503  0.89318  1.0000
  H   H3905     1.0  0.51102  0.16910  0.91933  1.0000
  Fe  Fe461     1.0  0.88897  0.99526  0.64554  1.0000
  H   H3906     1.0  0.67499  0.09843  0.49181  1.0000
  H   H3907     1.0  0.50735  0.10392  0.91140  1.0000
  Fe  Fe462     1.0  0.79780  0.08048  0.49228  1.0000
  C   C3278     1.0  0.82730  0.00541  0.64251  1.0000
  C   C3279     1.0  0.82581  0.00283  0.65779  1.0000
  C   C3280     1.0  0.83793  0.00262  0.66346  1.0000
  C   C3281     1.0  0.85159  0.00471  0.65387  1.0000
  C   C3282     1.0  0.85287  0.00761  0.63863  1.0000
  C   C3283     1.0  0.84076  0.00804  0.63295  1.0000
  H   H3908     1.0  0.75060  0.16110  0.90845  1.0000
  H   H3909     1.0  0.86324  0.00949  0.63118  1.0000
  H   H3910     1.0  0.84195  0.01012  0.62113  1.0000
  C   C3284     1.0  0.73255  0.01992  0.59957  1.0000
  C   C3285     1.0  0.73593  0.00643  0.60954  1.0000
  C   C3286     1.0  0.73970  0.00618  0.62267  1.0000
  C   C3287     1.0  0.74000  0.01944  0.62569  1.0000
  C   C3288     1.0  0.73763  0.03269  0.61523  1.0000
  C   C3289     1.0  0.73399  0.03290  0.60218  1.0000
  C   C3290     1.0  0.54659  0.16097  0.89578  1.0000
  H   H3911     1.0  0.97958  0.17612  0.63815  1.0000
  H   H3912     1.0  0.73832  0.04290  0.61733  1.0000
  H   H3913     1.0  0.73201  0.04321  0.59424  1.0000
  C   C3291     1.0  0.74018  0.08230  0.59245  1.0000
  C   C3292     1.0  0.74600  0.08988  0.59913  1.0000
  C   C3293     1.0  0.76039  0.08422  0.60199  1.0000
  C   C3294     1.0  0.76920  0.07117  0.59776  1.0000
  C   C3295     1.0  0.76328  0.06360  0.59114  1.0000
  C   C3296     1.0  0.74880  0.06909  0.58856  1.0000
  H   H3914     1.0  0.73928  0.10001  0.60236  1.0000
  H   H3915     1.0  0.76444  0.08978  0.60782  1.0000
  H   H3916     1.0  0.76989  0.05351  0.58792  1.0000
  H   H3917     1.0  0.74441  0.06315  0.58344  1.0000
  H   H3918     1.0  0.54534  0.06291  0.85716  1.0000
  H   H3919     1.0  0.63077  0.06672  0.64341  1.0000
  H   H3920     1.0  0.58096  0.02970  0.67874  1.0000
  C   C3297     1.0  0.62308  0.01399  0.73860  1.0000
  C   C3298     1.0  0.62830  0.02667  0.73678  1.0000
  C   C3299     1.0  0.63724  0.02691  0.74590  1.0000
  C   C3300     1.0  0.64091  0.01452  0.75693  1.0000
  C   C3301     1.0  0.63567  0.00182  0.75884  1.0000
  C   C3302     1.0  0.62671  0.00156  0.74968  1.0000
  H   H3921     1.0  0.62511  0.03649  0.72868  1.0000
  H   H3922     1.0  0.64128  0.03673  0.74445  1.0000
  H   H3923     1.0  0.72251  0.15055  0.93142  1.0000
  H   H3924     1.0  0.74626  0.14322  0.91238  1.0000
  C   C3303     1.0  0.61637  0.08240  0.72347  1.0000
  C   C3304     1.0  0.60981  0.09081  0.73430  1.0000
  C   C3305     1.0  0.61627  0.08830  0.74645  1.0000
  C   C3306     1.0  0.62951  0.07762  0.74756  1.0000
  C   C3307     1.0  0.63615  0.06938  0.73661  1.0000
  C   C3308     1.0  0.62947  0.07157  0.72474  1.0000
  H   H3925     1.0  0.59967  0.09920  0.73336  1.0000
  H   H3926     1.0  0.61107  0.09467  0.75486  1.0000
  H   H3927     1.0  0.64647  0.06121  0.73738  1.0000
  H   H3928     1.0  0.63471  0.06519  0.71635  1.0000
  C   C3309     1.0  0.64923  0.04807  0.64077  1.0000
  C   C3310     1.0  0.66141  0.04172  0.63076  1.0000
  C   C3311     1.0  0.66469  0.04904  0.61587  1.0000
  C   C3312     1.0  0.65555  0.06260  0.61077  1.0000
  C   C3313     1.0  0.64309  0.06880  0.62068  1.0000
  C   C3314     1.0  0.64003  0.06164  0.63571  1.0000
  H   H3929     1.0  0.66841  0.03112  0.63454  1.0000
  H   H3930     1.0  0.67415  0.04404  0.60827  1.0000
  H   H3931     1.0  0.63605  0.07934  0.61680  1.0000
  H   H3932     1.0  0.88983  0.10176  0.52553  1.0000
  H   H3933     1.0  0.54404  0.06107  0.71638  1.0000
  H   H3934     1.0  0.53872  0.06069  0.68527  1.0000
  H   H3935     1.0  0.74410  0.05479  0.48505  1.0000
  H   H3936     1.0  0.88990  0.17864  0.49308  1.0000
  C   C3315     1.0  0.53089  0.09455  0.83459  1.0000
  H   H3937     1.0  0.90195  0.18061  0.62310  1.0000
  H   H3938     1.0  0.81128  0.16198  0.59782  1.0000
  N   N215      1.0  0.66847  0.16592  0.92156  1.0000
  C   C3316     1.0  0.71088  0.99738  0.83209  1.0000
  H   H3939     1.0  0.72369  0.16052  0.94401  1.0000
  C   C3317     1.0  0.97594  0.11618  0.67021  1.0000
  H   H3940     1.0  0.73090  0.03421  0.49283  1.0000
  H   H3941     1.0  0.71458  0.99488  0.73739  1.0000
  H   H3942     1.0  0.98740  0.14874  0.64454  1.0000
  H   H3943     1.0  0.74626  0.05636  0.50746  1.0000
  H   H3944     1.0  0.64155  0.99898  0.83426  1.0000
  C   C3318     1.0  0.72880  0.15792  0.93293  1.0000
  C   C3319     1.0  0.78087  0.15344  0.49080  1.0000
  H   H3945     1.0  0.93511  0.15781  0.61820  1.0000
  H   H3946     1.0  0.66208  0.14672  0.92000  1.0000
  C   C3320     1.0  0.64210  0.17982  0.81466  1.0000
  C   C3321     1.0  0.68038  0.16860  0.92690  1.0000
  C   C3322     1.0  0.67083  0.14964  0.92350  1.0000
  H   H3947     1.0  0.50337  0.05731  0.83601  1.0000
  C   C3323     1.0  0.52497  0.08397  0.72508  1.0000
  C   C3324     1.0  0.68617  0.99322  0.83586  1.0000
  H   H3948     1.0  0.55592  0.00667  0.70943  1.0000
  H   H3949     1.0  0.95827  0.05562  0.61780  1.0000
  Fe  Fe463     1.0  0.51236  0.01930  0.68175  1.0000
  C   C3325     1.0  0.58447  0.13724  0.76890  1.0000
  H   H3950     1.0  0.82718  0.17451  0.60411  1.0000
  C   C3326     1.0  0.92611  0.14558  0.67894  1.0000
  H   H3951     1.0  0.61370  0.04834  0.64962  1.0000
  H   H3952     1.0  0.76352  0.05105  0.48608  1.0000
  C   C3327     1.0  0.57770  0.99948  0.72654  1.0000
  N   N216      1.0  0.66537  0.03190  0.79570  1.0000
  C   C3328     1.0  0.66247  0.04427  0.78289  1.0000
  C   C3329     1.0  0.67144  0.03727  0.80525  1.0000
  C   C3330     1.0  0.67700  0.01979  0.78988  1.0000
  C   C3331     1.0  0.65185  0.02637  0.80454  1.0000
  C   C3332     1.0  0.65299  0.01373  0.81633  1.0000
  C   C3333     1.0  0.63725  0.03355  0.80220  1.0000
  C   C3334     1.0  0.64040  0.00849  0.82512  1.0000
  C   C3335     1.0  0.62467  0.02842  0.81129  1.0000
  C   C3336     1.0  0.62625  0.01591  0.82270  1.0000
  H   H3953     1.0  0.65471  0.05428  0.78648  1.0000
  H   H3954     1.0  0.67284  0.04790  0.77611  1.0000
  H   H3955     1.0  0.65762  0.04101  0.77536  1.0000
  H   H3956     1.0  0.67461  0.02837  0.81475  1.0000
  H   H3957     1.0  0.66303  0.04635  0.80986  1.0000
  H   H3958     1.0  0.68158  0.04162  0.79904  1.0000
  H   H3959     1.0  0.67237  0.01447  0.78392  1.0000
  H   H3960     1.0  0.68676  0.02384  0.78207  1.0000
  H   H3961     1.0  0.68156  0.01100  0.79870  1.0000
  H   H3962     1.0  0.66359  0.00802  0.81909  1.0000
  H   H3963     1.0  0.63525  0.04322  0.79350  1.0000
  H   H3964     1.0  0.58886  0.00068  0.72679  1.0000
  H   H3965     1.0  0.61362  0.03431  0.80966  1.0000
  H   H3966     1.0  0.76386  0.14473  0.91451  1.0000
  H   H3967     1.0  0.95798  0.12077  0.61582  1.0000
  H   H3968     1.0  0.51733  0.12546  0.81370  1.0000
  N   N217      1.0  0.65680  0.16950  0.81559  1.0000
  C   C3337     1.0  0.74620  0.13578  0.94097  1.0000
  C   C3338     1.0  0.53406  0.00366  0.72021  1.0000
  H   H3969     1.0  0.65231  0.99471  0.70328  1.0000
  C   C3339     1.0  0.74355  0.01935  0.53592  1.0000
  S   S920      1.0  0.79548  0.10438  0.48061  1.0000
  S   S921      1.0  0.53088  0.04659  0.74782  1.0000
  S   S922      1.0  0.51369  0.07379  0.80225  1.0000
  H   H3970     1.0  0.54059  0.09992  0.83152  1.0000
  C   C3340     1.0  0.55083  0.00886  0.73235  1.0000
  C   C3341     1.0  0.53910  0.00885  0.74524  1.0000
  C   C3342     1.0  0.54780  0.00635  0.71979  1.0000
  C   C3343     1.0  0.89936  0.17639  0.52523  1.0000
  H   H3971     1.0  0.71883  0.00084  0.83572  1.0000
  H   H3972     1.0  0.50635  0.18089  0.88786  1.0000
  H   H3973     1.0  0.71072  0.07000  0.48131  1.0000
  C   C3344     1.0  0.73502  0.98487  0.76317  1.0000
  H   H3974     1.0  0.56605  0.00261  0.75455  1.0000
  H   H3975     1.0  0.55108  0.06526  0.72983  1.0000
  Fe  Fe464     1.0  0.50292  0.16625  0.85435  1.0000
  H   H3976     1.0  0.63637  0.08743  0.54259  1.0000
  H   H3977     1.0  0.74407  0.08534  0.53375  1.0000
  C   C3345     1.0  0.76350  0.07993  0.55101  1.0000
  C   C3346     1.0  0.74346  0.10169  0.55170  1.0000
  H   H3978     1.0  0.58903  0.12572  0.95208  1.0000
  H   H3979     1.0  0.76847  0.14163  0.94662  1.0000
  C   C3347     1.0  0.56075  0.15391  0.89861  1.0000
  H   H3980     1.0  0.58037  0.10642  0.70736  1.0000
  C   C3348     1.0  0.97518  0.16941  0.63381  1.0000
  H   H3981     1.0  0.66672  0.12024  0.81089  1.0000
  C   C3349     1.0  0.96295  0.12700  0.62060  1.0000
  H   H3982     1.0  0.91395  0.14649  0.68379  1.0000
  H   H3983     1.0  0.55499  0.07664  0.84445  1.0000
  C   C3350     1.0  0.50415  0.06293  0.84397  1.0000
  H   H3984     1.0  0.78804  0.11873  0.55249  1.0000
  C   C3351     1.0  0.84757  0.15876  0.59819  1.0000
  H   H3985     1.0  0.54046  0.16835  0.85603  1.0000
  C   C3352     1.0  0.65691  0.16348  0.83151  1.0000
  Fe  Fe465     1.0  0.66437  0.07380  0.97668  1.0000
  C   C3353     1.0  0.99150  0.11168  0.66608  1.0000
  C   C3354     1.0  0.92424  0.17100  0.67845  1.0000
  C   C3355     1.0  0.97883  0.13267  0.68361  1.0000
  C   C3356     1.0  0.55624  0.17812  0.85995  1.0000
  H   H3986     1.0  0.51813  0.10636  0.80040  1.0000
  H   H3987     1.0  0.78049  0.15691  0.95351  1.0000
  C   C3357     1.0  0.89506  0.18274  0.51171  1.0000
  H   H3988     1.0  0.71927  0.99314  0.68666  1.0000
  N   N218      1.0  0.53090  0.08318  0.84857  1.0000
  C   C3358     1.0  0.70089  0.04801  0.51510  1.0000
  H   H3989     1.0  0.71609  0.08363  0.49679  1.0000
  C   C3359     1.0  0.52246  0.12062  0.77878  1.0000
  C   C3360     1.0  0.96483  0.17621  0.62495  1.0000
  H   H3990     1.0  0.74526  0.10236  0.56235  1.0000
  C   C3361     1.0  0.78445  0.11592  0.54412  1.0000
  H   H3991     1.0  0.73668  0.03266  0.55213  1.0000
  H   H3992     1.0  0.74152  0.99590  0.63078  1.0000
  H   H3993     1.0  0.73894  0.05602  0.53351  1.0000
  H   H3994     1.0  0.89866  0.15668  0.64002  1.0000
  C   C3362     1.0  0.76851  0.10382  0.53755  1.0000
  C   C3363     1.0  0.67185  0.08348  0.54570  1.0000
  C   C3364     1.0  0.56250  0.12791  0.78260  1.0000
  H   H3995     1.0  0.66294  0.99849  0.73524  1.0000
  S   S923      1.0  0.92273  0.16275  0.56650  1.0000
  H   H3996     1.0  0.87107  0.14234  0.54468  1.0000
  C   C3365     1.0  0.70335  0.05308  0.49973  1.0000
  C   C3366     1.0  0.89595  0.15834  0.50872  1.0000
  H   H3997     1.0  0.51730  0.09508  0.72352  1.0000
  C   C3367     1.0  0.67064  0.07679  0.49635  1.0000
  N   N219      1.0  0.93115  0.03792  0.59573  1.0000
  C   C3368     1.0  0.91660  0.04273  0.60560  1.0000
  C   C3369     1.0  0.92822  0.03884  0.58116  1.0000
  C   C3370     1.0  0.93743  0.02214  0.60178  1.0000
  C   C3371     1.0  0.94158  0.04705  0.59500  1.0000
  C   C3372     1.0  0.94536  0.04740  0.60807  1.0000
  C   C3373     1.0  0.94831  0.05569  0.58153  1.0000
  C   C3374     1.0  0.96969  0.12634  0.67930  1.0000
  H   H3998     1.0  0.87525  0.12509  0.51523  1.0000
  H   H3999     1.0  0.65859  0.15453  0.77302  1.0000
  H   H4000     1.0  0.91193  0.05478  0.60207  1.0000
  H   H4001     1.0  0.90819  0.03675  0.60565  1.0000
  H   H4002     1.0  0.91751  0.04044  0.61727  1.0000
  H   H4003     1.0  0.93866  0.03493  0.57330  1.0000
  H   H4004     1.0  0.92278  0.05030  0.57624  1.0000
  H   H4005     1.0  0.92054  0.03165  0.58213  1.0000
  H   H4006     1.0  0.93019  0.01478  0.60200  1.0000
  H   H4007     1.0  0.94874  0.01822  0.59514  1.0000
  H   H4008     1.0  0.93858  0.02018  0.61333  1.0000
  H   H4009     1.0  0.94066  0.04116  0.61871  1.0000
  H   H4010     1.0  0.94602  0.05632  0.57103  1.0000
  C   C3375     1.0  0.91267  0.15724  0.65386  1.0000
  H   H4011     1.0  0.51645  0.00655  0.75532  1.0000
  H   H4012     1.0  0.86527  0.15065  0.56045  1.0000
  H   H4013     1.0  0.80042  0.12571  0.52619  1.0000
  H   H4014     1.0  0.93757  0.14303  0.63413  1.0000
  N   N220      1.0  0.56552  0.01167  0.73157  1.0000
  H   H4015     1.0  0.69504  0.05172  0.89302  1.0000
  H   H4016     1.0  0.56511  0.07022  0.64613  1.0000
  H   H4017     1.0  0.70965  0.04140  0.86998  1.0000
  H   H4018     1.0  0.84848  0.15795  0.49733  1.0000
  H   H4019     1.0  0.57482  0.12335  0.82139  1.0000
  H   H4020     1.0  0.81537  0.00094  0.66523  1.0000
  C   C3376     1.0  0.84618  0.15470  0.53419  1.0000
  N   N221      1.0  0.92925  0.15981  0.66919  1.0000
  C   C3377     1.0  0.59253  0.04072  0.78793  1.0000
  H   H4021     1.0  0.57971  0.09588  0.77845  1.0000
  H   H4022     1.0  0.71099  0.02383  0.88299  1.0000
  H   H4023     1.0  0.57875  0.01453  0.74499  1.0000
  C   C3378     1.0  0.51798  0.07629  0.85178  1.0000
  H   H4024     1.0  0.79259  0.11912  0.50704  1.0000
  H   H4025     1.0  0.59262  0.12791  0.81248  1.0000
  C   C3379     1.0  0.65995  0.15123  0.78433  1.0000
  H   H4026     1.0  0.65119  0.01172  0.70848  1.0000
  N   N222      1.0  0.65976  0.07901  0.54232  1.0000
  H   H4027     1.0  0.64635  0.99601  0.72211  1.0000
  C   C3380     1.0  0.65768  0.06481  0.55288  1.0000
  H   H4028     1.0  0.54007  0.01125  0.75514  1.0000
  C   C3381     1.0  0.66349  0.07802  0.52662  1.0000
  C   C3382     1.0  0.66767  0.09005  0.51520  1.0000
  C   C3383     1.0  0.66272  0.06545  0.52215  1.0000
  C   C3384     1.0  0.67133  0.08934  0.50032  1.0000
  C   C3385     1.0  0.66623  0.06495  0.50722  1.0000
  C   C3386     1.0  0.71617  0.11898  0.96993  1.0000
  H   H4029     1.0  0.81882  0.11773  0.48030  1.0000
  H   H4030     1.0  0.54309  0.07561  0.79745  1.0000
  C   C3387     1.0  0.56073  0.04651  0.68204  1.0000
  H   H4031     1.0  0.66785  0.05582  0.55106  1.0000
  H   H4032     1.0  0.84196  0.17013  0.56334  1.0000
  H   H4033     1.0  0.65562  0.06569  0.56459  1.0000
  C   C3388     1.0  0.70395  0.05570  0.52386  1.0000
  S   S924      1.0  0.73323  0.16191  0.96997  1.0000
  H   H4034     1.0  0.68279  0.07592  0.54259  1.0000
  H   H4035     1.0  0.66832  0.10007  0.51766  1.0000
  H   H4036     1.0  0.65974  0.05572  0.52993  1.0000
  C   C3389     1.0  0.51965  0.12794  0.80178  1.0000
  H   H4037     1.0  0.55002  0.08796  0.69229  1.0000
  C   C3390     1.0  0.51131  0.18070  0.91323  1.0000
  N   N223      1.0  0.88713  0.09864  0.61293  1.0000
  C   C3391     1.0  0.89396  0.09756  0.59739  1.0000
  C   C3392     1.0  0.87070  0.10409  0.61444  1.0000
  C   C3393     1.0  0.89268  0.10999  0.61631  1.0000
  C   C3394     1.0  0.89123  0.08386  0.62258  1.0000
  C   C3395     1.0  0.88167  0.07368  0.62768  1.0000
  C   C3396     1.0  0.90550  0.07876  0.62620  1.0000
  C   C3397     1.0  0.88592  0.05960  0.63638  1.0000
  C   C3398     1.0  0.90958  0.06473  0.63503  1.0000
  C   C3399     1.0  0.89976  0.05521  0.64020  1.0000
  H   H4038     1.0  0.90637  0.09401  0.59549  1.0000
  H   H4039     1.0  0.88994  0.08935  0.59426  1.0000
  H   H4040     1.0  0.89134  0.10840  0.58959  1.0000
  H   H4041     1.0  0.86587  0.09774  0.60971  1.0000
  H   H4042     1.0  0.86772  0.11575  0.60830  1.0000
  H   H4043     1.0  0.86486  0.10364  0.62622  1.0000
  H   H4044     1.0  0.90504  0.10838  0.61299  1.0000
  H   H4045     1.0  0.88858  0.12135  0.61000  1.0000
  H   H4046     1.0  0.88912  0.11006  0.62828  1.0000
  H   H4047     1.0  0.87089  0.07628  0.62497  1.0000
  H   H4048     1.0  0.91375  0.08543  0.62226  1.0000
  H   H4049     1.0  0.87845  0.05201  0.64017  1.0000
  H   H4050     1.0  0.92045  0.06128  0.63787  1.0000
  H   H4051     1.0  0.90293  0.04431  0.64702  1.0000
  N   N224      1.0  0.62431  0.05613  0.88648  1.0000
  C   C3400     1.0  0.62609  0.04368  0.89949  1.0000
  C   C3401     1.0  0.60921  0.05811  0.88388  1.0000
  C   C3402     1.0  0.63558  0.05162  0.87357  1.0000
  C   C3403     1.0  0.62618  0.07021  0.88831  1.0000
  C   C3404     1.0  0.62427  0.08325  0.87702  1.0000
  C   C3405     1.0  0.62992  0.07148  0.90110  1.0000
  C   C3406     1.0  0.62574  0.09672  0.87853  1.0000
  C   C3407     1.0  0.63137  0.08504  0.90249  1.0000
  C   C3408     1.0  0.62926  0.09763  0.89125  1.0000
  H   H4052     1.0  0.61775  0.04609  0.90965  1.0000
  H   H4053     1.0  0.62459  0.03325  0.89782  1.0000
  H   H4054     1.0  0.63749  0.04103  0.90167  1.0000
  H   H4055     1.0  0.60723  0.04749  0.88319  1.0000
  H   H4056     1.0  0.60758  0.06596  0.87327  1.0000
  H   H4057     1.0  0.60035  0.06232  0.89295  1.0000
  H   H4058     1.0  0.64709  0.04938  0.87527  1.0000
  H   H4059     1.0  0.63410  0.04137  0.87159  1.0000
  H   H4060     1.0  0.63484  0.06012  0.86316  1.0000
  H   H4061     1.0  0.62161  0.08314  0.86689  1.0000
  H   H4062     1.0  0.63168  0.06221  0.91027  1.0000
  H   H4063     1.0  0.62411  0.10657  0.86980  1.0000
  H   H4064     1.0  0.63402  0.08585  0.91244  1.0000
  H   H4065     1.0  0.63033  0.10815  0.89238  1.0000
  C   C3409     1.0  0.58232  0.15709  0.80381  1.0000
  C   C3410     1.0  0.58131  0.05040  0.64010  1.0000
  H   H4066     1.0  0.82513  0.13087  0.53467  1.0000
  C   C3411     1.0  0.56741  0.01285  0.74591  1.0000
  H   H4067     1.0  0.61564  0.05458  0.77649  1.0000
  Fe  Fe466     1.0  0.53260  0.14451  0.85084  1.0000
  N   N225      1.0  0.79190  0.01912  0.59733  1.0000
  C   C3412     1.0  0.79517  0.00273  0.60012  1.0000
  C   C3413     1.0  0.80602  0.02350  0.59592  1.0000
  C   C3414     1.0  0.78113  0.02384  0.61047  1.0000
  C   C3415     1.0  0.78545  0.02561  0.58404  1.0000
  C   C3416     1.0  0.79239  0.03484  0.57113  1.0000
  H   H4068     1.0  0.58136  0.16144  0.81365  1.0000
  H   H4069     1.0  0.80268  0.99869  0.59028  1.0000
  H   H4070     1.0  0.80072  0.99749  0.60964  1.0000
  H   H4071     1.0  0.78486  0.99842  0.60289  1.0000
  H   H4072     1.0  0.92929  0.16724  0.68832  1.0000
  C   C3417     1.0  0.76556  0.02857  0.57125  1.0000
  H   H4073     1.0  0.73648  0.00627  0.72486  1.0000
  H   H4074     1.0  0.77073  0.01972  0.61331  1.0000
  H   H4075     1.0  0.78594  0.01968  0.62052  1.0000
  H   H4076     1.0  0.77784  0.03610  0.60875  1.0000
  H   H4077     1.0  0.80269  0.03784  0.57032  1.0000
  H   H4078     1.0  0.57823  0.16654  0.79516  1.0000
  C   C3418     1.0  0.92345  0.17883  0.64651  1.0000
  Fe  Fe467     1.0  0.51548  0.15301  0.82691  1.0000
  H   H4079     1.0  0.56060  0.06800  0.71076  1.0000
  C   C3419     1.0  0.51642  0.04773  0.73936  1.0000
  C   C3420     1.0  0.65436  0.99941  0.71162  1.0000
  Fe  Fe468     1.0  0.53247  0.05519  0.79559  1.0000
  H   H4080     1.0  0.76639  0.08087  0.56102  1.0000
  H   H4081     1.0  0.52539  0.06711  0.83195  1.0000
  C   C3421     1.0  0.74037  0.03258  0.54047  1.0000
  C   C3422     1.0  0.65925  0.15791  0.80730  1.0000
  C   C3423     1.0  0.55175  0.16671  0.85713  1.0000
  H   H4082     1.0  0.91187  0.17350  0.68233  1.0000
  H   H4083     1.0  0.53156  0.08987  0.82511  1.0000
  H   H4084     1.0  0.76249  0.08557  0.52286  1.0000
  C   C3424     1.0  0.77561  0.10839  0.52250  1.0000
  H   H4085     1.0  0.66562  0.01003  0.68486  1.0000
  H   H4086     1.0  0.64245  0.09122  0.55694  1.0000
  C   C3425     1.0  0.51979  0.04264  0.72634  1.0000
  H   H4087     1.0  0.51979  0.07639  0.72230  1.0000
  H   H4088     1.0  0.96357  0.07029  0.57090  1.0000
  H   H4089     1.0  0.59542  0.10248  0.96954  1.0000
  C   C3426     1.0  0.74930  0.03239  0.50989  1.0000
  H   H4090     1.0  0.75545  0.07256  0.55485  1.0000
  C   C3427     1.0  0.56273  0.13270  0.79489  1.0000
  H   H4091     1.0  0.68719  0.01539  0.89701  1.0000
  H   H4092     1.0  0.65802  0.07960  0.84620  1.0000
  Fe  Fe469     1.0  0.71126  0.17743  0.96746  1.0000
  S   S925      1.0  0.78273  0.07582  0.48087  1.0000
  S   S926      1.0  0.55596  0.13820  0.85420  1.0000
  H   H4093     1.0  0.66907  0.11930  0.97713  1.0000
  C   C3428     1.0  0.55842  0.15125  0.81533  1.0000
  H   H4094     1.0  0.64683  0.10145  0.53829  1.0000
  C   C3429     1.0  0.89336  0.17370  0.50344  1.0000
  Fe  Fe470     1.0  0.88213  0.16641  0.58968  1.0000
  C   C3430     1.0  0.67143  0.05750  0.85036  1.0000
  S   S927      1.0  0.85841  0.16835  0.60248  1.0000
  H   H4095     1.0  0.55397  0.12220  0.78327  1.0000
  H   H4096     1.0  0.67206  0.06587  0.88704  1.0000
  H   H4097     1.0  0.69656  0.03316  0.90361  1.0000
  H   H4098     1.0  0.70436  0.02618  0.86693  1.0000
  H   H4099     1.0  0.55182  0.15934  0.80748  1.0000
  H   H4100     1.0  0.73549  0.99194  0.75188  1.0000
  H   H4101     1.0  0.67097  0.05536  0.84008  1.0000
  H   H4102     1.0  0.85771  0.16698  0.51324  1.0000
  C   C3431     1.0  0.66414  0.07119  0.85379  1.0000
  H   H4103     1.0  0.72652  0.16833  0.92455  1.0000
  H   H4104     1.0  0.86970  0.12817  0.49832  1.0000
  H   H4105     1.0  0.52512  0.17598  0.87820  1.0000
  N   N226      1.0  0.81705  0.05848  0.61942  1.0000
  C   C3432     1.0  0.81228  0.06642  0.63165  1.0000
  C   C3433     1.0  0.81101  0.04488  0.62484  1.0000
  C   C3434     1.0  0.83363  0.05396  0.61614  1.0000
  C   C3435     1.0  0.81169  0.06742  0.60596  1.0000
  C   C3436     1.0  0.81614  0.06098  0.59220  1.0000
  C   C3437     1.0  0.79999  0.08218  0.60583  1.0000
  C   C3438     1.0  0.80933  0.06879  0.57887  1.0000
  C   C3439     1.0  0.79330  0.09001  0.59243  1.0000
  C   C3440     1.0  0.79783  0.08316  0.57903  1.0000
  H   H4106     1.0  0.79990  0.06894  0.63552  1.0000
  H   H4107     1.0  0.81684  0.05962  0.64146  1.0000
  H   H4108     1.0  0.81623  0.07691  0.62831  1.0000
  H   H4109     1.0  0.79857  0.04760  0.62728  1.0000
  H   H4110     1.0  0.81450  0.03790  0.63516  1.0000
  H   H4111     1.0  0.81488  0.03775  0.61668  1.0000
  H   H4112     1.0  0.83787  0.04723  0.62616  1.0000
  H   H4113     1.0  0.83815  0.04697  0.60782  1.0000
  H   H4114     1.0  0.83886  0.06368  0.61196  1.0000
  H   H4115     1.0  0.82374  0.05035  0.59195  1.0000
  H   H4116     1.0  0.79585  0.08715  0.61532  1.0000
  H   H4117     1.0  0.81220  0.06368  0.56952  1.0000
  H   H4118     1.0  0.78501  0.10030  0.59255  1.0000
  H   H4119     1.0  0.79259  0.08838  0.56972  1.0000
  N   N227      1.0  0.95705  0.14322  0.61646  1.0000
  C   C3441     1.0  0.96050  0.14764  0.60009  1.0000
  H   H4120     1.0  0.95087  0.17348  0.61267  1.0000
  C   C3442     1.0  0.94060  0.14602  0.62186  1.0000
  C   C3443     1.0  0.96335  0.15196  0.62261  1.0000
  C   C3444     1.0  0.95893  0.16767  0.61946  1.0000
  C   C3445     1.0  0.97381  0.14535  0.63186  1.0000
  Fe  Fe471     1.0  0.65207  0.99877  0.90469  1.0000
  H   H4121     1.0  0.61454  0.15667  0.81184  1.0000
  S   S928      1.0  0.50371  0.07597  0.77159  1.0000
  H   H4122     1.0  0.65595  0.17338  0.78650  1.0000
  C   C3446     1.0  0.54751  0.09438  0.71898  1.0000
  H   H4123     1.0  0.95554  0.15948  0.59592  1.0000
  H   H4124     1.0  0.51100  0.03950  0.70946  1.0000
  H   H4125     1.0  0.73901  0.12961  0.93891  1.0000
  H   H4126     1.0  0.67488  0.99373  0.84225  1.0000
  H   H4127     1.0  0.68197  0.14481  0.91718  1.0000
  H   H4128     1.0  0.64807  0.15708  0.83709  1.0000
  C   C3447     1.0  0.70747  0.99664  0.68642  1.0000
  C   C3448     1.0  0.59527  0.12520  0.96007  1.0000
  H   H4129     1.0  0.97766  0.13349  0.63513  1.0000
  C   C3449     1.0  0.53080  0.09054  0.86021  1.0000
  H   H4130     1.0  0.52961  0.10216  0.73700  1.0000
  S   S929      1.0  0.97924  0.06708  0.66118  1.0000
  C   C3450     1.0  0.71196  0.07361  0.50193  1.0000
  H   H4131     1.0  0.54307  0.15695  0.88824  1.0000
  C   C3451     1.0  0.60319  0.04518  0.65014  1.0000
  C   C3452     1.0  0.70930  0.06864  0.51733  1.0000
  C   C3453     1.0  0.54368  0.17736  0.91182  1.0000
  H   H4132     1.0  0.59314  0.13863  0.75893  1.0000
  C   C3454     1.0  0.52007  0.11714  0.79426  1.0000
  H   H4133     1.0  0.97383  0.14045  0.69067  1.0000
  H   H4134     1.0  0.85518  0.13833  0.55902  1.0000
  H   H4135     1.0  0.61751  0.15632  0.83652  1.0000
  C   C3455     1.0  0.79136  0.11998  0.52931  1.0000
  C   C3456     1.0  0.90561  0.16282  0.64191  1.0000
  H   H4136     1.0  0.67307  0.09488  0.53979  1.0000
  H   H4137     1.0  0.60911  0.04254  0.62231  1.0000
  H   H4138     1.0  0.61547  0.05817  0.62220  1.0000
  H   H4139     1.0  0.59929  0.06077  0.61490  1.0000
  H   H4140     1.0  0.81060  0.01850  0.60602  1.0000
  H   H4141     1.0  0.97026  0.06971  0.59395  1.0000
  C   C3457     1.0  0.64573  0.09027  0.54516  1.0000
  H   H4142     1.0  0.62101  0.03639  0.77316  1.0000
  H   H4143     1.0  0.61864  0.05216  0.75817  1.0000
  H   H4144     1.0  0.90285  0.14011  0.52602  1.0000
  C   C3458     1.0  0.78688  0.11631  0.51852  1.0000
  H   H4145     1.0  0.52089  0.09983  0.86154  1.0000
  H   H4146     1.0  0.61275  0.14637  0.96915  1.0000
  C   C3459     1.0  0.61398  0.04762  0.76995  1.0000
  H   H4147     1.0  0.90618  0.15602  0.54042  1.0000
  C   C3460     1.0  0.50835  0.04356  0.71944  1.0000
  H   H4148     1.0  0.60339  0.07373  0.63897  1.0000
  H   H4149     1.0  0.59594  0.04565  0.66129  1.0000
  C   C3461     1.0  0.70750  0.10221  0.96124  1.0000
  H   H4150     1.0  0.74077  0.18172  0.92544  1.0000
  H   H4151     1.0  0.58589  0.03573  0.76519  1.0000
  H   H4152     1.0  0.56964  0.02023  0.63881  1.0000
  C   C3462     1.0  0.54057  0.10278  0.73005  1.0000
  H   H4153     1.0  0.52671  0.13738  0.75900  1.0000
  C   C3463     1.0  0.56631  0.15839  0.90811  1.0000
  C   C3464     1.0  0.58086  0.16247  0.86042  1.0000
  N   N228      1.0  0.59526  0.05508  0.63863  1.0000
  C   C3465     1.0  0.59270  0.07049  0.64035  1.0000
  C   C3466     1.0  0.67231  0.06302  0.87693  1.0000
  N   N229      1.0  0.68857  0.03721  0.88365  1.0000
  H   H4154     1.0  0.58675  0.07859  0.63200  1.0000
  H   H4155     1.0  0.59250  0.02849  0.63563  1.0000
  C   C3467     1.0  0.58195  0.03615  0.63817  1.0000
  C   C3468     1.0  0.52158  0.14214  0.79378  1.0000
  C   C3469     1.0  0.90067  0.15199  0.52201  1.0000
  H   H4156     1.0  0.58041  0.04082  0.79022  1.0000
  S   S930      1.0  0.51929  0.15680  0.80230  1.0000
  C   C3470     1.0  0.75287  0.09194  0.52982  1.0000
  S   S931      1.0  0.50092  0.01441  0.70562  1.0000
  S   S932      1.0  0.65823  0.09688  0.96362  1.0000
  N   N230      1.0  0.59809  0.04728  0.77218  1.0000
  C   C3471     1.0  0.59746  0.03719  0.76335  1.0000
  H   H4157     1.0  0.60460  0.02595  0.76633  1.0000
  H   H4158     1.0  0.59474  0.07099  0.78425  1.0000
  H   H4159     1.0  0.85991  0.11807  0.51486  1.0000
  H   H4160     1.0  0.53090  0.08263  0.87108  1.0000
  C   C3472     1.0  0.58918  0.06252  0.76821  1.0000
  C   C3473     1.0  0.58863  0.07347  0.77569  1.0000
  H   H4161     1.0  0.60165  0.04140  0.75134  1.0000
  H   H4162     1.0  0.70668  0.09111  0.96178  1.0000
  S   S933      1.0  0.77960  0.98902  0.64010  1.0000
  C   C3474     1.0  0.56683  0.05944  0.64391  1.0000
  C   C3475     1.0  0.65379  0.17110  0.93106  1.0000
  H   H4163     1.0  0.87382  0.09454  0.52829  1.0000
  H   H4164     1.0  0.56820  0.08981  0.70246  1.0000
  C   C3476     1.0  0.83602  0.14411  0.51497  1.0000
  H   H4165     1.0  0.59397  0.04685  0.79538  1.0000
  S   S934      1.0  0.71253  0.07891  0.52815  1.0000
  S   S935      1.0  0.51825  0.04325  0.79045  1.0000
  H   H4166     1.0  0.64788  0.06131  0.55203  1.0000
  H   H4167     1.0  0.59857  0.02904  0.79120  1.0000
  C   C3477     1.0  0.68117  0.02453  0.88939  1.0000
  C   C3478     1.0  0.87116  0.11986  0.50867  1.0000
  C   C3479     1.0  0.88440  0.09641  0.52026  1.0000
  H   H4168     1.0  0.87083  0.07936  0.51582  1.0000
  N   N231      1.0  0.85137  0.15992  0.54451  1.0000
  C   C3480     1.0  0.86113  0.14725  0.55251  1.0000
  S   S936      1.0  0.52564  0.13111  0.83951  1.0000
  C   C3481     1.0  0.56919  0.10547  0.71363  1.0000
  H   H4169     1.0  0.71382  0.06320  0.62544  1.0000
  H   H4170     1.0  0.72169  0.05034  0.63972  1.0000
  C   C3482     1.0  0.84523  0.15420  0.50919  1.0000
  C   C3483     1.0  0.58002  0.08782  0.77242  1.0000
  C   C3484     1.0  0.56203  0.11364  0.72443  1.0000
  S   S937      1.0  0.52160  0.10852  0.76853  1.0000
  C   C3485     1.0  0.56895  0.03130  0.63991  1.0000
  N   N232      1.0  0.88149  0.10580  0.50584  1.0000
  H   H4171     1.0  0.57733  0.15290  0.91018  1.0000
  C   C3486     1.0  0.71140  0.05872  0.63763  1.0000
  H   H4172     1.0  0.71015  0.06788  0.64307  1.0000
  H   H4173     1.0  0.69082  0.03428  0.63995  1.0000
  H   H4174     1.0  0.70453  0.04137  0.62466  1.0000
  C   C3487     1.0  0.54629  0.02585  0.67963  1.0000
  C   C3488     1.0  0.71528  0.99227  0.81897  1.0000
  C   C3489     1.0  0.77184  0.02268  0.58369  1.0000
  H   H4175     1.0  0.76590  0.01580  0.59307  1.0000
  H   H4176     1.0  0.74820  0.10253  0.52269  1.0000
  C   C3490     1.0  0.52445  0.14527  0.77836  1.0000
  C   C3491     1.0  0.95847  0.06381  0.58126  1.0000
  C   C3492     1.0  0.70090  0.03900  0.63690  1.0000
  C   C3493     1.0  0.58069  0.06693  0.75713  1.0000
  N   N233      1.0  0.69782  0.05241  0.64279  1.0000
  H   H4177     1.0  0.68223  0.07356  0.64130  1.0000
  H   H4178     1.0  0.70995  0.03020  0.64126  1.0000
  H   H4179     1.0  0.52044  0.10333  0.83551  1.0000
  C   C3494     1.0  0.58092  0.13248  0.81781  1.0000
  H   H4180     1.0  0.79156  0.04754  0.54895  1.0000
  C   C3495     1.0  0.60014  0.13760  0.95980  1.0000
  H   H4181     1.0  0.55836  0.03516  0.72430  1.0000
  C   C3496     1.0  0.57156  0.09166  0.76175  1.0000
  H   H4182     1.0  0.58044  0.05950  0.75073  1.0000
  H   H4183     1.0  0.71001  0.03037  0.68885  1.0000
  C   C3497     1.0  0.57327  0.13029  0.76959  1.0000
  C   C3498     1.0  0.55392  0.05449  0.64553  1.0000
  C   C3499     1.0  0.55497  0.04045  0.64357  1.0000
  C   C3500     1.0  0.70404  0.03200  0.87550  1.0000
  C   C3501     1.0  0.68969  0.04206  0.89653  1.0000
  S   S938      1.0  0.63719  0.98509  0.90309  1.0000
  C   C3502     1.0  0.68578  0.06368  0.63634  1.0000
  C   C3503     1.0  0.57202  0.08128  0.75404  1.0000
  C   C3504     1.0  0.74797  0.01920  0.52088  1.0000
  S   S939      1.0  0.79554  0.07402  0.51684  1.0000
  Fe  Fe472     1.0  0.52320  0.05702  0.76756  1.0000
  H   H4184     1.0  0.59415  0.14679  0.78009  1.0000
  C   C3505     1.0  0.69378  0.04815  0.65914  1.0000
  H   H4185     1.0  0.67583  0.05920  0.63779  1.0000
  H   H4186     1.0  0.54491  0.03647  0.64538  1.0000
  H   H4187     1.0  0.56207  0.17350  0.92219  1.0000
  H   H4188     1.0  0.66936  0.05547  0.66193  1.0000
  H   H4189     1.0  0.71655  0.03748  0.66207  1.0000
  C   C3506     1.0  0.83199  0.13903  0.53020  1.0000
  H   H4190     1.0  0.83175  0.15790  0.56220  1.0000
  Fe  Fe473     1.0  0.62580  0.15551  0.86439  1.0000
  H   H4191     1.0  0.56550  0.08430  0.74569  1.0000
  H   H4192     1.0  0.56456  0.10266  0.75952  1.0000
  N   N234      1.0  0.57383  0.14529  0.80755  1.0000
  C   C3507     1.0  0.87485  0.09883  0.49812  1.0000
  C   C3508     1.0  0.87010  0.08528  0.50467  1.0000
  C   C3509     1.0  0.67869  0.05044  0.66725  1.0000
  C   C3510     1.0  0.70492  0.04049  0.66741  1.0000
  H   H4193     1.0  0.68942  0.06761  0.62418  1.0000
  H   H4194     1.0  0.74113  0.01543  0.49657  1.0000
  H   H4195     1.0  0.54297  0.06135  0.64885  1.0000
  H   H4196     1.0  0.52519  0.07980  0.73702  1.0000
  C   C3511     1.0  0.68007  0.04899  0.87362  1.0000
  C   C3512     1.0  0.66453  0.07392  0.86708  1.0000
  H   H4197     1.0  0.60638  0.03343  0.64919  1.0000
  S   S940      1.0  0.64067  0.16438  0.87245  1.0000
  H   H4198     1.0  0.58422  0.14061  0.85684  1.0000
  H   H4199     1.0  0.85958  0.06916  0.50251  1.0000
  H   H4200     1.0  0.73891  0.11311  0.54590  1.0000
  H   H4201     1.0  0.50605  0.08299  0.87268  1.0000
  H   H4202     1.0  0.68081  0.01964  0.88041  1.0000
  C   C3513     1.0  0.67913  0.04649  0.86014  1.0000
  H   H4203     1.0  0.76778  0.04195  0.54915  1.0000
  C   C3514     1.0  0.57366  0.14032  0.79442  1.0000
  H   H4204     1.0  0.59218  0.16074  0.86146  1.0000
  H   H4205     1.0  0.64447  0.17032  0.92673  1.0000
  C   C3515     1.0  0.67515  0.04604  0.68266  1.0000
  C   C3516     1.0  0.58483  0.14204  0.78116  1.0000
  S   S941      1.0  0.69887  0.04349  0.48910  1.0000
  H   H4206     1.0  0.53120  0.03788  0.72157  1.0000
  H   H4207     1.0  0.55836  0.15686  0.82397  1.0000
  C   C3517     1.0  0.56180  0.02227  0.67848  1.0000
  S   S942      1.0  0.55000  0.04424  0.80879  1.0000
  C   C3518     1.0  0.54522  0.04993  0.68352  1.0000
  C   C3519     1.0  0.57637  0.15106  0.85768  1.0000
  H   H4208     1.0  0.95014  0.14827  0.65778  1.0000
  C   C3520     1.0  0.70126  0.03617  0.68282  1.0000
  H   H4209     1.0  0.66357  0.04805  0.68858  1.0000
  C   C3521     1.0  0.85037  0.15939  0.51856  1.0000
  H   H4210     1.0  0.68362  0.03566  0.70238  1.0000
  C   C3522     1.0  0.51777  0.17489  0.88944  1.0000
  C   C3523     1.0  0.90242  0.16101  0.53023  1.0000
  H   H4211     1.0  0.54075  0.09549  0.85741  1.0000
  H   H4212     1.0  0.55439  0.13012  0.80482  1.0000
  H   H4213     1.0  0.50898  0.11552  0.88477  1.0000
  C   C3524     1.0  0.68641  0.03903  0.69044  1.0000
  N   N235      1.0  0.74501  0.15104  0.93158  1.0000
  C   C3525     1.0  0.70313  0.00422  0.67321  1.0000
  H   H4214     1.0  0.66385  0.12799  0.78505  1.0000
  H   H4215     1.0  0.61650  0.01211  0.82993  1.0000
  Fe  Fe474     1.0  0.59939  0.18079  0.86995  1.0000
  H   H4216     1.0  0.68038  0.16267  0.93859  1.0000
  C   C3526     1.0  0.74212  0.02681  0.49034  1.0000
  H   H4217     1.0  0.76588  0.13912  0.49475  1.0000
  C   C3527     1.0  0.83840  0.16615  0.55537  1.0000
  C   C3528     1.0  0.66302  0.13625  0.79105  1.0000
  H   H4218     1.0  0.57833  0.02821  0.71985  1.0000
  C   C3529     1.0  0.60874  0.13677  0.96961  1.0000
  H   H4219     1.0  0.74263  0.13602  0.95294  1.0000
  H   H4220     1.0  0.70064  0.98757  0.70928  1.0000
  S   S943      1.0  0.86724  0.00276  0.66100  1.0000
  C   C3530     1.0  0.66460  0.13191  0.80563  1.0000
  C   C3531     1.0  0.50041  0.10942  0.89073  1.0000
  C   C3532     1.0  0.75286  0.16003  0.93570  1.0000
  C   C3533     1.0  0.76766  0.17750  0.94354  1.0000
  H   H4221     1.0  0.93552  0.13945  0.61758  1.0000
  H   H4222     1.0  0.74235  0.00921  0.54414  1.0000
  H   H4223     1.0  0.51215  0.00165  0.73328  1.0000
  H   H4224     1.0  0.75770  0.12885  0.93887  1.0000
  H   H4225     1.0  0.57846  0.99911  0.71496  1.0000
  S   S944      1.0  0.69251  0.99409  0.76504  1.0000
  C   C3534     1.0  0.49961  0.10270  0.90575  1.0000
  H   H4226     1.0  0.65477  0.17242  0.83751  1.0000
  C   C3535     1.0  0.76824  0.02154  0.49083  1.0000
  Fe  Fe475     1.0  0.67217  0.99567  0.87420  1.0000
  C   C3536     1.0  0.90741  0.17632  0.63237  1.0000
  H   H4227     1.0  0.72660  0.99185  0.81254  1.0000
  C   C3537     1.0  0.92180  0.16515  0.65655  1.0000
  S   S945      1.0  0.61742  0.17723  0.85006  1.0000
  C   C3538     1.0  0.94566  0.15756  0.66364  1.0000
  C   C3539     1.0  0.75171  0.14996  0.91603  1.0000
  H   H4228     1.0  0.67902  0.18048  0.92661  1.0000
  C   C3540     1.0  0.86356  0.07925  0.49712  1.0000
  H   H4229     1.0  0.66338  0.13828  0.82518  1.0000
  H   H4230     1.0  0.77703  0.02469  0.49407  1.0000
  C   C3541     1.0  0.75497  0.04656  0.48397  1.0000
  Fe  Fe476     1.0  0.91233  0.17329  0.58606  1.0000
  C   C3542     1.0  0.67158  0.00061  0.72490  1.0000
  H   H4231     1.0  0.79700  0.16713  0.48364  1.0000
  C   C3543     1.0  0.65828  0.16192  0.79224  1.0000
  H   H4232     1.0  0.68457  0.01495  0.66274  1.0000
  H   H4233     1.0  0.92753  0.18163  0.67239  1.0000
  Fe  Fe477     1.0  0.90132  0.17448  0.55919  1.0000
  N   N236      1.0  0.52278  0.18109  0.89919  1.0000
  H   H4234     1.0  0.67027  0.01282  0.72115  1.0000
  C   C3544     1.0  0.66869  0.17801  0.80910  1.0000
  H   H4235     1.0  0.87044  0.16744  0.52943  1.0000
  H   H4236     1.0  0.95159  0.15512  0.67273  1.0000
  H   H4237     1.0  0.63830  0.99228  0.76754  1.0000
  H   H4238     1.0  0.63297  0.17367  0.81841  1.0000
  Fe  Fe478     1.0  0.49989  0.06294  0.79506  1.0000
  H   H4239     1.0  0.49917  0.03428  0.87207  1.0000
  C   C3545     1.0  0.50605  0.07751  0.86437  1.0000
  H   H4240     1.0  0.77811  0.15452  0.50217  1.0000
  C   C3546     1.0  0.59901  0.11192  0.97013  1.0000
  H   H4241     1.0  0.65271  0.16452  0.94264  1.0000
  H   H4242     1.0  0.69161  0.16491  0.92002  1.0000
  H   H4243     1.0  0.83069  0.17558  0.54973  1.0000
  S   S946      1.0  0.49848  0.04240  0.67667  1.0000
  S   S947      1.0  0.99439  0.17643  0.66279  1.0000
  H   H4244     1.0  0.86366  0.17536  0.54519  1.0000
  H   H4245     1.0  0.49697  0.01065  0.83218  1.0000
  H   H4246     1.0  0.67242  0.15542  0.89587  1.0000
  H   H4247     1.0  0.73242  0.99231  0.77095  1.0000
  H   H4248     1.0  0.50422  0.01461  0.87332  1.0000
  C   C3547     1.0  0.50164  0.05408  0.74527  1.0000
  H   H4249     1.0  0.63017  0.08854  0.97433  1.0000
  Fe  Fe479     1.0  0.99417  0.16083  0.68482  1.0000
  H   H4250     1.0  0.49907  0.03566  0.81719  1.0000
  C   C3548     1.0  0.77402  0.14477  0.48661  1.0000
  S   S948      1.0  0.88780  0.98428  0.62848  1.0000
  C   C3549     1.0  0.79138  0.16063  0.48036  1.0000
  C   C3550     1.0  0.66873  0.17423  0.90608  1.0000
  C   C3551     1.0  0.67092  0.16724  0.89425  1.0000
  H   H4251     1.0  0.85337  0.18151  0.53082  1.0000
  Fe  Fe480     1.0  0.88398  0.15974  0.47903  1.0000
  H   H4252     1.0  0.87514  0.11653  0.47833  1.0000
  C   C3552     1.0  0.67105  0.17551  0.87978  1.0000
  S   S949      1.0  0.92721  0.18260  0.59389  1.0000
  S   S950      1.0  0.75578  0.98514  0.67221  1.0000
  H   H4253     1.0  0.75911  0.98936  0.76835  1.0000
  H   H4254     1.0  0.76206  0.98938  0.74928  1.0000
  H   H4255     1.0  0.65196  0.18282  0.93172  1.0000
  H   H4256     1.0  0.68273  0.98447  0.81908  1.0000
  S   S951      1.0  0.86616  0.18063  0.47762  1.0000
  C   C3553     1.0  0.66442  0.18797  0.03795  1.0000
  H   H4257     1.0  0.90304  0.24669  0.45704  1.0000
  H   H4258     1.0  0.86352  0.21956  0.46430  1.0000
  S   S952      1.0  0.88116  0.29605  0.00124  1.0000
  S   S953      1.0  0.85988  0.26647  0.00363  1.0000
  H   H4259     1.0  0.91667  0.38220  0.22440  1.0000
  H   H4260     1.0  0.93748  0.31937  0.41585  1.0000
  Fe  Fe481     1.0  0.90475  0.28372  0.00197  1.0000
  S   S954      1.0  0.91449  0.27728  0.02219  1.0000
  C   C3554     1.0  0.93148  0.29815  0.34262  1.0000
  S   S955      1.0  0.90255  0.26392  0.99561  1.0000
  C   C3555     1.0  0.78983  0.28131  0.03511  1.0000
  H   H4261     1.0  0.98404  0.29375  0.32676  1.0000
  H   H4262     1.0  0.99185  0.33778  0.21259  1.0000
  S   S956      1.0  0.78282  0.22788  0.01912  1.0000
  H   H4263     1.0  0.85775  0.37995  0.20209  1.0000
  C   C3556     1.0  0.86681  0.31335  0.19340  1.0000
  C   C3557     1.0  0.93958  0.28812  0.09655  1.0000
  Fe  Fe482     1.0  0.88020  0.18734  0.45486  1.0000
  C   C3558     1.0  0.60817  0.20727  0.13237  1.0000
  H   H4264     1.0  0.95305  0.29718  0.42758  1.0000
  H   H4265     1.0  0.89636  0.30918  0.43437  1.0000
  H   H4266     1.0  0.68796  0.24474  0.12863  1.0000
  C   C3559     1.0  0.82290  0.29893  0.99163  1.0000
  H   H4267     1.0  0.88552  0.25368  0.09210  1.0000
  H   H4268     1.0  0.74272  0.32702  0.16944  1.0000
  C   C3560     1.0  0.85080  0.26446  0.99103  1.0000
  S   S957      1.0  0.53400  0.24282  0.13537  1.0000
  C   C3561     1.0  0.63558  0.37286  0.12013  1.0000
  Fe  Fe483     1.0  0.84334  0.36996  0.25948  1.0000
  C   C3562     1.0  0.86904  0.23768  0.46910  1.0000
  C   C3563     1.0  0.98366  0.29403  0.23994  1.0000
  Fe  Fe484     1.0  0.86805  0.35907  0.27652  1.0000
  S   S958      1.0  0.87317  0.34979  0.29909  1.0000
  Fe  Fe485     1.0  0.87258  0.35068  0.24745  1.0000
  S   S959      1.0  0.88282  0.33376  0.23362  1.0000
  S   S960      1.0  0.85566  0.34722  0.26868  1.0000
  Fe  Fe486     1.0  0.96786  0.33214  0.27977  1.0000
  S   S961      1.0  0.96803  0.31099  0.27444  1.0000
  C   C3564     1.0  0.65066  0.23989  0.17865  1.0000
  S   S962      1.0  0.70878  0.18687  0.98694  1.0000
  H   H4269     1.0  0.66558  0.20620  0.10454  1.0000
  Fe  Fe487     1.0  0.98292  0.33378  0.16987  1.0000
  C   C3565     1.0  0.94908  0.32073  0.06556  1.0000
  Fe  Fe488     1.0  0.97631  0.30000  0.29541  1.0000
  S   S963      1.0  0.96513  0.28415  0.31422  1.0000
  C   C3566     1.0  0.97533  0.29006  0.23237  1.0000
  S   S964      1.0  0.97388  0.32135  0.30159  1.0000
  H   H4270     1.0  0.85519  0.27753  0.03139  1.0000
  N   N237      1.0  0.93697  0.19190  0.42361  1.0000
  H   H4271     1.0  0.63865  0.20256  0.18787  1.0000
  C   C3567     1.0  0.65390  0.20781  0.11121  1.0000
  H   H4272     1.0  0.61721  0.32691  0.12680  1.0000
  H   H4273     1.0  0.90835  0.22552  0.44516  1.0000
  H   H4274     1.0  0.66403  0.37136  0.12035  1.0000
  C   C3568     1.0  0.76731  0.20758  0.08733  1.0000
  C   C3569     1.0  0.99355  0.23944  0.33223  1.0000
  H   H4275     1.0  0.84679  0.20577  0.99089  1.0000
  Fe  Fe489     1.0  0.97225  0.22032  0.39065  1.0000
  H   H4276     1.0  0.97397  0.24710  0.42927  1.0000
  S   S965      1.0  0.97694  0.20341  0.37708  1.0000
  Fe  Fe490     1.0  0.72063  0.33536  0.14383  1.0000
  S   S966      1.0  0.70308  0.32390  0.15962  1.0000
  S   S967      1.0  0.74504  0.32457  0.13824  1.0000
  Fe  Fe491     1.0  0.69822  0.36422  0.13624  1.0000
  S   S968      1.0  0.67868  0.35507  0.15108  1.0000
  C   C3570     1.0  0.89443  0.24078  0.45866  1.0000
  Fe  Fe492     1.0  0.69397  0.34534  0.16701  1.0000
  S   S969      1.0  0.68605  0.34573  0.19106  1.0000
  Fe  Fe493     1.0  0.68968  0.33444  0.14221  1.0000
  S   S970      1.0  0.68038  0.32112  0.13243  1.0000
  S   S971      1.0  0.71268  0.35596  0.15272  1.0000
  S   S972      1.0  0.70795  0.34456  0.12585  1.0000
  Fe  Fe494     1.0  0.61602  0.28333  0.15216  1.0000
  S   S973      1.0  0.61556  0.28915  0.12810  1.0000
  S   S974      1.0  0.62138  0.29730  0.16437  1.0000
  Fe  Fe495     1.0  0.60979  0.25302  0.15677  1.0000
  S   S975      1.0  0.60943  0.25593  0.13307  1.0000
  S   S976      1.0  0.60453  0.23270  0.17346  1.0000
  Fe  Fe496     1.0  0.62921  0.26599  0.12822  1.0000
  S   S977      1.0  0.64938  0.26152  0.11003  1.0000
  Fe  Fe497     1.0  0.59568  0.27855  0.13523  1.0000
  S   S978      1.0  0.57445  0.28812  0.12666  1.0000
  S   S979      1.0  0.63098  0.26089  0.15179  1.0000
  S   S980      1.0  0.59479  0.27501  0.15937  1.0000
  Fe  Fe498     1.0  0.76888  0.26240  0.07787  1.0000
  S   S981      1.0  0.75470  0.27233  0.06119  1.0000
  Fe  Fe499     1.0  0.76986  0.25638  0.10990  1.0000
  S   S982      1.0  0.75436  0.25932  0.13155  1.0000
  S   S983      1.0  0.77372  0.27557  0.09089  1.0000
  C   C3571     1.0  0.92502  0.31853  0.08104  1.0000
  S   S984      1.0  0.76967  0.36249  0.21641  1.0000
  H   H4277     1.0  0.96800  0.27820  0.35759  1.0000
  Fe  Fe500     1.0  0.78234  0.34101  0.18515  1.0000
  S   S985      1.0  0.77602  0.32971  0.20892  1.0000
  S   S986      1.0  0.79029  0.32812  0.16737  1.0000
  Fe  Fe501     1.0  0.75705  0.34961  0.21019  1.0000
  S   S987      1.0  0.73378  0.34861  0.22341  1.0000
  Fe  Fe502     1.0  0.78928  0.34349  0.21295  1.0000
  S   S988      1.0  0.80748  0.33347  0.22563  1.0000
  S   S989      1.0  0.76222  0.35975  0.18597  1.0000
  S   S990      1.0  0.79725  0.35303  0.18901  1.0000
  Fe  Fe503     1.0  0.86716  0.31930  0.11985  1.0000
  S   S991      1.0  0.87193  0.29659  0.13401  1.0000
  S   S992      1.0  0.85328  0.33885  0.12934  1.0000
  Fe  Fe504     1.0  0.88728  0.30947  0.09230  1.0000
  S   S993      1.0  0.89406  0.28591  0.10434  1.0000
  S   S994      1.0  0.89461  0.31871  0.06791  1.0000
  Fe  Fe505     1.0  0.86959  0.28880  0.11514  1.0000
  S   S995      1.0  0.85639  0.27127  0.12022  1.0000
  Fe  Fe506     1.0  0.89577  0.29602  0.12204  1.0000
  S   S996      1.0  0.91241  0.28707  0.13675  1.0000
  S   S997      1.0  0.86269  0.31171  0.10194  1.0000
  S   S998      1.0  0.89112  0.31935  0.10908  1.0000
  C   C3572     1.0  0.63736  0.32450  0.10997  1.0000
  H   H4278     1.0  0.65582  0.19680  0.08788  1.0000
  Fe  Fe507     1.0  0.94871  0.34157  0.17478  1.0000
  S   S999      1.0  0.94758  0.31908  0.17357  1.0000
  S   S1000     1.0  0.92902  0.36022  0.17950  1.0000
  Fe  Fe508     1.0  0.96529  0.31044  0.18684  1.0000
  C   C3573     1.0  0.75522  0.18993  0.98413  1.0000
  Fe  Fe509     1.0  0.96671  0.32164  0.15406  1.0000
  S   S1001     1.0  0.96419  0.31812  0.13275  1.0000
  H   H4279     1.0  0.62960  0.19367  0.12633  1.0000
  S   S1002     1.0  0.96699  0.34473  0.15466  1.0000
  C   C3574     1.0  0.68336  0.21818  0.11999  1.0000
  C   C3575     1.0  0.92591  0.29673  0.13595  1.0000
  C   C3576     1.0  0.93427  0.29177  0.14692  1.0000
  C   C3577     1.0  0.94555  0.29875  0.14636  1.0000
  C   C3578     1.0  0.94881  0.31052  0.13460  1.0000
  C   C3579     1.0  0.94028  0.31565  0.12373  1.0000
  C   C3580     1.0  0.92870  0.30892  0.12453  1.0000
  H   H4280     1.0  0.93224  0.28231  0.15576  1.0000
  H   H4281     1.0  0.95215  0.29463  0.15470  1.0000
  H   H4282     1.0  0.94279  0.32473  0.11460  1.0000
  H   H4283     1.0  0.92231  0.31280  0.11605  1.0000
  C   C3581     1.0  0.80795  0.33106  0.15733  1.0000
  C   C3582     1.0  0.81114  0.34507  0.15396  1.0000
  C   C3583     1.0  0.82516  0.34738  0.14546  1.0000
  C   C3584     1.0  0.83589  0.33575  0.14011  1.0000
  C   C3585     1.0  0.83272  0.32173  0.14356  1.0000
  C   C3586     1.0  0.81883  0.31936  0.15236  1.0000
  H   H4284     1.0  0.80269  0.35423  0.15758  1.0000
  H   H4285     1.0  0.82758  0.35825  0.14281  1.0000
  H   H4286     1.0  0.84097  0.31268  0.13955  1.0000
  H   H4287     1.0  0.81654  0.30843  0.15551  1.0000
  C   C3587     1.0  0.84519  0.27246  0.10808  1.0000
  C   C3588     1.0  0.82538  0.26445  0.10324  1.0000
  C   C3589     1.0  0.83473  0.26352  0.11250  1.0000
  H   H4288     1.0  0.81755  0.25733  0.10665  1.0000
  H   H4289     1.0  0.83393  0.25579  0.12310  1.0000
  C   C3590     1.0  0.66209  0.24467  0.11414  1.0000
  C   C3591     1.0  0.67322  0.23967  0.10262  1.0000
  C   C3592     1.0  0.68376  0.22645  0.10553  1.0000
  C   C3593     1.0  0.66149  0.23631  0.12862  1.0000
  H   H4290     1.0  0.67367  0.24600  0.09138  1.0000
  H   H4291     1.0  0.65287  0.23999  0.13757  1.0000
  H   H4292     1.0  0.63133  0.22847  0.15092  1.0000
  C   C3594     1.0  0.74751  0.30650  0.13616  1.0000
  C   C3595     1.0  0.73678  0.29817  0.14392  1.0000
  C   C3596     1.0  0.73914  0.28352  0.14281  1.0000
  C   C3597     1.0  0.75214  0.27722  0.13371  1.0000
  C   C3598     1.0  0.76288  0.28551  0.12587  1.0000
  C   C3599     1.0  0.76054  0.30017  0.12708  1.0000
  H   H4293     1.0  0.72686  0.30280  0.15115  1.0000
  H   H4294     1.0  0.73087  0.27709  0.14896  1.0000
  H   H4295     1.0  0.77307  0.28059  0.11900  1.0000
  H   H4296     1.0  0.76869  0.30665  0.12077  1.0000
  C   C3600     1.0  0.69970  0.34626  0.19972  1.0000
  C   C3601     1.0  0.71457  0.34589  0.19210  1.0000
  C   C3602     1.0  0.72522  0.34643  0.19932  1.0000
  C   C3603     1.0  0.72101  0.34724  0.21418  1.0000
  C   C3604     1.0  0.70621  0.34737  0.22185  1.0000
  C   C3605     1.0  0.69557  0.34697  0.21462  1.0000
  H   H4297     1.0  0.71797  0.34492  0.18076  1.0000
  H   H4298     1.0  0.73664  0.34617  0.19342  1.0000
  H   H4299     1.0  0.70295  0.34788  0.23339  1.0000
  H   H4300     1.0  0.68413  0.34712  0.22060  1.0000
  C   C3606     1.0  0.66446  0.31388  0.14207  1.0000
  C   C3607     1.0  0.65686  0.31593  0.15625  1.0000
  C   C3608     1.0  0.64366  0.31075  0.16311  1.0000
  C   C3609     1.0  0.63824  0.30320  0.15597  1.0000
  C   C3610     1.0  0.64620  0.30063  0.14208  1.0000
  C   C3611     1.0  0.65914  0.30612  0.13511  1.0000
  H   H4301     1.0  0.66099  0.32173  0.16183  1.0000
  H   H4302     1.0  0.63759  0.31266  0.17393  1.0000
  H   H4303     1.0  0.64212  0.29482  0.13649  1.0000
  H   H4304     1.0  0.66485  0.30462  0.12412  1.0000
  H   H4305     1.0  0.66188  0.20620  0.16952  1.0000
  H   H4306     1.0  0.89630  0.31621  0.40761  1.0000
  H   H4307     1.0  0.77005  0.29132  0.19444  1.0000
  H   H4308     1.0  0.89722  0.31296  0.18660  1.0000
  H   H4309     1.0  0.72238  0.25656  0.14164  1.0000
  H   H4310     1.0  0.63354  0.26853  0.17942  1.0000
  S   S1003     1.0  0.88637  0.36027  0.25602  1.0000
  H   H4311     1.0  0.90390  0.29309  0.16666  1.0000
  C   C3612     1.0  0.96354  0.35922  0.29523  1.0000
  H   H4312     1.0  0.89184  0.26275  0.04210  1.0000
  H   H4313     1.0  0.65455  0.25005  0.17533  1.0000
  H   H4314     1.0  0.63750  0.24198  0.21532  1.0000
  C   C3613     1.0  0.74893  0.19520  0.02884  1.0000
  C   C3614     1.0  0.97640  0.26715  0.32106  1.0000
  H   H4315     1.0  0.99020  0.30638  0.19725  1.0000
  H   H4316     1.0  0.63486  0.31576  0.10668  1.0000
  H   H4317     1.0  0.69154  0.23086  0.04368  1.0000
  S   S1004     1.0  0.95123  0.37545  0.33205  1.0000
  C   C3615     1.0  0.97076  0.25853  0.33471  1.0000
  C   C3616     1.0  0.93805  0.30146  0.06517  1.0000
  C   C3617     1.0  0.95709  0.29320  0.41706  1.0000
  H   H4318     1.0  0.97473  0.23800  0.35070  1.0000
  H   H4319     1.0  0.95963  0.26239  0.34085  1.0000
  C   C3618     1.0  0.84366  0.32336  0.17827  1.0000
  C   C3619     1.0  0.85190  0.31595  0.20117  1.0000
  S   S1005     1.0  0.90382  0.34086  0.38485  1.0000
  C   C3620     1.0  0.63708  0.23821  0.18916  1.0000
  H   H4320     1.0  0.86814  0.29227  0.03602  1.0000
  H   H4321     1.0  0.89451  0.36330  0.16609  1.0000
  C   C3621     1.0  0.95900  0.30168  0.09116  1.0000
  C   C3622     1.0  0.88009  0.24553  0.46682  1.0000
  C   C3623     1.0  0.96434  0.29234  0.10342  1.0000
  S   S1006     1.0  0.98951  0.23227  0.37571  1.0000
  H   H4322     1.0  0.97297  0.33548  0.21741  1.0000
  C   C3624     1.0  0.95254  0.36652  0.20961  1.0000
  S   S1007     1.0  0.96456  0.29311  0.20796  1.0000
  H   H4323     1.0  0.75244  0.28617  0.18104  1.0000
  H   H4324     1.0  0.71759  0.22672  0.04437  1.0000
  C   C3625     1.0  0.81553  0.36402  0.24975  1.0000
  C   C3626     1.0  0.82559  0.35055  0.24833  1.0000
  C   C3627     1.0  0.82281  0.34102  0.24129  1.0000
  C   C3628     1.0  0.81010  0.34506  0.23536  1.0000
  C   C3629     1.0  0.80007  0.35856  0.23671  1.0000
  C   C3630     1.0  0.80269  0.36793  0.24401  1.0000
  H   H4325     1.0  0.83549  0.34736  0.25271  1.0000
  H   H4326     1.0  0.83063  0.33059  0.24030  1.0000
  H   H4327     1.0  0.79023  0.36176  0.23223  1.0000
  H   H4328     1.0  0.93397  0.34566  0.23135  1.0000
  C   C3631     1.0  0.89421  0.34171  0.21751  1.0000
  C   C3632     1.0  0.90294  0.33311  0.20739  1.0000
  C   C3633     1.0  0.91328  0.33899  0.19531  1.0000
  C   C3634     1.0  0.91477  0.35347  0.19327  1.0000
  C   C3635     1.0  0.90538  0.36236  0.20288  1.0000
  C   C3636     1.0  0.89520  0.35644  0.21508  1.0000
  H   H4329     1.0  0.90212  0.32176  0.20919  1.0000
  H   H4330     1.0  0.92015  0.33226  0.18767  1.0000
  Fe  Fe510     1.0  0.87969  0.27704  0.99315  1.0000
  H   H4331     1.0  0.88867  0.36310  0.22292  1.0000
  C   C3637     1.0  0.54495  0.25577  0.13256  1.0000
  C   C3638     1.0  0.55837  0.25082  0.13745  1.0000
  C   C3639     1.0  0.56749  0.26064  0.13559  1.0000
  C   C3640     1.0  0.56328  0.27554  0.12876  1.0000
  C   C3641     1.0  0.54986  0.28051  0.12379  1.0000
  C   C3642     1.0  0.54072  0.27065  0.12565  1.0000
  H   H4332     1.0  0.56167  0.23935  0.14286  1.0000
  H   H4333     1.0  0.57765  0.25670  0.13966  1.0000
  H   H4334     1.0  0.54657  0.29202  0.11846  1.0000
  H   H4335     1.0  0.53057  0.27450  0.12153  1.0000
  C   C3643     1.0  0.52771  0.27417  0.16306  1.0000
  H   H4336     1.0  0.63765  0.38245  0.12294  1.0000
  H   H4337     1.0  0.62243  0.34658  0.13445  1.0000
  C   C3644     1.0  0.60286  0.23171  0.11701  1.0000
  H   H4338     1.0  0.70691  0.23543  0.11201  1.0000
  H   H4339     1.0  0.62293  0.22224  0.20010  1.0000
  C   C3645     1.0  0.70709  0.24846  0.13408  1.0000
  H   H4340     1.0  0.89351  0.26740  0.43717  1.0000
  H   H4341     1.0  0.97354  0.23695  0.40862  1.0000
  S   S1008     1.0  0.92407  0.37537  0.37205  1.0000
  C   C3646     1.0  0.97933  0.24474  0.34033  1.0000
  H   H4342     1.0  0.90928  0.34145  0.33674  1.0000
  C   C3647     1.0  0.92062  0.30699  0.36954  1.0000
  H   H4343     1.0  0.94505  0.31188  0.31437  1.0000
  H   H4344     1.0  0.82591  0.36263  0.21189  1.0000
  S   S1009     1.0  0.79433  0.20962  0.09101  1.0000
  H   H4345     1.0  0.91985  0.32680  0.07220  1.0000
  H   H4346     1.0  0.85792  0.24135  0.47541  1.0000
  C   C3648     1.0  0.82030  0.28944  0.00551  1.0000
  C   C3649     1.0  0.63320  0.22430  0.19246  1.0000
  C   C3650     1.0  0.77284  0.23969  0.03109  1.0000
  C   C3651     1.0  0.76534  0.25412  0.02569  1.0000
  C   C3652     1.0  0.75887  0.26401  0.03515  1.0000
  C   C3653     1.0  0.76001  0.25947  0.04995  1.0000
  H   H4347     1.0  0.76498  0.25783  0.01413  1.0000
  H   H4348     1.0  0.75359  0.27532  0.03085  1.0000
  C   C3654     1.0  0.90825  0.28883  0.03490  1.0000
  C   C3655     1.0  0.90986  0.28280  0.04952  1.0000
  C   C3656     1.0  0.90498  0.29174  0.05995  1.0000
  C   C3657     1.0  0.89907  0.30688  0.05562  1.0000
  C   C3658     1.0  0.89751  0.31291  0.04099  1.0000
  C   C3659     1.0  0.90182  0.30386  0.03070  1.0000
  H   H4349     1.0  0.91483  0.27117  0.05280  1.0000
  H   H4350     1.0  0.90622  0.28699  0.07120  1.0000
  H   H4351     1.0  0.89299  0.32464  0.03757  1.0000
  H   H4352     1.0  0.90059  0.30859  0.01943  1.0000
  C   C3660     1.0  0.95908  0.36260  0.22208  1.0000
  C   C3661     1.0  0.87061  0.31585  0.17772  1.0000
  H   H4353     1.0  0.81317  0.26252  0.04490  1.0000
  C   C3662     1.0  0.78296  0.20329  0.08368  1.0000
  C   C3663     1.0  0.92700  0.33413  0.26188  1.0000
  C   C3664     1.0  0.93073  0.28759  0.35597  1.0000
  Fe  Fe511     1.0  0.92812  0.26963  0.46346  1.0000
  H   H4354     1.0  0.59521  0.24236  0.11467  1.0000
  N   N238      1.0  0.94598  0.29922  0.40759  1.0000
  C   C3665     1.0  0.94511  0.27878  0.10869  1.0000
  H   H4355     1.0  0.51024  0.27092  0.14595  1.0000
  C   C3666     1.0  0.92687  0.31357  0.34237  1.0000
  H   H4356     1.0  0.65231  0.21661  0.11722  1.0000
  H   H4357     1.0  0.90753  0.31765  0.16834  1.0000
  C   C3667     1.0  0.81235  0.30342  0.98291  1.0000
  H   H4358     1.0  0.83921  0.24859  0.00709  1.0000
  C   C3668     1.0  0.63062  0.34199  0.12571  1.0000
  H   H4359     1.0  0.95321  0.27053  0.40450  1.0000
  H   H4360     1.0  0.74890  0.19066  0.01949  1.0000
  N   N239      1.0  0.72127  0.29325  0.09995  1.0000
  C   C3669     1.0  0.72712  0.30283  0.08573  1.0000
  C   C3670     1.0  0.71573  0.30236  0.11131  1.0000
  C   C3671     1.0  0.73381  0.28121  0.10439  1.0000
  C   C3672     1.0  0.70974  0.28679  0.09810  1.0000
  C   C3673     1.0  0.69475  0.28913  0.10645  1.0000
  C   C3674     1.0  0.71337  0.27783  0.08761  1.0000
  C   C3675     1.0  0.68414  0.28294  0.10426  1.0000
  C   C3676     1.0  0.70268  0.27168  0.08557  1.0000
  C   C3677     1.0  0.68809  0.27425  0.09387  1.0000
  H   H4361     1.0  0.71792  0.31164  0.08160  1.0000
  H   H4362     1.0  0.73544  0.30832  0.08683  1.0000
  H   H4363     1.0  0.73297  0.29651  0.07693  1.0000
  H   H4364     1.0  0.72470  0.30695  0.11251  1.0000
  H   H4365     1.0  0.71158  0.29575  0.12244  1.0000
  H   H4366     1.0  0.70659  0.31201  0.10845  1.0000
  H   H4367     1.0  0.73965  0.27470  0.09575  1.0000
  H   H4368     1.0  0.74244  0.28562  0.10643  1.0000
  H   H4369     1.0  0.72985  0.27342  0.11474  1.0000
  H   H4370     1.0  0.69094  0.29572  0.11471  1.0000
  H   H4371     1.0  0.72451  0.27561  0.08079  1.0000
  H   H4372     1.0  0.67273  0.28483  0.11066  1.0000
  H   H4373     1.0  0.70571  0.26500  0.07739  1.0000
  H   H4374     1.0  0.67974  0.26961  0.09221  1.0000
  C   C3678     1.0  0.90369  0.32839  0.43409  1.0000
  H   H4375     1.0  0.57129  0.21097  0.16083  1.0000
  C   C3679     1.0  0.89958  0.31926  0.42766  1.0000
  H   H4376     1.0  0.72011  0.24715  0.10595  1.0000
  Fe  Fe512     1.0  0.90663  0.36379  0.37203  1.0000
  H   H4377     1.0  0.96468  0.31050  0.08518  1.0000
  H   H4378     1.0  0.66959  0.23006  0.16345  1.0000
  H   H4379     1.0  0.72627  0.22736  0.10868  1.0000
  H   H4380     1.0  0.55045  0.26407  0.16507  1.0000
  H   H4381     1.0  0.65312  0.19729  0.11956  1.0000
  H   H4382     1.0  0.73488  0.23301  0.14072  1.0000
  S   S1010     1.0  0.91471  0.29437  0.97867  1.0000
  H   H4383     1.0  0.73988  0.21125  0.04963  1.0000
  H   H4384     1.0  0.91024  0.34897  0.43041  1.0000
  C   C3680     1.0  0.90722  0.34179  0.42544  1.0000
  H   H4385     1.0  0.92506  0.28378  0.37970  1.0000
  C   C3681     1.0  0.65950  0.22842  0.17171  1.0000
  N   N240      1.0  0.71789  0.23564  0.12876  1.0000
  H   H4386     1.0  0.87542  0.25352  0.43689  1.0000
  C   C3682     1.0  0.68555  0.27209  0.14518  1.0000
  C   C3683     1.0  0.96388  0.36406  0.30748  1.0000
  H   H4387     1.0  0.82726  0.24454  0.98929  1.0000
  H   H4388     1.0  0.86667  0.23863  0.10467  1.0000
  N   N241      1.0  0.86786  0.26984  0.04850  1.0000
  C   C3684     1.0  0.62835  0.21789  0.15592  1.0000
  H   H4389     1.0  0.93532  0.33980  0.33736  1.0000
  S   S1011     1.0  0.92636  0.28768  0.47466  1.0000
  C   C3685     1.0  0.88574  0.27786  0.43331  1.0000
  C   C3686     1.0  0.94641  0.29981  0.08731  1.0000
  C   C3687     1.0  0.93619  0.24516  0.42326  1.0000
  C   C3688     1.0  0.65523  0.21497  0.17513  1.0000
  C   C3689     1.0  0.61185  0.20310  0.17377  1.0000
  H   H4390     1.0  0.91705  0.31124  0.08692  1.0000
  H   H4391     1.0  0.86099  0.26238  0.42687  1.0000
  C   C3690     1.0  0.88151  0.26297  0.03881  1.0000
  N   N242      1.0  0.87648  0.27585  0.42434  1.0000
  C   C3691     1.0  0.86802  0.26434  0.43325  1.0000
  C   C3692     1.0  0.86540  0.29001  0.42130  1.0000
  C   C3693     1.0  0.88634  0.27115  0.41084  1.0000
  C   C3694     1.0  0.88577  0.27982  0.39634  1.0000
  C   C3695     1.0  0.89722  0.25760  0.41200  1.0000
  C   C3696     1.0  0.89539  0.27505  0.38388  1.0000
  C   C3697     1.0  0.90683  0.25300  0.39947  1.0000
  C   C3698     1.0  0.90588  0.26167  0.38544  1.0000
  H   H4392     1.0  0.86063  0.26746  0.44361  1.0000
  H   H4393     1.0  0.89256  0.28616  0.42690  1.0000
  H   H4394     1.0  0.85788  0.28927  0.41471  1.0000
  H   H4395     1.0  0.85809  0.29304  0.43173  1.0000
  H   H4396     1.0  0.87096  0.29941  0.41540  1.0000
  H   H4397     1.0  0.87799  0.29033  0.39430  1.0000
  H   H4398     1.0  0.89840  0.25044  0.42264  1.0000
  H   H4399     1.0  0.89471  0.28179  0.37291  1.0000
  H   H4400     1.0  0.91511  0.24263  0.40064  1.0000
  H   H4401     1.0  0.91334  0.25799  0.37577  1.0000
  C   C3699     1.0  0.63263  0.26416  0.19151  1.0000
  C   C3700     1.0  0.91380  0.33559  0.32752  1.0000
  Fe  Fe513     1.0  0.77660  0.37080  0.19205  1.0000
  C   C3701     1.0  0.92141  0.31764  0.35627  1.0000
  H   H4402     1.0  0.94977  0.32849  0.07186  1.0000
  C   C3702     1.0  0.93191  0.18712  0.43983  1.0000
  C   C3703     1.0  0.83319  0.36107  0.20098  1.0000
  S   S1012     1.0  0.95062  0.25981  0.45097  1.0000
  C   C3704     1.0  0.71361  0.22177  0.13811  1.0000
  C   C3705     1.0  0.64612  0.35535  0.13983  1.0000
  H   H4403     1.0  0.87479  0.38063  0.28812  1.0000
  C   C3706     1.0  0.64217  0.21289  0.18554  1.0000
  C   C3707     1.0  0.85388  0.35847  0.17351  1.0000
  C   C3708     1.0  0.61723  0.22906  0.10805  1.0000
  C   C3709     1.0  0.89743  0.22879  0.45199  1.0000
  C   C3710     1.0  0.71110  0.25795  0.14053  1.0000
  H   H4404     1.0  0.77856  0.21209  0.98100  1.0000
  C   C3711     1.0  0.84116  0.25469  0.99574  1.0000
  C   C3712     1.0  0.87219  0.22535  0.46285  1.0000
  H   H4405     1.0  0.64766  0.20589  0.14299  1.0000
  H   H4406     1.0  0.64365  0.26271  0.19408  1.0000
  H   H4407     1.0  0.74701  0.23119  0.01080  1.0000
  H   H4408     1.0  0.70369  0.27676  0.15076  1.0000
  H   H4409     1.0  0.70208  0.22148  0.13810  1.0000
  C   C3713     1.0  0.92872  0.20728  0.41876  1.0000
  C   C3714     1.0  0.69184  0.25143  0.13340  1.0000
  C   C3715     1.0  0.77313  0.23492  0.04606  1.0000
  H   H4410     1.0  0.69235  0.22287  0.09656  1.0000
  H   H4411     1.0  0.76750  0.24109  0.06690  1.0000
  H   H4412     1.0  0.88363  0.31276  0.14820  1.0000
  C   C3716     1.0  0.70043  0.26962  0.14589  1.0000
  C   C3717     1.0  0.95006  0.25173  0.43708  1.0000
  C   C3718     1.0  0.73354  0.23464  0.12925  1.0000
  C   C3719     1.0  0.61556  0.21688  0.16719  1.0000
  H   H4413     1.0  0.94887  0.29428  0.06087  1.0000
  Fe  Fe514     1.0  0.51002  0.24770  0.13323  1.0000
  S   S1013     1.0  0.81572  0.27487  0.07715  1.0000
  Fe  Fe515     1.0  0.79725  0.26225  0.08631  1.0000
  C   C3720     1.0  0.93370  0.31915  0.31491  1.0000
  H   H4414     1.0  0.88371  0.33052  0.15083  1.0000
  H   H4415     1.0  0.85885  0.29065  0.05520  1.0000
  H   H4416     1.0  0.82881  0.32280  0.19968  1.0000
  H   H4417     1.0  0.62477  0.27312  0.19683  1.0000
  C   C3721     1.0  0.82653  0.27423  0.08943  1.0000
  S   S1014     1.0  0.79269  0.25063  0.07151  1.0000
  H   H4418     1.0  0.62099  0.23547  0.21761  1.0000
  H   H4419     1.0  0.84410  0.27501  0.04996  1.0000
  H   H4420     1.0  0.87875  0.28170  0.44347  1.0000
  C   C3722     1.0  0.96318  0.24064  0.41603  1.0000
  H   H4421     1.0  0.93608  0.33971  0.25640  1.0000
  H   H4422     1.0  0.86021  0.32260  0.15853  1.0000
  H   H4423     1.0  0.67174  0.21667  0.14272  1.0000
  H   H4424     1.0  0.51367  0.31163  0.15631  1.0000
  C   C3723     1.0  0.61203  0.25360  0.19375  1.0000
  H   H4425     1.0  0.60641  0.24414  0.19852  1.0000
  H   H4426     1.0  0.60451  0.26310  0.19842  1.0000
  H   H4427     1.0  0.61243  0.25653  0.18171  1.0000
  N   N243      1.0  0.80369  0.27413  0.02584  1.0000
  C   C3724     1.0  0.80150  0.26016  0.02407  1.0000
  C   C3725     1.0  0.80687  0.28417  0.01116  1.0000
  H   H4428     1.0  0.82911  0.28627  0.01148  1.0000
  C   C3726     1.0  0.79628  0.28910  0.00206  1.0000
  H   H4429     1.0  0.74649  0.20477  0.08494  1.0000
  H   H4430     1.0  0.92364  0.29766  0.40883  1.0000
  C   C3727     1.0  0.69594  0.21993  0.02593  1.0000
  H   H4431     1.0  0.81145  0.25460  0.01679  1.0000
  H   H4432     1.0  0.79924  0.25219  0.03487  1.0000
  H   H4433     1.0  0.79184  0.26202  0.01907  1.0000
  H   H4434     1.0  0.77982  0.28329  0.03053  1.0000
  H   H4435     1.0  0.50299  0.20039  0.09350  1.0000
  H   H4436     1.0  0.78580  0.28558  0.00557  1.0000
  C   C3728     1.0  0.54213  0.27434  0.16357  1.0000
  H   H4437     1.0  0.58739  0.22316  0.13626  1.0000
  H   H4438     1.0  0.99140  0.34336  0.23412  1.0000
  H   H4439     1.0  0.95946  0.28089  0.42040  1.0000
  H   H4440     1.0  0.67109  0.35262  0.11854  1.0000
  H   H4441     1.0  0.87901  0.34666  0.32737  1.0000
  H   H4442     1.0  0.72987  0.20324  0.00874  1.0000
  C   C3729     1.0  0.63364  0.19141  0.15762  1.0000
  H   H4443     1.0  0.97993  0.34794  0.20065  1.0000
  Fe  Fe516     1.0  0.78550  0.24047  0.99569  1.0000
  C   C3730     1.0  0.62245  0.20442  0.12337  1.0000
  S   S1015     1.0  0.76563  0.25070  0.98550  1.0000
  H   H4444     1.0  0.53118  0.20420  0.12503  1.0000
  H   H4445     1.0  0.76294  0.21594  0.01142  1.0000
  H   H4446     1.0  0.95225  0.32553  0.24175  1.0000
  C   C3731     1.0  0.55580  0.20355  0.15359  1.0000
  H   H4447     1.0  0.76336  0.29575  0.16462  1.0000
  H   H4448     1.0  0.92598  0.31278  0.31415  1.0000
  C   C3732     1.0  0.83440  0.25240  0.98567  1.0000
  C   C3733     1.0  0.84611  0.28251  0.09440  1.0000
  C   C3734     1.0  0.52487  0.20232  0.15443  1.0000
  C   C3735     1.0  0.95742  0.28093  0.11215  1.0000
  H   H4449     1.0  0.75440  0.30832  0.21134  1.0000
  H   H4450     1.0  0.74864  0.21611  0.00278  1.0000
  C   C3736     1.0  0.53568  0.30099  0.15879  1.0000
  Fe  Fe517     1.0  0.87163  0.38200  0.24800  1.0000
  C   C3737     1.0  0.95509  0.27842  0.39414  1.0000
  C   C3738     1.0  0.94957  0.24000  0.41379  1.0000
  H   H4451     1.0  0.92568  0.24449  0.42170  1.0000
  H   H4452     1.0  0.77878  0.22373  0.05031  1.0000
  H   H4453     1.0  0.77184  0.31024  0.19095  1.0000
  H   H4454     1.0  0.91645  0.31049  0.37996  1.0000
  C   C3739     1.0  0.85852  0.32078  0.17038  1.0000
  H   H4455     1.0  0.95251  0.32028  0.39999  1.0000
  H   H4456     1.0  0.72107  0.21183  0.13413  1.0000
  C   C3740     1.0  0.84036  0.32095  0.19361  1.0000
  S   S1016     1.0  0.71279  0.20428  0.08042  1.0000
  H   H4457     1.0  0.92572  0.32457  0.08900  1.0000
  H   H4458     1.0  0.61928  0.25406  0.21866  1.0000
  C   C3741     1.0  0.89590  0.31873  0.17520  1.0000
  H   H4459     1.0  0.90065  0.31674  0.14788  1.0000
  Fe  Fe518     1.0  0.78694  0.23357  0.09201  1.0000
  H   H4460     1.0  0.60202  0.20228  0.18259  1.0000
  C   C3742     1.0  0.62622  0.24520  0.21274  1.0000
  H   H4461     1.0  0.78726  0.27431  0.04639  1.0000
  C   C3743     1.0  0.85570  0.21171  0.98587  1.0000
  S   S1017     1.0  0.79378  0.24394  0.10652  1.0000
  C   C3744     1.0  0.72189  0.20943  0.01648  1.0000
  C   C3745     1.0  0.86759  0.20897  0.99262  1.0000
  C   C3746     1.0  0.87654  0.37710  0.29925  1.0000
  N   N244      1.0  0.64701  0.35918  0.12367  1.0000
  H   H4462     1.0  0.74381  0.30163  0.16842  1.0000
  H   H4463     1.0  0.94415  0.32780  0.05605  1.0000
  H   H4464     1.0  0.74145  0.22513  0.12484  1.0000
  N   N245      1.0  0.62726  0.25015  0.19658  1.0000
  N   N246      1.0  0.93090  0.32335  0.23984  1.0000
  C   C3747     1.0  0.94712  0.31776  0.23932  1.0000
  C   C3748     1.0  0.92597  0.31278  0.23461  1.0000
  C   C3749     1.0  0.92862  0.33784  0.22934  1.0000
  C   C3750     1.0  0.92276  0.32528  0.25490  1.0000
  C   C3751     1.0  0.93676  0.36859  0.29936  1.0000
  C   C3752     1.0  0.91009  0.31918  0.26276  1.0000
  C   C3753     1.0  0.70012  0.22513  0.03590  1.0000
  C   C3754     1.0  0.62740  0.33083  0.12128  1.0000
  C   C3755     1.0  0.93933  0.33336  0.32857  1.0000
  H   H4465     1.0  0.94925  0.30706  0.24744  1.0000
  H   H4466     1.0  0.95337  0.31594  0.22814  1.0000
  H   H4467     1.0  0.84276  0.35698  0.17481  1.0000
  H   H4468     1.0  0.91413  0.31682  0.23355  1.0000
  H   H4469     1.0  0.92726  0.30165  0.24217  1.0000
  H   H4470     1.0  0.93268  0.31118  0.22346  1.0000
  H   H4471     1.0  0.93456  0.27591  0.35586  1.0000
  H   H4472     1.0  0.93331  0.33685  0.21763  1.0000
  H   H4473     1.0  0.91653  0.34305  0.23053  1.0000
  C   C3756     1.0  0.94997  0.36118  0.29135  1.0000
  H   H4474     1.0  0.90554  0.31291  0.25812  1.0000
  Fe  Fe519     1.0  0.92876  0.37843  0.34737  1.0000
  C   C3757     1.0  0.75064  0.21894  0.01231  1.0000
  Fe  Fe520     1.0  0.89487  0.27118  0.47205  1.0000
  N   N247      1.0  0.80567  0.30916  0.12123  1.0000
  C   C3758     1.0  0.81826  0.29726  0.12582  1.0000
  C   C3759     1.0  0.79249  0.30837  0.13379  1.0000
  C   C3760     1.0  0.80210  0.30605  0.10857  1.0000
  C   C3761     1.0  0.80998  0.32365  0.11670  1.0000
  C   C3762     1.0  0.80189  0.33578  0.12343  1.0000
  C   C3763     1.0  0.82271  0.32595  0.10521  1.0000
  C   C3764     1.0  0.80667  0.34909  0.11923  1.0000
  C   C3765     1.0  0.82746  0.33924  0.10123  1.0000
  C   C3766     1.0  0.81953  0.35074  0.10831  1.0000
  H   H4475     1.0  0.82138  0.29895  0.13532  1.0000
  H   H4476     1.0  0.81562  0.28610  0.12897  1.0000
  H   H4477     1.0  0.82853  0.29676  0.11696  1.0000
  H   H4478     1.0  0.78960  0.29733  0.13696  1.0000
  H   H4479     1.0  0.78238  0.31672  0.13100  1.0000
  H   H4480     1.0  0.79465  0.31025  0.14380  1.0000
  H   H4481     1.0  0.79842  0.29540  0.11163  1.0000
  H   H4482     1.0  0.79305  0.31502  0.10437  1.0000
  H   H4483     1.0  0.81194  0.30500  0.09918  1.0000
  H   H4484     1.0  0.79211  0.33517  0.13230  1.0000
  H   H4485     1.0  0.82930  0.31735  0.09940  1.0000
  H   H4486     1.0  0.80064  0.35800  0.12486  1.0000
  H   H4487     1.0  0.83755  0.34053  0.09281  1.0000
  H   H4488     1.0  0.82352  0.36086  0.10551  1.0000
  N   N248      1.0  0.64282  0.21200  0.10183  1.0000
  C   C3767     1.0  0.64664  0.22471  0.08975  1.0000
  H   H4489     1.0  0.52293  0.19667  0.16633  1.0000
  C   C3768     1.0  0.64448  0.19947  0.09503  1.0000
  C   C3769     1.0  0.62751  0.21527  0.11101  1.0000
  C   C3770     1.0  0.95194  0.29379  0.39371  1.0000
  C   C3771     1.0  0.57711  0.18740  0.16299  1.0000
  C   C3772     1.0  0.92537  0.29200  0.36939  1.0000
  C   C3773     1.0  0.86710  0.24455  0.09327  1.0000
  H   H4490     1.0  0.96125  0.27410  0.12196  1.0000
  H   H4491     1.0  0.64593  0.23444  0.09418  1.0000
  H   H4492     1.0  0.65829  0.22192  0.08320  1.0000
  H   H4493     1.0  0.63927  0.22803  0.08174  1.0000
  H   H4494     1.0  0.66317  0.36653  0.10414  1.0000
  H   H4495     1.0  0.96292  0.30513  0.35600  1.0000
  S   S1018     1.0  0.88966  0.20765  0.44381  1.0000
  H   H4496     1.0  0.64292  0.18915  0.10343  1.0000
  H   H4497     1.0  0.63621  0.20210  0.08802  1.0000
  H   H4498     1.0  0.90961  0.18755  0.42410  1.0000
  H   H4499     1.0  0.85659  0.34043  0.21017  1.0000
  H   H4500     1.0  0.92695  0.29873  0.42590  1.0000
  C   C3774     1.0  0.74563  0.21648  0.03848  1.0000
  H   H4501     1.0  0.75506  0.33030  0.17859  1.0000
  H   H4502     1.0  0.77849  0.30074  0.17646  1.0000
  C   C3775     1.0  0.87916  0.35791  0.32132  1.0000
  H   H4503     1.0  0.67734  0.28107  0.14948  1.0000
  H   H4504     1.0  0.90983  0.35621  0.40372  1.0000
  N   N249      1.0  0.88644  0.31247  0.16974  1.0000
  S   S1019     1.0  0.90473  0.32323  0.45280  1.0000
  S   S1020     1.0  0.69703  0.20197  0.12370  1.0000
  C   C3776     1.0  0.85676  0.24401  0.08586  1.0000
  H   H4505     1.0  0.91790  0.32914  0.35703  1.0000
  H   H4506     1.0  0.92614  0.25470  0.44236  1.0000
  H   H4507     1.0  0.93592  0.29393  0.33265  1.0000
  H   H4508     1.0  0.94173  0.34142  0.31795  1.0000
  C   C3777     1.0  0.87657  0.36249  0.30698  1.0000
  C   C3778     1.0  0.96342  0.24650  0.42766  1.0000
  H   H4509     1.0  0.76253  0.32250  0.16254  1.0000
  C   C3779     1.0  0.87767  0.25311  0.08619  1.0000
  C   C3780     1.0  0.75855  0.20163  0.08194  1.0000
  H   H4510     1.0  0.91465  0.34444  0.31721  1.0000
  C   C3781     1.0  0.86731  0.26122  0.06390  1.0000
  H   H4511     1.0  0.87878  0.28626  0.04970  1.0000
  H   H4512     1.0  0.84921  0.31389  0.21315  1.0000
  S   S1021     1.0  0.90962  0.28174  0.45169  1.0000
  C   C3782     1.0  0.95061  0.37065  0.31605  1.0000
  C   C3783     1.0  0.54082  0.20239  0.13014  1.0000
  H   H4513     1.0  0.95017  0.32573  0.33023  1.0000
  C   C3784     1.0  0.68125  0.26301  0.13894  1.0000
  S   S1022     1.0  0.76275  0.24447  0.09719  1.0000
  H   H4514     1.0  0.95495  0.20010  0.42575  1.0000
  H   H4515     1.0  0.84835  0.23756  0.09153  1.0000
  C   C3785     1.0  0.91941  0.33625  0.27601  1.0000
  C   C3786     1.0  0.71775  0.23649  0.11321  1.0000
  C   C3787     1.0  0.90318  0.33662  0.40388  1.0000
  N   N250      1.0  0.74260  0.21138  0.02666  1.0000
  C   C3788     1.0  0.93705  0.37314  0.31184  1.0000
  H   H4516     1.0  0.85414  0.28945  0.09092  1.0000
  H   H4517     1.0  0.88656  0.26738  0.06660  1.0000
  Fe  Fe521     1.0  0.90679  0.29913  0.46406  1.0000
  C   C3789     1.0  0.81584  0.27016  0.03400  1.0000
  S   S1023     1.0  0.94923  0.23296  0.39907  1.0000
  H   H4518     1.0  0.82653  0.26435  0.02777  1.0000
  H   H4519     1.0  0.84817  0.25156  0.06654  1.0000
  S   S1024     1.0  0.98468  0.31084  0.16725  1.0000
  C   C3790     1.0  0.86841  0.28537  0.04736  1.0000
  C   C3791     1.0  0.67220  0.22313  0.13155  1.0000
  C   C3792     1.0  0.63755  0.20512  0.15138  1.0000
  C   C3793     1.0  0.85480  0.35190  0.21153  1.0000
  C   C3794     1.0  0.83676  0.28340  0.08513  1.0000
  H   H4520     1.0  0.91961  0.18812  0.44325  1.0000
  H   H4521     1.0  0.88151  0.25134  0.03919  1.0000
  H   H4522     1.0  0.98173  0.29072  0.25186  1.0000
  C   C3795     1.0  0.62082  0.19038  0.16888  1.0000
  C   C3796     1.0  0.70680  0.21211  0.01623  1.0000
  S   S1025     1.0  0.68018  0.20291  0.06425  1.0000
  C   C3797     1.0  0.84700  0.37799  0.20163  1.0000
  H   H4523     1.0  0.55756  0.28782  0.16096  1.0000
  H   H4524     1.0  0.92265  0.34326  0.28102  1.0000
  C   C3798     1.0  0.59840  0.22090  0.12921  1.0000
  H   H4525     1.0  0.62001  0.23807  0.09899  1.0000
  H   H4526     1.0  0.58686  0.18584  0.16736  1.0000
  C   C3799     1.0  0.56834  0.20153  0.15929  1.0000
  C   C3800     1.0  0.76547  0.19168  0.07263  1.0000
  C   C3801     1.0  0.97946  0.34939  0.23532  1.0000
  H   H4527     1.0  0.54952  0.21475  0.15061  1.0000
  H   H4528     1.0  0.70370  0.31168  0.20533  1.0000
  H   H4529     1.0  0.89103  0.29093  0.18422  1.0000
  H   H4530     1.0  0.72436  0.31033  0.18397  1.0000
  H   H4531     1.0  0.97440  0.36219  0.31061  1.0000
  H   H4532     1.0  0.88289  0.36455  0.33930  1.0000
  H   H4533     1.0  0.76296  0.36176  0.15039  1.0000
  C   C3802     1.0  0.99076  0.26203  0.31310  1.0000
  H   H4534     1.0  0.49501  0.27876  0.18310  1.0000
  N   N251      1.0  0.93990  0.30997  0.07493  1.0000
  Fe  Fe522     1.0  0.99307  0.19029  0.39160  1.0000
  C   C3803     1.0  0.93644  0.25095  0.43495  1.0000
  H   H4535     1.0  0.68422  0.22158  0.02602  1.0000
  C   C3804     1.0  0.93450  0.37344  0.23609  1.0000
  H   H4536     1.0  0.70798  0.37648  0.22013  1.0000
  H   H4537     1.0  0.63555  0.37585  0.10813  1.0000
  H   H4538     1.0  0.96789  0.29646  0.41128  1.0000
  S   S1026     1.0  0.94942  0.35236  0.27800  1.0000
  H   H4539     1.0  0.88552  0.29106  0.16787  1.0000
  H   H4540     1.0  0.87529  0.30905  0.19984  1.0000
  H   H4541     1.0  0.96685  0.28385  0.23846  1.0000
  C   C3805     1.0  0.66541  0.19499  0.04841  1.0000
  C   C3806     1.0  0.90739  0.32970  0.28359  1.0000
  C   C3807     1.0  0.90698  0.34591  0.41035  1.0000
  H   H4542     1.0  0.90152  0.33141  0.29453  1.0000
  H   H4543     1.0  0.88255  0.26913  0.02709  1.0000
  C   C3808     1.0  0.54615  0.28772  0.16129  1.0000
  H   H4544     1.0  0.65461  0.34516  0.14286  1.0000
  H   H4545     1.0  0.92621  0.37015  0.29639  1.0000
  N   N252      1.0  0.92839  0.32511  0.32854  1.0000
  C   C3809     1.0  0.93742  0.37340  0.21050  1.0000
  H   H4546     1.0  0.89115  0.33066  0.17510  1.0000
  H   H4547     1.0  0.83747  0.29116  0.07457  1.0000
  C   C3810     1.0  0.89195  0.29620  0.17229  1.0000
  C   C3811     1.0  0.88628  0.22113  0.45399  1.0000
  H   H4548     1.0  0.73744  0.24477  0.12246  1.0000
  C   C3812     1.0  0.76680  0.24482  0.05545  1.0000
  C   C3813     1.0  0.89942  0.32332  0.41256  1.0000
  C   C3814     1.0  0.87795  0.26116  0.07166  1.0000
  H   H4549     1.0  0.97383  0.35367  0.28900  1.0000
  H   H4550     1.0  0.90524  0.32975  0.32762  1.0000
  H   H4551     1.0  0.79082  0.30191  0.98135  1.0000
  H   H4552     1.0  0.60476  0.19889  0.14194  1.0000
  C   C3815     1.0  0.88861  0.31846  0.15351  1.0000
  H   H4553     1.0  0.71407  0.22043  0.14980  1.0000
  C   C3816     1.0  0.85478  0.27042  0.04274  1.0000
  H   H4554     1.0  0.83461  0.32707  0.17247  1.0000
  H   H4555     1.0  0.63506  0.35338  0.14648  1.0000
  C   C3817     1.0  0.85857  0.36126  0.18501  1.0000
  H   H4556     1.0  0.79077  0.29214  0.03627  1.0000
  C   C3818     1.0  0.96075  0.29768  0.36670  1.0000
  H   H4557     1.0  0.66468  0.34311  0.10203  1.0000
  C   C3819     1.0  0.85677  0.25222  0.07141  1.0000
  H   H4558     1.0  0.81765  0.28010  0.03633  1.0000
  N   N253      1.0  0.97526  0.35586  0.22077  1.0000
  H   H4559     1.0  0.75778  0.21346  0.03851  1.0000
  H   H4560     1.0  0.93457  0.32816  0.30473  1.0000
  S   S1027     1.0  0.91282  0.36534  0.34757  1.0000
  H   H4561     1.0  0.85445  0.25931  0.04176  1.0000
  N   N254      1.0  0.84848  0.36297  0.19948  1.0000
  H   H4562     1.0  0.86562  0.35349  0.21215  1.0000
  H   H4563     1.0  0.80182  0.18988  0.07165  1.0000
  H   H4564     1.0  0.69647  0.37898  0.19314  1.0000
  H   H4565     1.0  0.64822  0.36432  0.14362  1.0000
  S   S1028     1.0  0.50359  0.23052  0.12608  1.0000
  C   C3820     1.0  0.87357  0.36278  0.18196  1.0000
  C   C3821     1.0  0.86354  0.35766  0.15974  1.0000
  H   H4566     1.0  0.50834  0.28983  0.13604  1.0000
  H   H4567     1.0  0.84735  0.35267  0.22255  1.0000
  C   C3822     1.0  0.65407  0.34024  0.10760  1.0000
  N   N255      1.0  0.53815  0.19382  0.14562  1.0000
  C   C3823     1.0  0.95495  0.30333  0.37953  1.0000
  C   C3824     1.0  0.98005  0.34379  0.21257  1.0000
  Fe  Fe523     1.0  0.70636  0.19185  0.10382  1.0000
  H   H4568     1.0  0.53902  0.31137  0.15667  1.0000
  C   C3825     1.0  0.94959  0.36645  0.23536  1.0000
  H   H4569     1.0  0.54254  0.21355  0.12933  1.0000
  S   S1029     1.0  0.96437  0.33271  0.19004  1.0000
  C   C3826     1.0  0.98381  0.36741  0.21255  1.0000
  H   H4570     1.0  0.87798  0.36479  0.19019  1.0000
  S   S1030     1.0  0.85937  0.37253  0.23761  1.0000
  C   C3827     1.0  0.65064  0.32921  0.10313  1.0000
  H   H4571     1.0  0.93400  0.28191  0.41977  1.0000
  C   C3828     1.0  0.71518  0.22251  0.03627  1.0000
  C   C3829     1.0  0.72655  0.21447  0.02658  1.0000
  H   H4572     1.0  0.66967  0.26503  0.13825  1.0000
  Fe  Fe524     1.0  0.73132  0.18426  0.07804  1.0000
  H   H4573     1.0  0.70790  0.31153  0.22946  1.0000
  S   S1031     1.0  0.81912  0.37614  0.25831  1.0000
  H   H4574     1.0  0.74225  0.22873  0.03699  1.0000
  C   C3830     1.0  0.88313  0.36197  0.16815  1.0000
  H   H4575     1.0  0.73328  0.31022  0.23201  1.0000
  C   C3831     1.0  0.90261  0.32136  0.27692  1.0000
  H   H4576     1.0  0.85965  0.35568  0.15106  1.0000
  C   C3832     1.0  0.75481  0.37173  0.14712  1.0000
  N   N256      1.0  0.75437  0.30743  0.18245  1.0000
  C   C3833     1.0  0.75342  0.29726  0.17386  1.0000
  C   C3834     1.0  0.75361  0.32246  0.17285  1.0000
  C   C3835     1.0  0.76926  0.30214  0.18634  1.0000
  C   C3836     1.0  0.74182  0.30805  0.19556  1.0000
  C   C3837     1.0  0.72698  0.30938  0.19440  1.0000
  C   C3838     1.0  0.74374  0.30843  0.20952  1.0000
  C   C3839     1.0  0.71499  0.31025  0.20660  1.0000
  C   C3840     1.0  0.73163  0.30947  0.22161  1.0000
  C   C3841     1.0  0.71731  0.31026  0.22018  1.0000
  C   C3842     1.0  0.64410  0.34702  0.11906  1.0000
  H   H4577     1.0  0.70348  0.20781  0.00870  1.0000
  H   H4578     1.0  0.74534  0.36120  0.13614  1.0000
  C   C3843     1.0  0.96364  0.28251  0.36757  1.0000
  H   H4579     1.0  0.79367  0.38010  0.20482  1.0000
  N   N257      1.0  0.50167  0.28701  0.15965  1.0000
  C   C3844     1.0  0.93205  0.29413  0.41580  1.0000
  H   H4580     1.0  0.95746  0.19582  0.40833  1.0000
  H   H4581     1.0  0.95355  0.36431  0.24535  1.0000
  H   H4582     1.0  0.93393  0.32087  0.39828  1.0000
  H   H4583     1.0  0.93348  0.30889  0.05556  1.0000
  H   H4584     1.0  0.93169  0.21100  0.40652  1.0000
  H   H4585     1.0  0.96295  0.26106  0.38199  1.0000
  H   H4586     1.0  0.50130  0.26463  0.17252  1.0000
  Fe  Fe525     1.0  0.69903  0.19151  0.07569  1.0000
  H   H4587     1.0  0.88546  0.35910  0.14627  1.0000
  H   H4588     1.0  0.83909  0.37993  0.21219  1.0000
  S   S1032     1.0  0.85421  0.38170  0.26918  1.0000
  H   H4589     1.0  0.90644  0.37360  0.20130  1.0000
  C   C3845     1.0  0.98843  0.30277  0.20913  1.0000
  C   C3846     1.0  0.76585  0.19523  0.98741  1.0000
  H   H4590     1.0  0.52549  0.26353  0.16396  1.0000
  C   C3847     1.0  0.77070  0.20781  0.97815  1.0000
  C   C3848     1.0  0.74491  0.37139  0.13909  1.0000
  H   H4591     1.0  0.89281  0.31685  0.28267  1.0000
  C   C3849     1.0  0.88138  0.36800  0.32806  1.0000
  H   H4592     1.0  0.97353  0.29434  0.10657  1.0000
  C   C3850     1.0  0.79905  0.29850  0.98813  1.0000
  C   C3851     1.0  0.96078  0.27289  0.38127  1.0000
  H   H4593     1.0  0.82751  0.36937  0.19253  1.0000
  C   C3852     1.0  0.51668  0.28747  0.16072  1.0000
  C   C3853     1.0  0.87808  0.35954  0.15702  1.0000
  H   H4594     1.0  0.93935  0.27029  0.11590  1.0000
  H   H4595     1.0  0.95288  0.31519  0.37803  1.0000
  H   H4596     1.0  0.76075  0.19235  0.02996  1.0000
  H   H4597     1.0  0.83327  0.34975  0.20024  1.0000
  H   H4598     1.0  0.92956  0.28641  0.09481  1.0000
  C   C3854     1.0  0.66196  0.36253  0.11630  1.0000
  H   H4599     1.0  0.76199  0.21512  0.09462  1.0000
  H   H4600     1.0  0.96059  0.31496  0.06091  1.0000
  C   C3855     1.0  0.94238  0.31563  0.40523  1.0000
  C   C3856     1.0  0.92841  0.37687  0.22371  1.0000
  S   S1033     1.0  0.87535  0.26205  0.47294  1.0000
  H   H4601     1.0  0.65845  0.32410  0.09447  1.0000
  H   H4602     1.0  0.92994  0.29428  0.07087  1.0000
  C   C3857     1.0  0.97727  0.29498  0.21701  1.0000
  C   C3858     1.0  0.52112  0.30095  0.15855  1.0000
  S   S1034     1.0  0.79491  0.26076  0.98791  1.0000
  C   C3859     1.0  0.88079  0.38275  0.32053  1.0000
  C   C3860     1.0  0.49515  0.27627  0.17249  1.0000
  H   H4603     1.0  0.88075  0.25097  0.98163  1.0000
  S   S1035     1.0  0.98717  0.20669  0.40605  1.0000
  H   H4604     1.0  0.86794  0.20079  0.00291  1.0000
  H   H4605     1.0  0.92749  0.37627  0.24635  1.0000
  H   H4606     1.0  0.95906  0.36447  0.19897  1.0000
  H   H4607     1.0  0.70298  0.18475  0.04577  1.0000
  H   H4608     1.0  0.88790  0.21433  0.99196  1.0000
  H   H4609     1.0  0.50014  0.22413  0.10028  1.0000
  H   H4610     1.0  0.93124  0.21518  0.42368  1.0000
  H   H4611     1.0  0.62412  0.37164  0.12633  1.0000
  H   H4612     1.0  0.79479  0.37821  0.24509  1.0000
  H   H4613     1.0  0.52584  0.21376  0.15356  1.0000
  C   C3861     1.0  0.99443  0.30228  0.23205  1.0000
  H   H4614     1.0  0.71563  0.37680  0.19309  1.0000
  C   C3862     1.0  0.50315  0.28226  0.14593  1.0000
  H   H4615     1.0  0.65541  0.20139  0.05420  1.0000
  H   H4616     1.0  0.65367  0.18895  0.03571  1.0000
  H   H4617     1.0  0.91642  0.20850  0.42206  1.0000
  H   H4618     1.0  0.72948  0.38206  0.20627  1.0000
  H   H4619     1.0  0.55094  0.19657  0.12323  1.0000
  H   H4620     1.0  0.93455  0.19399  0.44588  1.0000
  C   C3863     1.0  0.95305  0.19217  0.42039  1.0000
  C   C3864     1.0  0.78976  0.19325  0.07448  1.0000
  H   H4621     1.0  0.68886  0.37943  0.21978  1.0000
  H   H4622     1.0  0.83327  0.30271  0.98760  1.0000
  C   C3865     1.0  0.67927  0.19369  0.05138  1.0000
  H   H4623     1.0  0.93272  0.37605  0.20082  1.0000
  H   H4624     1.0  0.77008  0.18987  0.99730  1.0000
  H   H4625     1.0  0.92676  0.37850  0.31822  1.0000
  H   H4626     1.0  0.97819  0.35801  0.24147  1.0000
  H   H4627     1.0  0.51452  0.20366  0.15061  1.0000
  Fe  Fe526     1.0  0.99228  0.31077  0.26419  1.0000
  H   H4628     1.0  0.98063  0.37676  0.21826  1.0000
  H   H4629     1.0  0.74249  0.18907  0.03907  1.0000
  H   H4630     1.0  0.97266  0.34126  0.24235  1.0000
  H   H4631     1.0  0.89500  0.23573  0.98772  1.0000
  C   C3866     1.0  0.69220  0.18549  0.04376  1.0000
  H   H4632     1.0  0.98929  0.31768  0.32612  1.0000
  C   C3867     1.0  0.78106  0.18766  0.06878  1.0000
  H   H4633     1.0  0.98176  0.37210  0.20118  1.0000
  C   C3868     1.0  0.55149  0.19138  0.15168  1.0000
  S   S1036     1.0  0.99129  0.33293  0.26786  1.0000
  S   S1037     1.0  0.75504  0.18390  0.06567  1.0000
  C   C3869     1.0  0.99283  0.29389  0.33174  1.0000
  C   C3870     1.0  0.87893  0.21685  0.98628  1.0000
  C   C3871     1.0  0.89164  0.24366  0.97780  1.0000
  H   H4634     1.0  0.81449  0.31071  0.97210  1.0000
  N   N258      1.0  0.91151  0.32062  0.84544  1.0000
  N   N259      1.0  0.94053  0.30674  0.75930  1.0000
  S   S1038     1.0  0.79995  0.22985  0.97709  1.0000
  H   H4635     1.0  0.97256  0.34573  0.80831  1.0000
  Fe  Fe527     1.0  0.92526  0.34560  0.78990  1.0000
  S   S1039     1.0  0.90270  0.34814  0.78590  1.0000
  H   H4636     1.0  0.66511  0.21000  0.88556  1.0000
  H   H4637     1.0  0.93024  0.18549  0.64777  1.0000
  H   H4638     1.0  0.91874  0.23006  0.56715  1.0000
  Fe  Fe528     1.0  0.89829  0.37119  0.78912  1.0000
  H   H4639     1.0  0.51335  0.18642  0.92074  1.0000
  Fe  Fe529     1.0  0.91288  0.35728  0.76238  1.0000
  S   S1040     1.0  0.91125  0.34638  0.74537  1.0000
  S   S1041     1.0  0.92003  0.36786  0.79535  1.0000
  H   H4640     1.0  0.88808  0.22746  0.59941  1.0000
  H   H4641     1.0  0.86231  0.30913  0.97340  1.0000
  C   C3872     1.0  0.67940  0.19314  0.95206  1.0000
  H   H4642     1.0  0.98926  0.26161  0.63755  1.0000
  Fe  Fe530     1.0  0.95667  0.35619  0.64142  1.0000
  C   C3873     1.0  0.99007  0.23999  0.67877  1.0000
  S   S1042     1.0  0.96068  0.34459  0.62272  1.0000
  Fe  Fe531     1.0  0.96640  0.35234  0.66991  1.0000
  H   H4643     1.0  0.92339  0.35131  0.56820  1.0000
  Fe  Fe532     1.0  0.96404  0.38243  0.64811  1.0000
  H   H4644     1.0  0.51836  0.22097  0.83728  1.0000
  S   S1043     1.0  0.94679  0.34737  0.66526  1.0000
  Fe  Fe533     1.0  0.98891  0.30351  0.84840  1.0000
  Fe  Fe534     1.0  0.92026  0.26224  0.59685  1.0000
  S   S1044     1.0  0.94247  0.25737  0.58140  1.0000
  S   S1045     1.0  0.90297  0.24954  0.59902  1.0000
  Fe  Fe535     1.0  0.92792  0.28752  0.60498  1.0000
  S   S1046     1.0  0.95065  0.28450  0.59003  1.0000
  S   S1047     1.0  0.91975  0.30420  0.61958  1.0000
  Fe  Fe536     1.0  0.93906  0.28198  0.57390  1.0000
  S   S1048     1.0  0.94395  0.29244  0.54967  1.0000
  Fe  Fe537     1.0  0.95152  0.26030  0.59912  1.0000
  S   S1049     1.0  0.97187  0.24566  0.60671  1.0000
  S   S1050     1.0  0.91608  0.28687  0.58814  1.0000
  S   S1051     1.0  0.92953  0.26334  0.61533  1.0000
  C   C3874     1.0  0.90512  0.22603  0.96267  1.0000
  S   S1052     1.0  0.64397  0.20183  0.84293  1.0000
  H   H4645     1.0  0.94339  0.35403  0.72029  1.0000
  H   H4646     1.0  0.94242  0.21957  0.50554  1.0000
  S   S1053     1.0  0.57577  0.18933  0.86745  1.0000
  S   S1054     1.0  0.78950  0.26195  0.95542  1.0000
  C   C3875     1.0  0.56487  0.21179  0.90081  1.0000
  Fe  Fe538     1.0  0.84409  0.35443  0.88451  1.0000
  Fe  Fe539     1.0  0.89077  0.30489  0.97737  1.0000
  H   H4647     1.0  0.91110  0.31810  0.59171  1.0000
  Fe  Fe540     1.0  0.81549  0.34355  0.89084  1.0000
  S   S1055     1.0  0.80576  0.35235  0.91134  1.0000
  S   S1056     1.0  0.80180  0.33028  0.88672  1.0000
  H   H4648     1.0  0.70967  0.28207  0.94546  1.0000
  H   H4649     1.0  0.99093  0.24680  0.80201  1.0000
  Fe  Fe541     1.0  0.82855  0.34315  0.91612  1.0000
  H   H4650     1.0  0.95717  0.27114  0.66289  1.0000
  S   S1057     1.0  0.83782  0.33273  0.89654  1.0000
  Fe  Fe542     1.0  0.69844  0.36365  0.92356  1.0000
  S   S1058     1.0  0.69621  0.37050  0.89999  1.0000
  H   H4651     1.0  0.93097  0.31402  0.90718  1.0000
  Fe  Fe543     1.0  0.71399  0.33206  0.92077  1.0000
  S   S1059     1.0  0.71362  0.33672  0.89684  1.0000
  S   S1060     1.0  0.72335  0.30823  0.92999  1.0000
  Fe  Fe544     1.0  0.71998  0.35779  0.89534  1.0000
  C   C3876     1.0  0.87859  0.22788  0.97300  1.0000
  Fe  Fe545     1.0  0.68995  0.34864  0.90402  1.0000
  S   S1061     1.0  0.67180  0.34504  0.89543  1.0000
  S   S1062     1.0  0.72256  0.35207  0.91870  1.0000
  S   S1063     1.0  0.68995  0.34289  0.92818  1.0000
  Fe  Fe546     1.0  0.64293  0.25677  0.88756  1.0000
  S   S1064     1.0  0.62615  0.24426  0.90292  1.0000
  S   S1065     1.0  0.64964  0.25636  0.86345  1.0000
  Fe  Fe547     1.0  0.64722  0.26869  0.91165  1.0000
  S   S1066     1.0  0.63078  0.25679  0.92899  1.0000
  S   S1067     1.0  0.65891  0.28049  0.92067  1.0000
  Fe  Fe548     1.0  0.64172  0.23758  0.91824  1.0000
  S   S1068     1.0  0.64486  0.21433  0.93201  1.0000
  Fe  Fe549     1.0  0.61670  0.26454  0.91216  1.0000
  S   S1069     1.0  0.59185  0.27248  0.91938  1.0000
  S   S1070     1.0  0.65944  0.24866  0.90218  1.0000
  S   S1071     1.0  0.63221  0.27794  0.89549  1.0000
  N   N260      1.0  0.93836  0.23327  0.54982  1.0000
  C   C3877     1.0  0.94769  0.29429  0.92912  1.0000
  H   H4652     1.0  0.92478  0.32868  0.54052  1.0000
  H   H4653     1.0  0.91694  0.31291  0.76909  1.0000
  H   H4654     1.0  0.95116  0.28451  0.75685  1.0000
  C   C3878     1.0  0.76418  0.35651  0.91611  1.0000
  C   C3879     1.0  0.54947  0.23143  0.83776  1.0000
  C   C3880     1.0  0.93374  0.20449  0.52502  1.0000
  C   C3881     1.0  0.84693  0.26962  0.96613  1.0000
  Fe  Fe550     1.0  0.53369  0.25792  0.88553  1.0000
  S   S1072     1.0  0.51618  0.27236  0.87310  1.0000
  S   S1073     1.0  0.55746  0.26076  0.87805  1.0000
  Fe  Fe551     1.0  0.51303  0.23790  0.90510  1.0000
  C   C3882     1.0  0.74171  0.29027  0.94769  1.0000
  H   H4655     1.0  0.53931  0.23107  0.83512  1.0000
  Fe  Fe552     1.0  0.51113  0.25086  0.87328  1.0000
  H   H4656     1.0  0.93387  0.31017  0.57256  1.0000
  S   S1074     1.0  0.83666  0.36402  0.90473  1.0000
  Fe  Fe553     1.0  0.78057  0.24146  0.96621  1.0000
  S   S1075     1.0  0.52984  0.23660  0.88392  1.0000
  S   S1076     1.0  0.51864  0.25778  0.90796  1.0000
  S   S1077     1.0  0.51034  0.21805  0.92360  1.0000
  H   H4657     1.0  0.90145  0.32836  0.93392  1.0000
  Fe  Fe554     1.0  0.98708  0.27148  0.85938  1.0000
  S   S1078     1.0  0.70981  0.19111  0.94466  1.0000
  S   S1079     1.0  0.77082  0.23104  0.95405  1.0000
  C   C3883     1.0  0.96717  0.28517  0.64266  1.0000
  H   H4658     1.0  0.95610  0.24274  0.53405  1.0000
  C   C3884     1.0  0.77074  0.29526  0.91853  1.0000
  C   C3885     1.0  0.98169  0.31672  0.75982  1.0000
  S   S1080     1.0  0.69044  0.38031  0.93811  1.0000
  C   C3886     1.0  0.96921  0.22369  0.84469  1.0000
  H   H4659     1.0  0.89339  0.36127  0.84905  1.0000
  C   C3887     1.0  0.85517  0.22224  0.97270  1.0000
  C   C3888     1.0  0.97004  0.20600  0.74230  1.0000
  C   C3889     1.0  0.88397  0.36471  0.84382  1.0000
  C   C3890     1.0  0.61420  0.21088  0.90937  1.0000
  Fe  Fe555     1.0  0.91009  0.27656  0.49297  1.0000
  S   S1081     1.0  0.90695  0.27131  0.51776  1.0000
  C   C3891     1.0  0.98017  0.25665  0.83533  1.0000
  Fe  Fe556     1.0  0.63064  0.18641  0.85961  1.0000
  H   H4660     1.0  0.95378  0.26620  0.62621  1.0000
  H   H4661     1.0  0.91539  0.24479  0.55150  1.0000
  S   S1082     1.0  0.88312  0.32814  0.96506  1.0000
  H   H4662     1.0  0.95972  0.22002  0.55362  1.0000
  H   H4663     1.0  0.88391  0.24495  0.57666  1.0000
  C   C3892     1.0  0.50600  0.20434  0.85022  1.0000
  C   C3893     1.0  0.98152  0.22029  0.79202  1.0000
  C   C3894     1.0  0.58758  0.21254  0.91413  1.0000
  C   C3895     1.0  0.88534  0.31480  0.92541  1.0000
  H   H4664     1.0  0.88546  0.33483  0.90172  1.0000
  S   S1083     1.0  0.83037  0.25574  0.95779  1.0000
  H   H4665     1.0  0.84258  0.30864  0.96174  1.0000
  H   H4666     1.0  0.96429  0.22852  0.69386  1.0000
  H   H4667     1.0  0.94500  0.23625  0.51881  1.0000
  C   C3896     1.0  0.75529  0.20908  0.96161  1.0000
  H   H4668     1.0  0.95864  0.27094  0.90558  1.0000
  C   C3897     1.0  0.93348  0.32217  0.56814  1.0000
  C   C3898     1.0  0.75121  0.28713  0.95733  1.0000
  C   C3899     1.0  0.96105  0.28129  0.65806  1.0000
  H   H4669     1.0  0.75587  0.35116  0.91476  1.0000
  H   H4670     1.0  0.94550  0.25335  0.54752  1.0000
  C   C3900     1.0  0.91120  0.32975  0.58566  1.0000
  H   H4671     1.0  0.92381  0.34802  0.55079  1.0000
  S   S1084     1.0  0.92459  0.26317  0.95433  1.0000
  C   C3901     1.0  0.94846  0.22459  0.55991  1.0000
  H   H4672     1.0  0.95288  0.30261  0.78308  1.0000
  C   C3902     1.0  0.92350  0.23899  0.55871  1.0000
  H   H4673     1.0  0.84647  0.36738  0.85200  1.0000
  H   H4674     1.0  0.59737  0.23647  0.91589  1.0000
  C   C3903     1.0  0.95792  0.23244  0.83750  1.0000
  H   H4675     1.0  0.91775  0.33375  0.59105  1.0000
  C   C3904     1.0  0.86725  0.32933  0.95869  1.0000
  H   H4676     1.0  0.89161  0.21973  0.57165  1.0000
  C   C3905     1.0  0.93443  0.32390  0.85110  1.0000
  H   H4677     1.0  0.98866  0.23251  0.71549  1.0000
  S   S1085     1.0  0.82973  0.32861  0.93855  1.0000
  S   S1086     1.0  0.73778  0.36813  0.87836  1.0000
  C   C3906     1.0  0.96201  0.26950  0.82022  1.0000
  H   H4678     1.0  0.91437  0.23208  0.95769  1.0000
  H   H4679     1.0  0.89183  0.31896  0.58133  1.0000
  H   H4680     1.0  0.90426  0.21896  0.52301  1.0000
  C   C3907     1.0  0.94904  0.36247  0.71195  1.0000
  H   H4681     1.0  0.54844  0.18858  0.86079  1.0000
  C   C3908     1.0  0.99396  0.20732  0.74525  1.0000
  H   H4682     1.0  0.52492  0.20282  0.89927  1.0000
  Fe  Fe557     1.0  0.97815  0.26678  0.74028  1.0000
  S   S1087     1.0  0.76580  0.29431  0.97380  1.0000
  H   H4683     1.0  0.94560  0.28409  0.63057  1.0000
  C   C3909     1.0  0.97777  0.24073  0.71603  1.0000
  Fe  Fe558     1.0  0.97869  0.29134  0.88116  1.0000
  C   C3910     1.0  0.58215  0.26908  0.90811  1.0000
  C   C3911     1.0  0.58975  0.26579  0.89440  1.0000
  C   C3912     1.0  0.58202  0.26317  0.88538  1.0000
  C   C3913     1.0  0.56663  0.26377  0.89000  1.0000
  C   C3914     1.0  0.55901  0.26684  0.90382  1.0000
  C   C3915     1.0  0.56676  0.26957  0.91285  1.0000
  H   H4684     1.0  0.60154  0.26566  0.89053  1.0000
  H   H4685     1.0  0.58798  0.26090  0.87468  1.0000
  H   H4686     1.0  0.54713  0.26738  0.90744  1.0000
  H   H4687     1.0  0.56084  0.27211  0.92346  1.0000
  C   C3916     1.0  0.72478  0.23823  0.95808  1.0000
  C   C3917     1.0  0.77854  0.30227  0.92377  1.0000
  C   C3918     1.0  0.66859  0.32691  0.90185  1.0000
  C   C3919     1.0  0.67386  0.31752  0.91410  1.0000
  C   C3920     1.0  0.67051  0.30349  0.91977  1.0000
  C   C3921     1.0  0.66245  0.29837  0.91291  1.0000
  C   C3922     1.0  0.65734  0.30760  0.90047  1.0000
  C   C3923     1.0  0.66025  0.32194  0.89508  1.0000
  H   H4688     1.0  0.68019  0.32122  0.91947  1.0000
  H   H4689     1.0  0.67404  0.29662  0.92965  1.0000
  H   H4690     1.0  0.65114  0.30376  0.89507  1.0000
  H   H4691     1.0  0.65613  0.32916  0.88560  1.0000
  H   H4692     1.0  0.94172  0.20375  0.59659  1.0000
  C   C3924     1.0  0.78425  0.34062  0.88349  1.0000
  C   C3925     1.0  0.77183  0.33414  0.88919  1.0000
  C   C3926     1.0  0.75754  0.34252  0.88757  1.0000
  C   C3927     1.0  0.75571  0.35727  0.87976  1.0000
  C   C3928     1.0  0.76821  0.36360  0.87362  1.0000
  C   C3929     1.0  0.78242  0.35539  0.87575  1.0000
  H   H4693     1.0  0.77321  0.32269  0.89508  1.0000
  H   H4694     1.0  0.74796  0.33751  0.89225  1.0000
  Fe  Fe559     1.0  0.81463  0.37223  0.89803  1.0000
  C   C3930     1.0  0.95954  0.29059  0.66746  1.0000
  C   C3931     1.0  0.75366  0.29857  0.96191  1.0000
  C   C3932     1.0  0.74658  0.31325  0.95680  1.0000
  C   C3933     1.0  0.73707  0.31642  0.94702  1.0000
  C   C3934     1.0  0.73469  0.30488  0.94248  1.0000
  H   H4695     1.0  0.97935  0.21916  0.70345  1.0000
  C   C3935     1.0  0.96783  0.20105  0.80412  1.0000
  H   H4696     1.0  0.71982  0.21657  0.96540  1.0000
  H   H4697     1.0  0.73149  0.32770  0.94315  1.0000
  H   H4698     1.0  0.69998  0.29313  0.93150  1.0000
  S   S1088     1.0  0.96648  0.19193  0.72313  1.0000
  H   H4699     1.0  0.97972  0.25128  0.71675  1.0000
  H   H4700     1.0  0.92398  0.24697  0.56488  1.0000
  H   H4701     1.0  0.95818  0.19770  0.81280  1.0000
  H   H4702     1.0  0.92889  0.30987  0.78137  1.0000
  C   C3936     1.0  0.69162  0.19770  0.94158  1.0000
  C   C3937     1.0  0.96892  0.22798  0.70339  1.0000
  C   C3938     1.0  0.66502  0.19826  0.94911  1.0000
  C   C3939     1.0  0.66279  0.20823  0.93584  1.0000
  C   C3940     1.0  0.67503  0.21274  0.92538  1.0000
  C   C3941     1.0  0.68941  0.20743  0.92821  1.0000
  H   H4703     1.0  0.88960  0.30897  0.54189  1.0000
  H   H4704     1.0  0.87977  0.30919  0.56842  1.0000
  H   H4705     1.0  0.67350  0.22004  0.91493  1.0000
  H   H4706     1.0  0.69883  0.21093  0.92003  1.0000
  H   H4707     1.0  0.90543  0.29403  0.91216  1.0000
  H   H4708     1.0  0.98191  0.21886  0.78086  1.0000
  C   C3942     1.0  0.97930  0.21038  0.82497  1.0000
  C   C3943     1.0  0.89748  0.33324  0.89841  1.0000
  N   N261      1.0  0.96835  0.27527  0.63292  1.0000
  S   S1089     1.0  0.96314  0.27834  0.72449  1.0000
  C   C3944     1.0  0.64504  0.21690  0.84906  1.0000
  C   C3945     1.0  0.64036  0.21750  0.86401  1.0000
  C   C3946     1.0  0.64181  0.22951  0.86861  1.0000
  C   C3947     1.0  0.64764  0.24107  0.85826  1.0000
  C   C3948     1.0  0.65211  0.24047  0.84332  1.0000
  C   C3949     1.0  0.65090  0.22839  0.83875  1.0000
  H   H4709     1.0  0.63606  0.20853  0.87207  1.0000
  H   H4710     1.0  0.63865  0.22968  0.88016  1.0000
  H   H4711     1.0  0.65667  0.24933  0.83528  1.0000
  H   H4712     1.0  0.65456  0.22798  0.82719  1.0000
  H   H4713     1.0  0.98894  0.30927  0.90681  1.0000
  C   C3950     1.0  0.93317  0.28753  0.54052  1.0000
  C   C3951     1.0  0.92140  0.28068  0.54869  1.0000
  C   C3952     1.0  0.91298  0.27648  0.54146  1.0000
  C   C3953     1.0  0.91646  0.27876  0.52604  1.0000
  C   C3954     1.0  0.92807  0.28583  0.51779  1.0000
  C   C3955     1.0  0.93638  0.29028  0.52504  1.0000
  H   H4714     1.0  0.91876  0.27859  0.56060  1.0000
  H   H4715     1.0  0.90391  0.27118  0.54789  1.0000
  H   H4716     1.0  0.93085  0.28759  0.50587  1.0000
  H   H4717     1.0  0.94547  0.29559  0.51867  1.0000
  C   C3956     1.0  0.89658  0.31943  0.56972  1.0000
  H   H4718     1.0  0.51082  0.19711  0.84254  1.0000
  H   H4719     1.0  0.76930  0.34954  0.92550  1.0000
  C   C3957     1.0  0.94917  0.33332  0.62221  1.0000
  C   C3958     1.0  0.95307  0.32617  0.61040  1.0000
  C   C3959     1.0  0.94423  0.31712  0.60955  1.0000
  C   C3960     1.0  0.93136  0.31517  0.62049  1.0000
  C   C3961     1.0  0.92746  0.32232  0.63230  1.0000
  C   C3962     1.0  0.93637  0.33129  0.63321  1.0000
  H   H4720     1.0  0.96294  0.32774  0.60183  1.0000
  H   H4721     1.0  0.94727  0.31184  0.60033  1.0000
  H   H4722     1.0  0.91748  0.32091  0.64078  1.0000
  H   H4723     1.0  0.93326  0.33673  0.64236  1.0000
  C   C3963     1.0  0.96805  0.29488  0.71370  1.0000
  C   C3964     1.0  0.95862  0.30486  0.70482  1.0000
  C   C3965     1.0  0.96222  0.31834  0.69651  1.0000
  H   H4724     1.0  0.97823  0.27004  0.69462  1.0000
  H   H4725     1.0  0.94839  0.30230  0.70455  1.0000
  H   H4726     1.0  0.95475  0.32611  0.68993  1.0000
  C   C3966     1.0  0.83750  0.25966  0.97079  1.0000
  H   H4727     1.0  0.65559  0.19474  0.95725  1.0000
  C   C3967     1.0  0.98423  0.25245  0.81066  1.0000
  H   H4728     1.0  0.49992  0.18633  0.91127  1.0000
  H   H4729     1.0  0.64165  0.18637  0.80328  1.0000
  Fe  Fe560     1.0  0.80744  0.25133  0.96818  1.0000
  H   H4730     1.0  0.66911  0.19720  0.86544  1.0000
  C   C3968     1.0  0.97044  0.30794  0.64685  1.0000
  N   N262      1.0  0.58906  0.23225  0.85051  1.0000
  H   H4731     1.0  0.99131  0.28943  0.92855  1.0000
  H   H4732     1.0  0.93243  0.23001  0.59858  1.0000
  H   H4733     1.0  0.55635  0.21157  0.89549  1.0000
  C   C3969     1.0  0.91157  0.35626  0.72709  1.0000
  C   C3970     1.0  0.91718  0.34840  0.71581  1.0000
  C   C3971     1.0  0.91797  0.35588  0.70103  1.0000
  C   C3972     1.0  0.85964  0.37414  0.83027  1.0000
  H   H4734     1.0  0.97630  0.30299  0.62577  1.0000
  H   H4735     1.0  0.95493  0.22387  0.78599  1.0000
  H   H4736     1.0  0.92107  0.33650  0.71846  1.0000
  H   H4737     1.0  0.92238  0.34972  0.69238  1.0000
  H   H4738     1.0  0.90616  0.35322  0.56297  1.0000
  Fe  Fe561     1.0  0.50065  0.27065  0.89555  1.0000
  H   H4739     1.0  0.92747  0.32626  0.76702  1.0000
  H   H4740     1.0  0.84801  0.35021  0.93224  1.0000
  C   C3973     1.0  0.95653  0.33591  0.80474  1.0000
  S   S1090     1.0  0.90629  0.38078  0.76500  1.0000
  C   C3974     1.0  0.95864  0.20769  0.64423  1.0000
  C   C3975     1.0  0.88393  0.24334  0.56599  1.0000
  C   C3976     1.0  0.97669  0.22260  0.63001  1.0000
  C   C3977     1.0  0.96697  0.23065  0.62068  1.0000
  C   C3978     1.0  0.95321  0.22700  0.62291  1.0000
  C   C3979     1.0  0.94905  0.21549  0.63467  1.0000
  C   C3980     1.0  0.91779  0.34650  0.56258  1.0000
  C   C3981     1.0  0.86637  0.23027  0.96631  1.0000
  H   H4741     1.0  0.94577  0.23301  0.61557  1.0000
  H   H4742     1.0  0.93836  0.21278  0.63642  1.0000
  C   C3982     1.0  0.84399  0.32936  0.94624  1.0000
  H   H4743     1.0  0.58741  0.22862  0.93394  1.0000
  H   H4744     1.0  0.60724  0.22651  0.93010  1.0000
  H   H4745     1.0  0.93309  0.29072  0.95063  1.0000
  C   C3983     1.0  0.94073  0.22663  0.52536  1.0000
  H   H4746     1.0  0.90253  0.30964  0.94421  1.0000
  H   H4747     1.0  0.94988  0.23147  0.56673  1.0000
  H   H4748     1.0  0.77256  0.31281  0.92640  1.0000
  H   H4749     1.0  0.94572  0.37938  0.79193  1.0000
  C   C3984     1.0  0.92028  0.20097  0.59606  1.0000
  C   C3985     1.0  0.90514  0.20765  0.59705  1.0000
  C   C3986     1.0  0.89985  0.22241  0.59850  1.0000
  C   C3987     1.0  0.90971  0.23066  0.59869  1.0000
  C   C3988     1.0  0.92480  0.22384  0.59812  1.0000
  C   C3989     1.0  0.93004  0.20897  0.59699  1.0000
  H   H4750     1.0  0.89742  0.20140  0.59695  1.0000
  C   C3990     1.0  0.95728  0.31030  0.81729  1.0000
  H   H4751     1.0  0.95470  0.23810  0.79445  1.0000
  C   C3991     1.0  0.85342  0.27215  0.97628  1.0000
  C   C3992     1.0  0.97534  0.32178  0.69691  1.0000
  H   H4752     1.0  0.91763  0.19485  0.62727  1.0000
  H   H4753     1.0  0.77880  0.37741  0.90790  1.0000
  C   C3993     1.0  0.88834  0.22920  0.56311  1.0000
  H   H4754     1.0  0.57454  0.23527  0.91469  1.0000
  H   H4755     1.0  0.89223  0.21599  0.54753  1.0000
  C   C3994     1.0  0.97259  0.31079  0.77290  1.0000
  H   H4756     1.0  0.95140  0.27693  0.81893  1.0000
  H   H4757     1.0  0.92504  0.19167  0.54614  1.0000
  C   C3995     1.0  0.58761  0.19975  0.90960  1.0000
  C   C3996     1.0  0.91265  0.37119  0.69749  1.0000
  H   H4758     1.0  0.56142  0.21028  0.83296  1.0000
  C   C3997     1.0  0.91839  0.34143  0.88007  1.0000
  H   H4759     1.0  0.63944  0.18807  0.82162  1.0000
  S   S1091     1.0  0.90004  0.18775  0.53623  1.0000
  H   H4760     1.0  0.75316  0.19628  0.93288  1.0000
  C   C3998     1.0  0.76535  0.21484  0.96529  1.0000
  H   H4761     1.0  0.61731  0.19997  0.90625  1.0000
  S   S1092     1.0  0.89022  0.28974  0.48348  1.0000
  C   C3999     1.0  0.97068  0.26236  0.80886  1.0000
  H   H4762     1.0  0.97267  0.21752  0.75722  1.0000
  Fe  Fe562     1.0  0.97964  0.26028  0.77231  1.0000
  H   H4763     1.0  0.91195  0.31889  0.52818  1.0000
  C   C4000     1.0  0.96793  0.21909  0.81733  1.0000
  H   H4764     1.0  0.96015  0.27251  0.84201  1.0000
  H   H4765     1.0  0.49744  0.25036  0.93980  1.0000
  H   H4766     1.0  0.86492  0.23853  0.95633  1.0000
  C   C4001     1.0  0.66903  0.19084  0.87666  1.0000
  C   C4002     1.0  0.94409  0.26719  0.92729  1.0000
  C   C4003     1.0  0.93671  0.27280  0.94001  1.0000
  H   H4767     1.0  0.94268  0.25671  0.92654  1.0000
  C   C4004     1.0  0.90306  0.34256  0.88524  1.0000
  C   C4005     1.0  0.90751  0.31931  0.53973  1.0000
  S   S1093     1.0  0.93590  0.35313  0.76623  1.0000
  H   H4768     1.0  0.98002  0.20524  0.64904  1.0000
  C   C4006     1.0  0.90725  0.32255  0.90694  1.0000
  H   H4769     1.0  0.94857  0.23791  0.81879  1.0000
  S   S1094     1.0  0.93475  0.32349  0.80282  1.0000
  C   C4007     1.0  0.59783  0.22668  0.92531  1.0000
  H   H4770     1.0  0.75131  0.21436  0.95156  1.0000
  H   H4771     1.0  0.87648  0.26652  0.55723  1.0000
  C   C4008     1.0  0.95653  0.25288  0.70484  1.0000
  C   C4009     1.0  0.56197  0.21982  0.83644  1.0000
  H   H4772     1.0  0.94381  0.28630  0.77565  1.0000
  C   C4010     1.0  0.95071  0.32325  0.80843  1.0000
  C   C4011     1.0  0.49513  0.20049  0.86283  1.0000
  H   H4773     1.0  0.97312  0.25481  0.64906  1.0000
  H   H4774     1.0  0.79165  0.32520  0.92264  1.0000
  H   H4775     1.0  0.97367  0.35801  0.72228  1.0000
  C   C4012     1.0  0.99327  0.26898  0.67386  1.0000
  H   H4776     1.0  0.88110  0.31192  0.91721  1.0000
  C   C4013     1.0  0.93863  0.28633  0.94090  1.0000
  H   H4777     1.0  0.89713  0.37129  0.82198  1.0000
  H   H4778     1.0  0.88797  0.24319  0.94413  1.0000
  C   C4014     1.0  0.66659  0.18989  0.90248  1.0000
  H   H4779     1.0  0.88693  0.25867  0.51015  1.0000
  H   H4780     1.0  0.92750  0.20784  0.56025  1.0000
  C   C4015     1.0  0.95935  0.30750  0.77263  1.0000
  N   N263      1.0  0.88472  0.23691  0.52325  1.0000
  C   C4016     1.0  0.97185  0.29883  0.63732  1.0000
  S   S1095     1.0  0.88758  0.28672  0.96917  1.0000
  H   H4781     1.0  0.95158  0.34592  0.79774  1.0000
  C   C4017     1.0  0.74584  0.37266  0.93200  1.0000
  H   H4782     1.0  0.94418  0.21510  0.56779  1.0000
  C   C4018     1.0  0.56436  0.22447  0.90529  1.0000
  C   C4019     1.0  0.86970  0.36340  0.85234  1.0000
  C   C4020     1.0  0.96425  0.30387  0.66185  1.0000
  C   C4021     1.0  0.92284  0.32932  0.84313  1.0000
  S   S1096     1.0  0.97718  0.35949  0.64609  1.0000
  H   H4783     1.0  0.98193  0.23195  0.79097  1.0000
  H   H4784     1.0  0.89541  0.35084  0.87906  1.0000
  C   C4022     1.0  0.97729  0.19759  0.73159  1.0000
  H   H4785     1.0  0.93251  0.19714  0.51896  1.0000
  H   H4786     1.0  0.74193  0.19263  0.96848  1.0000
  C   C4023     1.0  0.94464  0.24621  0.54064  1.0000
  C   C4024     1.0  0.99290  0.19415  0.72763  1.0000
  H   H4787     1.0  0.55535  0.23412  0.90350  1.0000
  C   C4025     1.0  0.93666  0.31142  0.74457  1.0000
  H   H4788     1.0  0.93285  0.37009  0.73636  1.0000
  H   H4789     1.0  0.89959  0.33651  0.58770  1.0000
  Fe  Fe563     1.0  0.91066  0.27543  0.97221  1.0000
  H   H4790     1.0  0.77302  0.18418  0.94688  1.0000
  H   H4791     1.0  0.53760  0.18660  0.91695  1.0000
  H   H4792     1.0  0.90474  0.22000  0.95456  1.0000
  C   C4026     1.0  0.97835  0.21104  0.74897  1.0000
  C   C4027     1.0  0.90644  0.37163  0.72360  1.0000
  C   C4028     1.0  0.96303  0.36374  0.72861  1.0000
  C   C4029     1.0  0.70809  0.23046  0.94867  1.0000
  C   C4030     1.0  0.97249  0.21121  0.64182  1.0000
  H   H4793     1.0  0.50319  0.31049  0.87584  1.0000
  C   C4031     1.0  0.92796  0.31420  0.76965  1.0000
  H   H4794     1.0  0.96187  0.31844  0.73525  1.0000
  H   H4795     1.0  0.60284  0.24722  0.84916  1.0000
  H   H4796     1.0  0.75885  0.37984  0.89472  1.0000
  C   C4032     1.0  0.92826  0.33095  0.88803  1.0000
  H   H4797     1.0  0.59262  0.25242  0.83474  1.0000
  C   C4033     1.0  0.95485  0.28884  0.91632  1.0000
  H   H4798     1.0  0.93982  0.32336  0.55647  1.0000
  H   H4799     1.0  0.99195  0.21311  0.79522  1.0000
  H   H4800     1.0  0.95313  0.35179  0.83773  1.0000
  H   H4801     1.0  0.97376  0.31848  0.64247  1.0000
  Fe  Fe564     1.0  0.92851  0.37576  0.77103  1.0000
  H   H4802     1.0  0.96998  0.22582  0.85487  1.0000
  S   S1097     1.0  0.50945  0.24434  0.85328  1.0000
  H   H4803     1.0  0.98644  0.28234  0.61552  1.0000
  H   H4804     1.0  0.88159  0.30765  0.93639  1.0000
  C   C4034     1.0  0.88858  0.22718  0.54926  1.0000
  C   C4035     1.0  0.93316  0.35156  0.83173  1.0000
  H   H4805     1.0  0.60254  0.21047  0.84838  1.0000
  C   C4036     1.0  0.87971  0.25550  0.55504  1.0000
  H   H4806     1.0  0.93980  0.32559  0.57421  1.0000
  N   N264      1.0  0.70972  0.27062  0.92911  1.0000
  C   C4037     1.0  0.69992  0.27225  0.91898  1.0000
  C   C4038     1.0  0.70246  0.28171  0.93838  1.0000
  C   C4039     1.0  0.72406  0.27418  0.91982  1.0000
  C   C4040     1.0  0.71246  0.25567  0.93881  1.0000
  C   C4041     1.0  0.72219  0.25216  0.94863  1.0000
  C   C4042     1.0  0.70539  0.24437  0.93917  1.0000
  N   N265      1.0  0.89058  0.23628  0.96670  1.0000
  S   S1098     1.0  0.98437  0.27912  0.75322  1.0000
  H   H4807     1.0  0.68097  0.18576  0.96248  1.0000
  H   H4808     1.0  0.68857  0.27064  0.92520  1.0000
  H   H4809     1.0  0.69823  0.28353  0.91168  1.0000
  H   H4810     1.0  0.70473  0.26427  0.91160  1.0000
  H   H4811     1.0  0.69177  0.27929  0.94576  1.0000
  C   C4043     1.0  0.98166  0.24848  0.68947  1.0000
  H   H4812     1.0  0.57710  0.18980  0.89897  1.0000
  H   H4813     1.0  0.73022  0.26573  0.91316  1.0000
  H   H4814     1.0  0.72224  0.28524  0.91212  1.0000
  H   H4815     1.0  0.73153  0.27486  0.92644  1.0000
  H   H4816     1.0  0.72784  0.26020  0.94914  1.0000
  H   H4817     1.0  0.69765  0.24597  0.93229  1.0000
  C   C4044     1.0  0.84810  0.31781  0.95783  1.0000
  H   H4818     1.0  0.94410  0.22407  0.80440  1.0000
  H   H4819     1.0  0.79199  0.36043  0.87123  1.0000
  H   H4820     1.0  0.91079  0.29879  0.84422  1.0000
  N   N266      1.0  0.90183  0.31299  0.92132  1.0000
  C   C4045     1.0  0.57499  0.22018  0.84013  1.0000
  H   H4821     1.0  0.87962  0.32632  0.92642  1.0000
  C   C4046     1.0  0.57586  0.23227  0.84531  1.0000
  H   H4822     1.0  0.61298  0.22339  0.84713  1.0000
  C   C4047     1.0  0.58602  0.22705  0.86677  1.0000
  H   H4823     1.0  0.97931  0.25300  0.63040  1.0000
  C   C4048     1.0  0.87984  0.25362  0.54117  1.0000
  H   H4824     1.0  0.61354  0.21964  0.89907  1.0000
  H   H4825     1.0  0.92555  0.30949  0.74509  1.0000
  C   C4049     1.0  0.94176  0.29054  0.76428  1.0000
  H   H4826     1.0  0.61001  0.20070  0.93905  1.0000
  C   C4050     1.0  0.59209  0.24733  0.84668  1.0000
  H   H4827     1.0  0.94150  0.36874  0.70428  1.0000
  H   H4828     1.0  0.99205  0.31904  0.76009  1.0000
  H   H4829     1.0  0.92571  0.29898  0.85172  1.0000
  H   H4830     1.0  0.92661  0.30566  0.83228  1.0000
  H   H4831     1.0  0.72463  0.35179  0.96056  1.0000
  H   H4832     1.0  0.96130  0.18819  0.62239  1.0000
  Fe  Fe565     1.0  0.97077  0.18612  0.67269  1.0000
  C   C4051     1.0  0.51028  0.21787  0.84727  1.0000
  H   H4833     1.0  0.93138  0.28742  0.76438  1.0000
  H   H4834     1.0  0.53262  0.19745  0.88191  1.0000
  H   H4835     1.0  0.97408  0.30009  0.83006  1.0000
  C   C4052     1.0  0.93094  0.21079  0.54833  1.0000
  Fe  Fe566     1.0  0.77648  0.27014  0.97578  1.0000
  H   H4836     1.0  0.87754  0.25625  0.95566  1.0000
  C   C4053     1.0  0.96843  0.33578  0.81065  1.0000
  H   H4837     1.0  0.87673  0.26359  0.53313  1.0000
  C   C4054     1.0  0.60294  0.22234  0.84412  1.0000
  C   C4055     1.0  0.95465  0.31031  0.75922  1.0000
  C   C4056     1.0  0.90964  0.32502  0.56220  1.0000
  H   H4838     1.0  0.59644  0.18994  0.91090  1.0000
  C   C4057     1.0  0.97439  0.32302  0.82027  1.0000
  C   C4058     1.0  0.95479  0.22610  0.79673  1.0000
  S   S1099     1.0  0.99423  0.26912  0.88035  1.0000
  C   C4059     1.0  0.95314  0.27521  0.91543  1.0000
  H   H4839     1.0  0.86872  0.35012  0.94317  1.0000
  C   C4060     1.0  0.90118  0.32700  0.83513  1.0000
  H   H4840     1.0  0.90467  0.28972  0.93174  1.0000
  C   C4061     1.0  0.92282  0.32169  0.90127  1.0000
  H   H4841     1.0  0.94800  0.26775  0.64494  1.0000
  H   H4842     1.0  0.60503  0.22492  0.83185  1.0000
  H   H4843     1.0  0.92083  0.29455  0.91895  1.0000
  H   H4844     1.0  0.95174  0.25507  0.69498  1.0000
  C   C4062     1.0  0.94520  0.33194  0.84911  1.0000
  H   H4845     1.0  0.89362  0.31342  0.86297  1.0000
  H   H4846     1.0  0.56222  0.25312  0.85103  1.0000
  H   H4847     1.0  0.77463  0.37320  0.92775  1.0000
  H   H4848     1.0  0.80113  0.32298  0.93697  1.0000
  C   C4063     1.0  0.98471  0.31182  0.70588  1.0000
  N   N267      1.0  0.75737  0.37187  0.91816  1.0000
  H   H4849     1.0  0.95687  0.26368  0.70650  1.0000
  H   H4850     1.0  0.98848  0.29070  0.72102  1.0000
  H   H4851     1.0  0.74841  0.32210  0.96043  1.0000
  H   H4852     1.0  0.95912  0.35610  0.70559  1.0000
  H   H4853     1.0  0.66467  0.19601  0.91088  1.0000
  H   H4854     1.0  0.74478  0.34914  0.93914  1.0000
  C   C4064     1.0  0.96692  0.26696  0.83328  1.0000
  C   C4065     1.0  0.87497  0.22669  0.52503  1.0000
  C   C4066     1.0  0.87966  0.25069  0.51262  1.0000
  H   H4855     1.0  0.86328  0.23112  0.53054  1.0000
  H   H4856     1.0  0.87478  0.22493  0.51418  1.0000
  C   C4067     1.0  0.97489  0.28097  0.61713  1.0000
  H   H4857     1.0  0.86791  0.25624  0.51678  1.0000
  H   H4858     1.0  0.88007  0.24843  0.50182  1.0000
  S   S1100     1.0  0.96518  0.29983  0.90151  1.0000
  H   H4859     1.0  0.89317  0.31994  0.83678  1.0000
  C   C4068     1.0  0.57652  0.19950  0.90288  1.0000
  H   H4860     1.0  0.58387  0.21569  0.87012  1.0000
  H   H4861     1.0  0.92260  0.34878  0.86992  1.0000
  H   H4862     1.0  0.90737  0.32817  0.82340  1.0000
  S   S1101     1.0  0.96987  0.29263  0.86148  1.0000
  C   C4069     1.0  0.54990  0.24339  0.84286  1.0000
  H   H4863     1.0  0.93605  0.32344  0.73996  1.0000
  H   H4864     1.0  0.73999  0.28133  0.94417  1.0000
  H   H4865     1.0  0.89640  0.33116  0.86251  1.0000
  H   H4866     1.0  0.59050  0.20087  0.94199  1.0000
  H   H4867     1.0  0.96788  0.29172  0.61254  1.0000
  C   C4070     1.0  0.74051  0.36008  0.94139  1.0000
  H   H4868     1.0  0.94999  0.24136  0.84215  1.0000
  H   H4869     1.0  0.70261  0.22197  0.94876  1.0000
  Fe  Fe567     1.0  0.93623  0.37128  0.66565  1.0000
  H   H4870     1.0  0.90805  0.23720  0.51581  1.0000
  H   H4871     1.0  0.98742  0.22526  0.62823  1.0000
  N   N268      1.0  0.96789  0.21673  0.80284  1.0000
  S   S1102     1.0  0.61173  0.19222  0.87826  1.0000
  H   H4872     1.0  0.95795  0.20868  0.74537  1.0000
  C   C4071     1.0  0.96913  0.31015  0.82316  1.0000
  S   S1103     1.0  0.98741  0.32343  0.82970  1.0000
  C   C4072     1.0  0.98112  0.29835  0.71421  1.0000
  N   N269      1.0  0.80207  0.30269  0.93106  1.0000
  C   C4073     1.0  0.80514  0.29359  0.94549  1.0000
  C   C4074     1.0  0.81656  0.30381  0.92046  1.0000
  C   C4075     1.0  0.79420  0.31783  0.93319  1.0000
  C   C4076     1.0  0.79343  0.29565  0.92553  1.0000
  C   C4077     1.0  0.79985  0.28161  0.92189  1.0000
  C   C4078     1.0  0.79188  0.27463  0.91683  1.0000
  C   C4079     1.0  0.77736  0.28145  0.91516  1.0000
  H   H4873     1.0  0.81183  0.28229  0.94465  1.0000
  H   H4874     1.0  0.81157  0.29859  0.95003  1.0000
  H   H4875     1.0  0.79456  0.29232  0.95377  1.0000
  H   H4876     1.0  0.82409  0.29282  0.91973  1.0000
  H   H4877     1.0  0.82285  0.31004  0.92371  1.0000
  H   H4878     1.0  0.81481  0.30957  0.90916  1.0000
  H   H4879     1.0  0.78366  0.31764  0.94185  1.0000
  H   H4880     1.0  0.81094  0.27570  0.92336  1.0000
  H   H4881     1.0  0.79689  0.26374  0.91447  1.0000
  H   H4882     1.0  0.77115  0.27596  0.91137  1.0000
  S   S1104     1.0  0.94440  0.37989  0.64134  1.0000
  C   C4080     1.0  0.75001  0.19679  0.97116  1.0000
  C   C4081     1.0  0.97988  0.21268  0.83844  1.0000
  C   C4082     1.0  0.97756  0.31942  0.74641  1.0000
  C   C4083     1.0  0.75056  0.38021  0.90538  1.0000
  H   H4883     1.0  0.94490  0.30516  0.73657  1.0000
  H   H4884     1.0  0.90836  0.21763  0.97242  1.0000
  C   C4084     1.0  0.76966  0.37857  0.91790  1.0000
  C   C4085     1.0  0.88946  0.31377  0.56240  1.0000
  H   H4885     1.0  0.91865  0.31480  0.93141  1.0000
  H   H4886     1.0  0.90009  0.25060  0.97317  1.0000
  N   N270      1.0  0.91778  0.33073  0.56962  1.0000
  C   C4086     1.0  0.92950  0.20141  0.54037  1.0000
  H   H4887     1.0  0.98483  0.32372  0.73621  1.0000
  C   C4087     1.0  0.57555  0.22497  0.91176  1.0000
  H   H4888     1.0  0.97564  0.27325  0.61012  1.0000
  H   H4889     1.0  0.93294  0.36215  0.82395  1.0000
  C   C4088     1.0  0.85953  0.31790  0.96419  1.0000
  H   H4890     1.0  0.89419  0.33799  0.83676  1.0000
  H   H4891     1.0  0.75940  0.30053  0.91725  1.0000
  C   C4089     1.0  0.93927  0.21711  0.51752  1.0000
  S   S1105     1.0  0.97653  0.20264  0.68107  1.0000
  S   S1106     1.0  0.86751  0.35563  0.87139  1.0000
  H   H4892     1.0  0.75661  0.27579  0.96121  1.0000
  C   C4090     1.0  0.50407  0.22737  0.85714  1.0000
  C   C4091     1.0  0.95726  0.23029  0.82399  1.0000
  C   C4092     1.0  0.91479  0.32488  0.54694  1.0000
  H   H4893     1.0  0.77321  0.35627  0.90594  1.0000
  H   H4894     1.0  0.90126  0.22890  0.50518  1.0000
  C   C4093     1.0  0.88818  0.24797  0.95327  1.0000
  C   C4094     1.0  0.98381  0.26307  0.68675  1.0000
  H   H4895     1.0  0.97733  0.36817  0.69639  1.0000
  C   C4095     1.0  0.97791  0.26058  0.63776  1.0000
  H   H4896     1.0  0.98804  0.20193  0.82043  1.0000
  C   C4096     1.0  0.88613  0.37029  0.82848  1.0000
  C   C4097     1.0  0.96425  0.31630  0.74603  1.0000
  H   H4897     1.0  0.97581  0.30860  0.78336  1.0000
  C   C4098     1.0  0.90025  0.23020  0.51654  1.0000
  S   S1107     1.0  0.95336  0.19359  0.65922  1.0000
  S   S1108     1.0  0.82252  0.36434  0.87687  1.0000
  H   H4898     1.0  0.89281  0.19463  0.50775  1.0000
  C   C4099     1.0  0.87399  0.37482  0.82165  1.0000
  C   C4100     1.0  0.95330  0.27326  0.63374  1.0000
  S   S1109     1.0  0.96356  0.26508  0.79318  1.0000
  S   S1110     1.0  0.89176  0.18637  0.57772  1.0000
  C   C4101     1.0  0.98877  0.24933  0.82404  1.0000
  C   C4102     1.0  0.66677  0.19803  0.88800  1.0000
  C   C4103     1.0  0.71776  0.22739  0.95809  1.0000
  H   H4899     1.0  0.53998  0.25221  0.84423  1.0000
  H   H4900     1.0  0.87880  0.21553  0.53175  1.0000
  H   H4901     1.0  0.96290  0.31119  0.66905  1.0000
  C   C4104     1.0  0.86288  0.34116  0.94734  1.0000
  H   H4902     1.0  0.62370  0.21147  0.91358  1.0000
  H   H4903     1.0  0.76687  0.37498  0.86749  1.0000
  C   C4105     1.0  0.85751  0.36829  0.84557  1.0000
  N   N271      1.0  0.97142  0.24255  0.70313  1.0000
  H   H4904     1.0  0.84575  0.22452  0.96758  1.0000
  C   C4106     1.0  0.91898  0.30537  0.84339  1.0000
  H   H4905     1.0  0.93745  0.25342  0.53296  1.0000
  N   N272      1.0  0.59991  0.21274  0.92052  1.0000
  C   C4107     1.0  0.85128  0.34115  0.94106  1.0000
  C   C4108     1.0  0.89493  0.31367  0.54746  1.0000
  C   C4109     1.0  0.52330  0.19672  0.89186  1.0000
  C   C4110     1.0  0.90846  0.29717  0.92099  1.0000
  N   N273      1.0  0.60973  0.31002  0.92352  1.0000
  C   C4111     1.0  0.61509  0.29456  0.93129  1.0000
  C   C4112     1.0  0.59383  0.31489  0.93063  1.0000
  C   C4113     1.0  0.61072  0.30974  0.90798  1.0000
  C   C4114     1.0  0.61837  0.32043  0.92389  1.0000
  C   C4115     1.0  0.62962  0.31628  0.93220  1.0000
  C   C4116     1.0  0.61559  0.33531  0.91575  1.0000
  C   C4117     1.0  0.63773  0.32636  0.93203  1.0000
  C   C4118     1.0  0.62399  0.34519  0.91544  1.0000
  C   C4119     1.0  0.63510  0.34069  0.92350  1.0000
  H   H4906     1.0  0.61386  0.29362  0.94329  1.0000
  H   H4907     1.0  0.60864  0.28692  0.93052  1.0000
  H   H4908     1.0  0.62702  0.29022  0.92639  1.0000
  H   H4909     1.0  0.58704  0.30716  0.93068  1.0000
  H   H4910     1.0  0.58870  0.32606  0.92482  1.0000
  H   H4911     1.0  0.59264  0.31535  0.94230  1.0000
  H   H4912     1.0  0.62260  0.30751  0.90189  1.0000
  H   H4913     1.0  0.60548  0.30104  0.90731  1.0000
  H   H4914     1.0  0.60490  0.32032  0.90181  1.0000
  H   H4915     1.0  0.63277  0.30519  0.93856  1.0000
  H   H4916     1.0  0.60708  0.33934  0.90935  1.0000
  H   H4917     1.0  0.64657  0.32286  0.93809  1.0000
  H   H4918     1.0  0.62211  0.35633  0.90871  1.0000
  H   H4919     1.0  0.64196  0.34820  0.92285  1.0000
  C   C4120     1.0  0.90635  0.31658  0.93316  1.0000
  C   C4121     1.0  0.93674  0.22365  0.54108  1.0000
  H   H4920     1.0  0.95437  0.32731  0.85477  1.0000
  H   H4921     1.0  0.60457  0.18934  0.93078  1.0000
  S   S1111     1.0  0.97164  0.24892  0.75965  1.0000
  H   H4922     1.0  0.97014  0.23682  0.72661  1.0000
  H   H4923     1.0  0.95455  0.28760  0.67912  1.0000
  H   H4924     1.0  0.94900  0.30481  0.92988  1.0000
  H   H4925     1.0  0.98955  0.22866  0.67998  1.0000
  H   H4926     1.0  0.95302  0.30044  0.81989  1.0000
  H   H4927     1.0  0.91444  0.34827  0.82657  1.0000
  H   H4928     1.0  0.93540  0.31332  0.85882  1.0000
  C   C4122     1.0  0.90233  0.31986  0.86069  1.0000
  H   H4929     1.0  0.94842  0.24837  0.71471  1.0000
  H   H4930     1.0  0.86035  0.28011  0.97267  1.0000
  C   C4123     1.0  0.60125  0.20038  0.93364  1.0000
  H   H4931     1.0  0.97820  0.19329  0.80691  1.0000
  H   H4932     1.0  0.58402  0.21057  0.83936  1.0000
  H   H4933     1.0  0.90193  0.37771  0.73232  1.0000
  H   H4934     1.0  0.96581  0.37090  0.73426  1.0000
  C   C4124     1.0  0.88427  0.23934  0.53785  1.0000
  C   C4125     1.0  0.56281  0.24381  0.84666  1.0000
  H   H4935     1.0  0.94022  0.33008  0.88408  1.0000
  H   H4936     1.0  0.90920  0.31461  0.86914  1.0000
  C   C4126     1.0  0.72891  0.36142  0.95386  1.0000
  S   S1112     1.0  0.98041  0.33833  0.68628  1.0000
  H   H4937     1.0  0.57589  0.23422  0.87220  1.0000
  H   H4938     1.0  0.84914  0.27546  0.95469  1.0000
  H   H4939     1.0  0.58351  0.25491  0.85320  1.0000
  C   C4127     1.0  0.94452  0.34578  0.83952  1.0000
  S   S1113     1.0  0.91370  0.25729  0.48271  1.0000
  S   S1114     1.0  0.98518  0.25178  0.85251  1.0000
  H   H4940     1.0  0.59547  0.22695  0.87140  1.0000
  H   H4941     1.0  0.95817  0.35500  0.73733  1.0000
  C   C4128     1.0  0.92253  0.34344  0.83337  1.0000
  C   C4129     1.0  0.90680  0.37908  0.70878  1.0000
  H   H4942     1.0  0.51281  0.20292  0.88816  1.0000
  H   H4943     1.0  0.96709  0.19913  0.79352  1.0000
  S   S1115     1.0  0.95499  0.37546  0.67227  1.0000
  H   H4944     1.0  0.96077  0.22405  0.71355  1.0000
  H   H4945     1.0  0.89728  0.25422  0.94901  1.0000
  N   N274      1.0  0.95255  0.37257  0.71897  1.0000
  H   H4946     1.0  0.85018  0.37776  0.82506  1.0000
  H   H4947     1.0  0.98883  0.20614  0.84394  1.0000
  C   C4130     1.0  0.97243  0.37970  0.69662  1.0000
  H   H4948     1.0  0.99443  0.28028  0.67191  1.0000
  Fe  Fe568     1.0  0.97801  0.18495  0.70166  1.0000
  C   C4131     1.0  0.49507  0.32083  0.87663  1.0000
  H   H4949     1.0  0.73239  0.23581  0.96537  1.0000
  S   S1116     1.0  0.91383  0.38047  0.67892  1.0000
  S   S1117     1.0  0.87650  0.38169  0.80245  1.0000
  C   C4132     1.0  0.93835  0.37888  0.72849  1.0000
  H   H4950     1.0  0.49556  0.22098  0.90055  1.0000
  H   H4951     1.0  0.74123  0.37557  0.90511  1.0000
  C   C4133     1.0  0.91630  0.18430  0.63468  1.0000
  H   H4952     1.0  0.66727  0.18672  0.81525  1.0000
  C   C4134     1.0  0.72242  0.37517  0.95745  1.0000
  C   C4135     1.0  0.75648  0.18430  0.93565  1.0000
  H   H4953     1.0  0.71306  0.37622  0.96682  1.0000
  H   H4954     1.0  0.66868  0.18376  0.79740  1.0000
  S   S1118     1.0  0.51225  0.55035  0.14284  1.0000
  C   C4136     1.0  0.57228  0.53656  0.16414  1.0000
  Fe  Fe569     1.0  0.80030  0.50701  0.98771  1.0000
  S   S1119     1.0  0.80892  0.49973  0.00846  1.0000
  C   C4137     1.0  0.97497  0.56308  0.09715  1.0000
  S   S1120     1.0  0.88087  0.50541  0.98041  1.0000
  H   H4955     1.0  0.95397  0.47055  0.38198  1.0000
  Fe  Fe570     1.0  0.89981  0.50224  0.99135  1.0000
  S   S1121     1.0  0.89180  0.49948  0.01621  1.0000
  H   H4956     1.0  0.90405  0.53710  0.04986  1.0000
  Fe  Fe571     1.0  0.68828  0.48396  0.16438  1.0000
  S   S1122     1.0  0.68279  0.47827  0.14584  1.0000
  S   S1123     1.0  0.67359  0.50183  0.17633  1.0000
  Fe  Fe572     1.0  0.71956  0.46333  0.16042  1.0000
  S   S1124     1.0  0.71639  0.45653  0.14136  1.0000
  S   S1125     1.0  0.74131  0.45063  0.16671  1.0000
  Fe  Fe573     1.0  0.70622  0.48055  0.13402  1.0000
  S   S1126     1.0  0.71241  0.49460  0.11127  1.0000
  Fe  Fe574     1.0  0.69363  0.45472  0.15526  1.0000
  S   S1127     1.0  0.71113  0.48752  0.15208  1.0000
  S   S1128     1.0  0.69732  0.46032  0.17482  1.0000
  C   C4138     1.0  0.99127  0.57581  0.23795  1.0000
  S   S1129     1.0  0.58126  0.56867  0.17677  1.0000
  C   C4139     1.0  0.97076  0.54888  0.37937  1.0000
  H   H4957     1.0  0.70111  0.53905  0.11325  1.0000
  H   H4958     1.0  0.94007  0.48741  0.38024  1.0000
  C   C4140     1.0  0.69262  0.58268  0.05603  1.0000
  Fe  Fe575     1.0  0.60163  0.56039  0.16030  1.0000
  S   S1130     1.0  0.61120  0.53625  0.15997  1.0000
  H   H4959     1.0  0.94290  0.57649  0.11990  1.0000
  C   C4141     1.0  0.64655  0.55625  0.13388  1.0000
  H   H4960     1.0  0.89531  0.40455  0.20278  1.0000
  S   S1131     1.0  0.95549  0.57296  0.41202  1.0000
  Fe  Fe576     1.0  0.77482  0.55034  0.06052  1.0000
  S   S1132     1.0  0.78922  0.56583  0.05835  1.0000
  S   S1133     1.0  0.76640  0.54874  0.04179  1.0000
  Fe  Fe577     1.0  0.77312  0.53839  0.09319  1.0000
  S   S1134     1.0  0.78758  0.55268  0.09420  1.0000
  S   S1135     1.0  0.76546  0.52086  0.11242  1.0000
  Fe  Fe578     1.0  0.77378  0.57041  0.07963  1.0000
  C   C4142     1.0  0.85175  0.50031  0.17757  1.0000
  Fe  Fe579     1.0  0.80177  0.54674  0.07291  1.0000
  S   S1136     1.0  0.82668  0.53765  0.06658  1.0000
  S   S1137     1.0  0.75820  0.55652  0.08046  1.0000
  S   S1138     1.0  0.78842  0.53084  0.07333  1.0000
  Fe  Fe580     1.0  0.80128  0.46838  0.19134  1.0000
  S   S1139     1.0  0.81429  0.45365  0.17579  1.0000
  S   S1140     1.0  0.77743  0.48059  0.19127  1.0000
  Fe  Fe581     1.0  0.82758  0.46331  0.20532  1.0000
  S   S1141     1.0  0.84286  0.44787  0.19110  1.0000
  S   S1142     1.0  0.83304  0.46864  0.22409  1.0000
  Fe  Fe582     1.0  0.83307  0.46441  0.17291  1.0000
  S   S1143     1.0  0.84452  0.47061  0.14920  1.0000
  Fe  Fe583     1.0  0.82283  0.43836  0.19526  1.0000
  S   S1144     1.0  0.82479  0.41375  0.20185  1.0000
  S   S1145     1.0  0.81935  0.48076  0.18672  1.0000
  S   S1146     1.0  0.80833  0.45231  0.21115  1.0000
  Fe  Fe584     1.0  0.91903  0.51409  0.07964  1.0000
  S   S1147     1.0  0.91451  0.53729  0.08279  1.0000
  S   S1148     1.0  0.92826  0.51114  0.05606  1.0000
  Fe  Fe585     1.0  0.91041  0.50172  0.11284  1.0000
  S   S1149     1.0  0.90468  0.52404  0.11829  1.0000
  S   S1150     1.0  0.90900  0.48275  0.13265  1.0000
  Fe  Fe586     1.0  0.89373  0.53161  0.09879  1.0000
  S   S1151     1.0  0.87104  0.54737  0.09919  1.0000
  Fe  Fe587     1.0  0.92597  0.52733  0.10192  1.0000
  S   S1152     1.0  0.94514  0.53442  0.10567  1.0000
  S   S1153     1.0  0.89767  0.50889  0.09477  1.0000
  S   S1154     1.0  0.93226  0.50455  0.09740  1.0000
  C   C4143     1.0  0.54384  0.55124  0.20784  1.0000
  H   H4961     1.0  0.72637  0.57019  0.01037  1.0000
  H   H4962     1.0  0.56671  0.54063  0.20364  1.0000
  Fe  Fe588     1.0  0.91048  0.44642  0.26456  1.0000
  S   S1155     1.0  0.88891  0.46059  0.25930  1.0000
  S   S1156     1.0  0.91316  0.42188  0.27209  1.0000
  Fe  Fe589     1.0  0.92504  0.47227  0.25668  1.0000
  S   S1157     1.0  0.90498  0.48881  0.25006  1.0000
  S   S1158     1.0  0.94468  0.48017  0.25727  1.0000
  Fe  Fe590     1.0  0.89235  0.47626  0.27071  1.0000
  S   S1159     1.0  0.87318  0.48852  0.28543  1.0000
  Fe  Fe591     1.0  0.90343  0.47172  0.23919  1.0000
  S   S1160     1.0  0.89859  0.47566  0.21671  1.0000
  S   S1161     1.0  0.91249  0.46086  0.27812  1.0000
  S   S1162     1.0  0.92495  0.45637  0.24371  1.0000
  Fe  Fe592     1.0  0.93358  0.48282  0.35399  1.0000
  S   S1163     1.0  0.91229  0.49576  0.36563  1.0000
  S   S1164     1.0  0.94364  0.45920  0.36360  1.0000
  Fe  Fe593     1.0  0.93652  0.50738  0.32675  1.0000
  S   S1165     1.0  0.91541  0.52214  0.33603  1.0000
  S   S1166     1.0  0.94797  0.51637  0.30359  1.0000
  Fe  Fe594     1.0  0.92377  0.51489  0.35703  1.0000
  S   S1167     1.0  0.92051  0.53348  0.36854  1.0000
  Fe  Fe595     1.0  0.90613  0.50175  0.34361  1.0000
  S   S1168     1.0  0.88308  0.50220  0.34183  1.0000
  S   S1169     1.0  0.94575  0.50143  0.34714  1.0000
  S   S1170     1.0  0.92660  0.48754  0.33258  1.0000
  N   N275      1.0  0.56851  0.52836  0.17968  1.0000
  C   C4144     1.0  0.85265  0.41994  0.26161  1.0000
  S   S1171     1.0  0.88096  0.40189  0.23481  1.0000
  H   H4963     1.0  0.96634  0.55867  0.31523  1.0000
  S   S1172     1.0  0.79181  0.53150  0.98077  1.0000
  H   H4964     1.0  0.81419  0.42090  0.22974  1.0000
  S   S1173     1.0  0.91273  0.40016  0.34384  1.0000
  C   C4145     1.0  0.64874  0.57019  0.12585  1.0000
  H   H4965     1.0  0.69475  0.51135  0.13327  1.0000
  S   S1174     1.0  0.89913  0.41672  0.37785  1.0000
  H   H4966     1.0  0.94452  0.48269  0.42552  1.0000
  S   S1175     1.0  0.93105  0.56398  0.44278  1.0000
  C   C4146     1.0  0.98501  0.57078  0.14149  1.0000
  H   H4967     1.0  0.68636  0.56385  0.11911  1.0000
  H   H4968     1.0  0.89794  0.53227  0.00585  1.0000
  C   C4147     1.0  0.80936  0.41274  0.23922  1.0000
  H   H4969     1.0  0.81895  0.47210  0.98903  1.0000
  C   C4148     1.0  0.68659  0.40666  0.15774  1.0000
  C   C4149     1.0  0.69399  0.40034  0.13374  1.0000
  C   C4150     1.0  0.74340  0.55392  0.97891  1.0000
  H   H4970     1.0  0.99308  0.50878  0.32146  1.0000
  C   C4151     1.0  0.91864  0.49752  0.40398  1.0000
  H   H4971     1.0  0.56111  0.50826  0.19131  1.0000
  H   H4972     1.0  0.83588  0.54009  0.14273  1.0000
  H   H4973     1.0  0.83433  0.45578  0.25868  1.0000
  C   C4152     1.0  0.97328  0.51804  0.26256  1.0000
  H   H4974     1.0  0.96048  0.39826  0.28946  1.0000
  Fe  Fe596     1.0  0.97064  0.57189  0.42639  1.0000
  C   C4153     1.0  0.79068  0.39943  0.18720  1.0000
  H   H4975     1.0  0.90451  0.41529  0.20803  1.0000
  H   H4976     1.0  0.50377  0.56838  0.16423  1.0000
  C   C4154     1.0  0.93134  0.44730  0.36765  1.0000
  C   C4155     1.0  0.91592  0.45299  0.36959  1.0000
  C   C4156     1.0  0.90617  0.44342  0.37309  1.0000
  C   C4157     1.0  0.91178  0.42820  0.37393  1.0000
  C   C4158     1.0  0.92721  0.42249  0.37188  1.0000
  C   C4159     1.0  0.93695  0.43201  0.36903  1.0000
  H   H4977     1.0  0.91145  0.46473  0.36864  1.0000
  H   H4978     1.0  0.89424  0.44787  0.37491  1.0000
  H   H4979     1.0  0.93159  0.41071  0.37274  1.0000
  H   H4980     1.0  0.94887  0.42753  0.36762  1.0000
  H   H4981     1.0  0.81168  0.54717  0.98734  1.0000
  C   C4160     1.0  0.92982  0.53307  0.38213  1.0000
  H   H4982     1.0  0.72375  0.40907  0.16876  1.0000
  H   H4983     1.0  0.70012  0.41780  0.11528  1.0000
  H   H4984     1.0  0.87211  0.52637  0.00356  1.0000
  H   H4985     1.0  0.86345  0.51930  0.02992  1.0000
  C   C4161     1.0  0.78186  0.41443  0.22895  1.0000
  C   C4162     1.0  0.90534  0.41568  0.26124  1.0000
  C   C4163     1.0  0.90246  0.42476  0.24781  1.0000
  C   C4164     1.0  0.89532  0.42027  0.23956  1.0000
  C   C4165     1.0  0.89103  0.40670  0.24469  1.0000
  C   C4166     1.0  0.89412  0.39748  0.25800  1.0000
  C   C4167     1.0  0.90134  0.40194  0.26626  1.0000
  H   H4986     1.0  0.90559  0.43536  0.24384  1.0000
  H   H4987     1.0  0.89274  0.42757  0.22945  1.0000
  H   H4988     1.0  0.87444  0.44366  0.19258  1.0000
  H   H4989     1.0  0.90352  0.39491  0.27668  1.0000
  C   C4168     1.0  0.87641  0.49147  0.30130  1.0000
  C   C4169     1.0  0.86471  0.49972  0.31009  1.0000
  C   C4170     1.0  0.86691  0.50276  0.32256  1.0000
  C   C4171     1.0  0.88088  0.49771  0.32628  1.0000
  C   C4172     1.0  0.89257  0.48913  0.31770  1.0000
  C   C4173     1.0  0.89031  0.48596  0.30523  1.0000
  H   H4990     1.0  0.85392  0.50393  0.30717  1.0000
  H   H4991     1.0  0.85780  0.50928  0.32922  1.0000
  H   H4992     1.0  0.90327  0.48487  0.32072  1.0000
  H   H4993     1.0  0.89934  0.47943  0.29861  1.0000
  C   C4174     1.0  0.97600  0.48813  0.21198  1.0000
  C   C4175     1.0  0.97248  0.49809  0.22118  1.0000
  C   C4176     1.0  0.96270  0.49564  0.23500  1.0000
  C   C4177     1.0  0.95650  0.48317  0.23974  1.0000
  C   C4178     1.0  0.95998  0.47316  0.23059  1.0000
  C   C4179     1.0  0.96984  0.47559  0.21674  1.0000
  H   H4994     1.0  0.95979  0.50354  0.24195  1.0000
  H   H4995     1.0  0.95532  0.46343  0.23428  1.0000
  H   H4996     1.0  0.97253  0.46785  0.20966  1.0000
  C   C4180     1.0  0.94578  0.53730  0.12275  1.0000
  C   C4181     1.0  0.95971  0.53423  0.12649  1.0000
  C   C4182     1.0  0.55642  0.54282  0.20004  1.0000
  C   C4183     1.0  0.93305  0.54421  0.13175  1.0000
  H   H4997     1.0  0.96962  0.52901  0.11950  1.0000
  H   H4998     1.0  0.92230  0.54678  0.12889  1.0000
  C   C4184     1.0  0.85104  0.47152  0.22122  1.0000
  C   C4185     1.0  0.85469  0.47567  0.23229  1.0000
  C   C4186     1.0  0.86921  0.47725  0.23075  1.0000
  C   C4187     1.0  0.88016  0.47469  0.21813  1.0000
  C   C4188     1.0  0.87637  0.47112  0.20674  1.0000
  C   C4189     1.0  0.86182  0.46946  0.20832  1.0000
  H   H4999     1.0  0.84628  0.47771  0.24208  1.0000
  H   H5000     1.0  0.87184  0.48072  0.23924  1.0000
  H   H5001     1.0  0.88470  0.46948  0.19678  1.0000
  H   H5002     1.0  0.85894  0.46657  0.19961  1.0000
  C   C4190     1.0  0.81159  0.40831  0.19625  1.0000
  C   C4191     1.0  0.80545  0.41712  0.18430  1.0000
  H   H5003     1.0  0.80903  0.42712  0.17820  1.0000
  H   H5004     1.0  0.86030  0.54468  0.00209  1.0000
  C   C4192     1.0  0.86307  0.47217  0.14514  1.0000
  C   C4193     1.0  0.87061  0.47494  0.13032  1.0000
  C   C4194     1.0  0.88500  0.47763  0.12651  1.0000
  C   C4195     1.0  0.89181  0.47767  0.13752  1.0000
  C   C4196     1.0  0.88450  0.47435  0.15242  1.0000
  C   C4197     1.0  0.87008  0.47161  0.15625  1.0000
  H   H5005     1.0  0.86523  0.47527  0.12173  1.0000
  H   H5006     1.0  0.89073  0.47994  0.11502  1.0000
  H   H5007     1.0  0.88974  0.47442  0.16096  1.0000
  H   H5008     1.0  0.86425  0.46953  0.16771  1.0000
  C   C4198     1.0  0.94320  0.56181  0.33749  1.0000
  H   H5009     1.0  0.85397  0.42073  0.24960  1.0000
  C   C4199     1.0  0.98006  0.54077  0.36909  1.0000
  C   C4200     1.0  0.90828  0.44348  0.19312  1.0000
  S   S1176     1.0  0.96707  0.55002  0.44112  1.0000
  H   H5010     1.0  0.78730  0.40286  0.23128  1.0000
  C   C4201     1.0  0.84570  0.53658  0.13404  1.0000
  H   H5011     1.0  0.89524  0.42161  0.32514  1.0000
  C   C4202     1.0  0.68925  0.39633  0.14908  1.0000
  H   H5012     1.0  0.95047  0.56498  0.38430  1.0000
  C   C4203     1.0  0.83841  0.53995  0.07654  1.0000
  C   C4204     1.0  0.85281  0.53092  0.07570  1.0000
  C   C4205     1.0  0.86269  0.53281  0.08301  1.0000
  C   C4206     1.0  0.85840  0.54401  0.09089  1.0000
  C   C4207     1.0  0.84394  0.55299  0.09182  1.0000
  C   C4208     1.0  0.83389  0.55086  0.08480  1.0000
  H   H5013     1.0  0.85638  0.52244  0.06934  1.0000
  H   H5014     1.0  0.87373  0.52581  0.08220  1.0000
  H   H5015     1.0  0.84053  0.56174  0.09784  1.0000
  H   H5016     1.0  0.82280  0.55794  0.08544  1.0000
  H   H5017     1.0  0.99278  0.57709  0.34945  1.0000
  C   C4209     1.0  0.98693  0.56597  0.21929  1.0000
  C   C4210     1.0  0.75300  0.41075  0.16030  1.0000
  H   H5018     1.0  0.56321  0.53861  0.15824  1.0000
  H   H5019     1.0  0.98028  0.56783  0.26037  1.0000
  C   C4211     1.0  0.95974  0.56786  0.10258  1.0000
  H   H5020     1.0  0.75079  0.40246  0.17081  1.0000
  S   S1177     1.0  0.97972  0.55882  0.18083  1.0000
  H   H5021     1.0  0.74848  0.56058  0.01888  1.0000
  H   H5022     1.0  0.93342  0.50443  0.28870  1.0000
  C   C4212     1.0  0.89285  0.54260  0.02427  1.0000
  C   C4213     1.0  0.52319  0.57628  0.16261  1.0000
  H   H5023     1.0  0.78953  0.48273  0.06982  1.0000
  C   C4214     1.0  0.74359  0.39806  0.14696  1.0000
  C   C4215     1.0  0.86921  0.51628  0.16921  1.0000
  H   H5024     1.0  0.97179  0.53632  0.14136  1.0000
  C   C4216     1.0  0.69646  0.41465  0.12715  1.0000
  N   N276      1.0  0.70064  0.39470  0.20280  1.0000
  C   C4217     1.0  0.75058  0.51394  0.11181  1.0000
  C   C4218     1.0  0.74861  0.50022  0.12091  1.0000
  C   C4219     1.0  0.73711  0.49415  0.12044  1.0000
  C   C4220     1.0  0.72737  0.50186  0.11104  1.0000
  C   C4221     1.0  0.72936  0.51555  0.10182  1.0000
  C   C4222     1.0  0.74088  0.52167  0.10232  1.0000
  H   H5025     1.0  0.75604  0.49418  0.12829  1.0000
  H   H5026     1.0  0.73588  0.48340  0.12732  1.0000
  H   H5027     1.0  0.72182  0.52156  0.09455  1.0000
  H   H5028     1.0  0.74225  0.53235  0.09538  1.0000
  C   C4223     1.0  0.75113  0.45933  0.17335  1.0000
  C   C4224     1.0  0.76490  0.45141  0.17675  1.0000
  C   C4225     1.0  0.77298  0.45784  0.18234  1.0000
  C   C4226     1.0  0.76732  0.47227  0.18452  1.0000
  C   C4227     1.0  0.75353  0.48023  0.18110  1.0000
  C   C4228     1.0  0.74544  0.47378  0.17549  1.0000
  H   H5029     1.0  0.76924  0.44017  0.17526  1.0000
  H   H5030     1.0  0.78341  0.45148  0.18524  1.0000
  H   H5031     1.0  0.74909  0.49139  0.18281  1.0000
  H   H5032     1.0  0.73478  0.47994  0.17293  1.0000
  C   C4229     1.0  0.65608  0.51116  0.17202  1.0000
  C   C4230     1.0  0.64952  0.50559  0.16413  1.0000
  C   C4231     1.0  0.63572  0.51339  0.16057  1.0000
  C   C4232     1.0  0.62852  0.52694  0.16463  1.0000
  C   C4233     1.0  0.63509  0.53261  0.17244  1.0000
  C   C4234     1.0  0.64876  0.52464  0.17627  1.0000
  H   H5033     1.0  0.65493  0.49514  0.16098  1.0000
  H   H5034     1.0  0.63066  0.50891  0.15459  1.0000
  H   H5035     1.0  0.62958  0.54301  0.17569  1.0000
  H   H5036     1.0  0.65375  0.52898  0.18243  1.0000
  H   H5037     1.0  0.69598  0.43595  0.13077  1.0000
  C   C4235     1.0  0.68616  0.40493  0.20070  1.0000
  H   H5038     1.0  0.86327  0.55534  0.05315  1.0000
  H   H5039     1.0  0.55757  0.56585  0.14126  1.0000
  C   C4236     1.0  0.90233  0.50210  0.02729  1.0000
  C   C4237     1.0  0.91654  0.50511  0.02128  1.0000
  C   C4238     1.0  0.92443  0.50761  0.03032  1.0000
  C   C4239     1.0  0.91817  0.50719  0.04540  1.0000
  C   C4240     1.0  0.90395  0.50415  0.05143  1.0000
  C   C4241     1.0  0.89607  0.50160  0.04239  1.0000
  H   H5040     1.0  0.92149  0.50549  0.00968  1.0000
  H   H5041     1.0  0.93543  0.50994  0.02559  1.0000
  H   H5042     1.0  0.89906  0.50370  0.06304  1.0000
  H   H5043     1.0  0.88509  0.49922  0.04713  1.0000
  C   C4242     1.0  0.83974  0.51356  0.13576  1.0000
  C   C4243     1.0  0.79691  0.51228  0.01896  1.0000
  C   C4244     1.0  0.80188  0.51688  0.02887  1.0000
  C   C4245     1.0  0.79254  0.52811  0.03596  1.0000
  C   C4246     1.0  0.77821  0.53459  0.03325  1.0000
  C   C4247     1.0  0.77308  0.52955  0.02382  1.0000
  C   C4248     1.0  0.78241  0.51844  0.01671  1.0000
  H   H5044     1.0  0.81310  0.51224  0.03060  1.0000
  H   H5045     1.0  0.79669  0.53215  0.04301  1.0000
  H   H5046     1.0  0.76190  0.53419  0.02194  1.0000
  H   H5047     1.0  0.77828  0.51466  0.00944  1.0000
  N   N277      1.0  0.91346  0.51988  0.28358  1.0000
  C   C4249     1.0  0.93063  0.48689  0.40944  1.0000
  C   C4250     1.0  0.69416  0.42491  0.13589  1.0000
  H   H5048     1.0  0.84889  0.51079  0.00301  1.0000
  C   C4251     1.0  0.78354  0.49442  0.06987  1.0000
  H   H5049     1.0  0.74809  0.51482  0.07217  1.0000
  S   S1178     1.0  0.77747  0.39428  0.18146  1.0000
  H   H5050     1.0  0.86043  0.50424  0.01608  1.0000
  C   C4252     1.0  0.54143  0.54158  0.18415  1.0000
  C   C4253     1.0  0.96098  0.53843  0.13882  1.0000
  C   C4254     1.0  0.54588  0.56625  0.14640  1.0000
  H   H5051     1.0  0.54476  0.55504  0.21703  1.0000
  Fe  Fe597     1.0  0.97691  0.54251  0.20259  1.0000
  C   C4255     1.0  0.88055  0.56854  0.02000  1.0000
  C   C4256     1.0  0.72880  0.56133  0.98388  1.0000
  H   H5052     1.0  0.76314  0.51592  0.07906  1.0000
  S   S1179     1.0  0.74841  0.53485  0.98561  1.0000
  C   C4257     1.0  0.88856  0.43030  0.31842  1.0000
  H   H5053     1.0  0.84391  0.52242  0.03829  1.0000
  H   H5054     1.0  0.91525  0.55328  0.38751  1.0000
  C   C4258     1.0  0.71073  0.41803  0.19684  1.0000
  Fe  Fe598     1.0  0.94815  0.56355  0.45507  1.0000
  C   C4259     1.0  0.92320  0.50481  0.28511  1.0000
  C   C4260     1.0  0.88653  0.55567  0.02987  1.0000
  C   C4261     1.0  0.89029  0.42227  0.17769  1.0000
  H   H5055     1.0  0.68244  0.40357  0.16953  1.0000
  Fe  Fe599     1.0  0.89618  0.38687  0.34603  1.0000
  H   H5056     1.0  0.85437  0.54262  0.13317  1.0000
  C   C4262     1.0  0.52266  0.55913  0.14872  1.0000
  C   C4263     1.0  0.53011  0.55471  0.20393  1.0000
  H   H5057     1.0  0.75850  0.43731  0.20712  1.0000
  H   H5058     1.0  0.87744  0.52072  0.17135  1.0000
  H   H5059     1.0  0.75092  0.56612  0.99898  1.0000
  H   H5060     1.0  0.78408  0.43675  0.25863  1.0000
  S   S1180     1.0  0.77994  0.50091  0.98620  1.0000
  H   H5061     1.0  0.72083  0.55525  0.99166  1.0000
  H   H5062     1.0  0.92106  0.47336  0.39258  1.0000
  H   H5063     1.0  0.97351  0.54736  0.38994  1.0000
  H   H5064     1.0  0.93359  0.45628  0.39654  1.0000
  H   H5065     1.0  0.92568  0.52095  0.25403  1.0000
  S   S1181     1.0  0.88827  0.38440  0.37049  1.0000
  H   H5066     1.0  0.90381  0.51543  0.26785  1.0000
  C   C4264     1.0  0.71270  0.40235  0.20096  1.0000
  C   C4265     1.0  0.97612  0.54221  0.35579  1.0000
  C   C4266     1.0  0.92232  0.45867  0.17265  1.0000
  H   H5067     1.0  0.82963  0.43189  0.97866  1.0000
  S   S1182     1.0  0.96913  0.54604  0.22577  1.0000
  C   C4267     1.0  0.85601  0.46533  0.98664  1.0000
  C   C4268     1.0  0.73860  0.40098  0.20159  1.0000
  H   H5068     1.0  0.67561  0.51571  0.14135  1.0000
  N   N278      1.0  0.89437  0.42670  0.18933  1.0000
  H   H5069     1.0  0.50835  0.51987  0.12443  1.0000
  Fe  Fe600     1.0  0.90621  0.39624  0.36846  1.0000
  C   C4269     1.0  0.80623  0.55496  0.00740  1.0000
  C   C4270     1.0  0.52890  0.54985  0.19213  1.0000
  H   H5070     1.0  0.74912  0.57927  0.03290  1.0000
  C   C4271     1.0  0.76484  0.49320  0.05710  1.0000
  C   C4272     1.0  0.77662  0.48877  0.04535  1.0000
  C   C4273     1.0  0.75003  0.49465  0.05579  1.0000
  C   C4274     1.0  0.77366  0.48610  0.03307  1.0000
  C   C4275     1.0  0.74721  0.49198  0.04344  1.0000
  C   C4276     1.0  0.75900  0.48779  0.03206  1.0000
  H   H5071     1.0  0.78916  0.50183  0.06012  1.0000
  H   H5072     1.0  0.76449  0.51979  0.05959  1.0000
  H   H5073     1.0  0.78824  0.48764  0.04512  1.0000
  H   H5074     1.0  0.74050  0.49807  0.06424  1.0000
  H   H5075     1.0  0.78283  0.48315  0.02405  1.0000
  H   H5076     1.0  0.73580  0.49333  0.04260  1.0000
  H   H5077     1.0  0.75679  0.48600  0.02237  1.0000
  H   H5078     1.0  0.84360  0.50134  0.13724  1.0000
  H   H5079     1.0  0.71888  0.42090  0.15206  1.0000
  H   H5080     1.0  0.87934  0.43654  0.28544  1.0000
  H   H5081     1.0  0.58011  0.51792  0.19748  1.0000
  S   S1183     1.0  0.98876  0.57579  0.28768  1.0000
  H   H5082     1.0  0.93427  0.55787  0.34683  1.0000
  H   H5083     1.0  0.72073  0.43680  0.19199  1.0000
  H   H5084     1.0  0.95008  0.53216  0.34825  1.0000
  C   C4277     1.0  0.98980  0.52899  0.30494  1.0000
  C   C4278     1.0  0.89202  0.54166  0.05424  1.0000
  H   H5085     1.0  0.58258  0.53043  0.15768  1.0000
  C   C4279     1.0  0.53801  0.55797  0.14269  1.0000
  C   C4280     1.0  0.55553  0.53756  0.18802  1.0000
  C   C4281     1.0  0.87966  0.43857  0.29580  1.0000
  H   H5086     1.0  0.90074  0.45480  0.32743  1.0000
  H   H5087     1.0  0.88548  0.53349  0.05500  1.0000
  H   H5088     1.0  0.72647  0.42767  0.16297  1.0000
  H   H5089     1.0  0.83723  0.51771  0.12454  1.0000
  C   C4282     1.0  0.87131  0.45960  0.34133  1.0000
  H   H5090     1.0  0.98065  0.55065  0.32537  1.0000
  H   H5091     1.0  0.76984  0.47813  0.97940  1.0000
  C   C4283     1.0  0.90216  0.41311  0.19830  1.0000
  C   C4284     1.0  0.90964  0.44252  0.16799  1.0000
  C   C4285     1.0  0.72453  0.57666  0.97916  1.0000
  S   S1184     1.0  0.69678  0.38755  0.12279  1.0000
  H   H5092     1.0  0.68713  0.41201  0.18934  1.0000
  H   H5093     1.0  0.51821  0.55265  0.18903  1.0000
  H   H5094     1.0  0.69492  0.39196  0.22644  1.0000
  H   H5095     1.0  0.98387  0.54801  0.28791  1.0000
  H   H5096     1.0  0.50035  0.50495  0.13636  1.0000
  C   C4286     1.0  0.98065  0.56805  0.11836  1.0000
  C   C4287     1.0  0.97515  0.55844  0.24504  1.0000
  C   C4288     1.0  0.70111  0.53687  0.12519  1.0000
  H   H5097     1.0  0.92001  0.46342  0.41148  1.0000
  H   H5098     1.0  0.87242  0.42539  0.20314  1.0000
  C   C4289     1.0  0.90758  0.52318  0.29854  1.0000
  N   N279      1.0  0.98861  0.50864  0.26105  1.0000
  H   H5099     1.0  0.96274  0.57929  0.46891  1.0000
  H   H5100     1.0  0.97870  0.55886  0.08714  1.0000
  C   C4290     1.0  0.87206  0.45433  0.31340  1.0000
  C   C4291     1.0  0.74628  0.42343  0.13718  1.0000
  H   H5101     1.0  0.55575  0.51630  0.17388  1.0000
  C   C4292     1.0  0.95773  0.53711  0.33822  1.0000
  H   H5102     1.0  0.53996  0.53846  0.17482  1.0000
  H   H5103     1.0  0.77116  0.41100  0.21367  1.0000
  H   H5104     1.0  0.79033  0.41961  0.17051  1.0000
  C   C4293     1.0  0.70513  0.38520  0.19190  1.0000
  C   C4294     1.0  0.81095  0.55436  0.01998  1.0000
  H   H5105     1.0  0.96076  0.51269  0.17718  1.0000
  C   C4295     1.0  0.72728  0.41764  0.15898  1.0000
  H   H5106     1.0  0.54366  0.55115  0.13471  1.0000
  H   H5107     1.0  0.82746  0.54521  0.03268  1.0000
  C   C4296     1.0  0.76066  0.48732  0.08389  1.0000
  H   H5108     1.0  0.86571  0.46488  0.31583  1.0000
  N   N280      1.0  0.79657  0.49305  0.14296  1.0000
  C   C4297     1.0  0.79416  0.47796  0.14510  1.0000
  C   C4298     1.0  0.80376  0.49317  0.15462  1.0000
  C   C4299     1.0  0.78158  0.50316  0.14509  1.0000
  C   C4300     1.0  0.80650  0.49723  0.12837  1.0000
  C   C4301     1.0  0.80310  0.51102  0.11836  1.0000
  C   C4302     1.0  0.82055  0.48773  0.12418  1.0000
  C   C4303     1.0  0.81313  0.51483  0.10498  1.0000
  C   C4304     1.0  0.83052  0.49169  0.11085  1.0000
  C   C4305     1.0  0.82678  0.50521  0.10123  1.0000
  H   H5109     1.0  0.80446  0.46918  0.14602  1.0000
  H   H5110     1.0  0.78589  0.47500  0.15552  1.0000
  H   H5111     1.0  0.78985  0.47716  0.13585  1.0000
  H   H5112     1.0  0.81459  0.48503  0.15445  1.0000
  H   H5113     1.0  0.79666  0.49029  0.16580  1.0000
  H   H5114     1.0  0.80585  0.50426  0.15334  1.0000
  H   H5115     1.0  0.77550  0.50341  0.13676  1.0000
  H   H5116     1.0  0.77443  0.49953  0.15614  1.0000
  H   H5117     1.0  0.78222  0.51463  0.14456  1.0000
  H   H5118     1.0  0.79275  0.51903  0.12054  1.0000
  H   H5119     1.0  0.82406  0.47718  0.13129  1.0000
  H   H5120     1.0  0.81034  0.52531  0.09741  1.0000
  H   H5121     1.0  0.84121  0.48423  0.10802  1.0000
  H   H5122     1.0  0.83445  0.50827  0.09083  1.0000
  N   N281      1.0  0.79403  0.41945  0.24647  1.0000
  H   H5123     1.0  0.95421  0.45304  0.40584  1.0000
  C   C4306     1.0  0.91870  0.45285  0.16280  1.0000
  H   H5124     1.0  0.92695  0.50104  0.27455  1.0000
  C   C4307     1.0  0.78425  0.42463  0.23570  1.0000
  H   H5125     1.0  0.95534  0.48586  0.38831  1.0000
  C   C4308     1.0  0.77688  0.43971  0.23156  1.0000
  H   H5126     1.0  0.84352  0.41402  0.26770  1.0000
  C   C4309     1.0  0.76776  0.44415  0.22132  1.0000
  H   H5127     1.0  0.92906  0.46693  0.16849  1.0000
  C   C4310     1.0  0.91153  0.51007  0.40982  1.0000
  H   H5128     1.0  0.72545  0.40692  0.13514  1.0000
  C   C4311     1.0  0.66317  0.57267  0.12065  1.0000
  H   H5129     1.0  0.74679  0.46830  0.98665  1.0000
  C   C4312     1.0  0.98533  0.56332  0.10479  1.0000
  H   H5130     1.0  0.98369  0.53568  0.34814  1.0000
  H   H5131     1.0  0.67321  0.58119  0.08212  1.0000
  H   H5132     1.0  0.86554  0.46033  0.29251  1.0000
  C   C4313     1.0  0.88022  0.43308  0.19883  1.0000
  H   H5133     1.0  0.95856  0.39935  0.30794  1.0000
  H   H5134     1.0  0.77816  0.44838  0.23583  1.0000
  C   C4314     1.0  0.53837  0.57559  0.15620  1.0000
  H   H5135     1.0  0.76256  0.45577  0.21800  1.0000
  H   H5136     1.0  0.76729  0.57911  0.02108  1.0000
  H   H5137     1.0  0.66424  0.57738  0.06143  1.0000
  H   H5138     1.0  0.95376  0.53718  0.32841  1.0000
  H   H5139     1.0  0.86265  0.51850  0.11495  1.0000
  C   C4315     1.0  0.76046  0.51246  0.07024  1.0000
  C   C4316     1.0  0.92207  0.53055  0.27307  1.0000
  C   C4317     1.0  0.92729  0.52970  0.25798  1.0000
  C   C4318     1.0  0.92558  0.54191  0.27735  1.0000
  C   C4319     1.0  0.93468  0.54016  0.24768  1.0000
  C   C4320     1.0  0.93302  0.55229  0.26694  1.0000
  C   C4321     1.0  0.93728  0.55158  0.25211  1.0000
  H   H5140     1.0  0.90032  0.53449  0.29812  1.0000
  H   H5141     1.0  0.78510  0.49702  0.07980  1.0000
  H   H5142     1.0  0.76611  0.56328  0.00741  1.0000
  C   C4322     1.0  0.98610  0.51584  0.31396  1.0000
  H   H5143     1.0  0.87041  0.50453  0.12911  1.0000
  C   C4323     1.0  0.94839  0.54616  0.14727  1.0000
  C   C4324     1.0  0.72241  0.42483  0.19520  1.0000
  H   H5144     1.0  0.94319  0.45879  0.42247  1.0000
  H   H5145     1.0  0.52036  0.56119  0.21001  1.0000
  H   H5146     1.0  0.92279  0.54298  0.28868  1.0000
  H   H5147     1.0  0.93854  0.53940  0.23617  1.0000
  H   H5148     1.0  0.93552  0.56094  0.27036  1.0000
  H   H5149     1.0  0.94289  0.55976  0.24404  1.0000
  N   N282      1.0  0.84939  0.43472  0.26509  1.0000
  C   C4325     1.0  0.83606  0.44378  0.25922  1.0000
  C   C4326     1.0  0.86229  0.44157  0.25716  1.0000
  H   H5150     1.0  0.97016  0.56914  0.32596  1.0000
  C   C4327     1.0  0.84683  0.43406  0.28108  1.0000
  C   C4328     1.0  0.84113  0.44721  0.28658  1.0000
  C   C4329     1.0  0.85066  0.42064  0.29148  1.0000
  C   C4330     1.0  0.83886  0.44688  0.30160  1.0000
  C   C4331     1.0  0.84859  0.42049  0.30644  1.0000
  H   H5151     1.0  0.68723  0.38537  0.15425  1.0000
  H   H5152     1.0  0.83714  0.44310  0.24763  1.0000
  H   H5153     1.0  0.83662  0.47778  0.99903  1.0000
  C   C4332     1.0  0.71913  0.57503  0.05731  1.0000
  H   H5154     1.0  0.86028  0.45305  0.25863  1.0000
  H   H5155     1.0  0.86482  0.44221  0.24504  1.0000
  H   H5156     1.0  0.87251  0.43512  0.26130  1.0000
  H   H5157     1.0  0.86337  0.41291  0.26428  1.0000
  H   H5158     1.0  0.92733  0.55306  0.40725  1.0000
  H   H5159     1.0  0.80971  0.40309  0.23489  1.0000
  H   H5160     1.0  0.83862  0.45790  0.27927  1.0000
  H   H5161     1.0  0.85544  0.41010  0.28838  1.0000
  C   C4333     1.0  0.84071  0.47074  0.99109  1.0000
  C   C4334     1.0  0.88070  0.56824  0.00556  1.0000
  H   H5162     1.0  0.97782  0.56292  0.14827  1.0000
  N   N283      1.0  0.88122  0.44568  0.33748  1.0000
  C   C4335     1.0  0.95346  0.56000  0.36313  1.0000
  H   H5163     1.0  0.92271  0.45660  0.15101  1.0000
  H   H5164     1.0  0.85939  0.45996  0.34208  1.0000
  H   H5165     1.0  0.91987  0.45861  0.19546  1.0000
  H   H5166     1.0  0.63919  0.57912  0.12384  1.0000
  H   H5167     1.0  0.98466  0.49629  0.28369  1.0000
  H   H5168     1.0  0.94286  0.56734  0.36178  1.0000
  C   C4336     1.0  0.70926  0.56124  0.04648  1.0000
  C   C4337     1.0  0.72120  0.56336  0.05063  1.0000
  C   C4338     1.0  0.94206  0.52173  0.38533  1.0000
  H   H5169     1.0  0.90707  0.43878  0.15964  1.0000
  H   H5170     1.0  0.89393  0.41738  0.30196  1.0000
  C   C4339     1.0  0.94738  0.47973  0.38761  1.0000
  S   S1185     1.0  0.59128  0.57257  0.14082  1.0000
  H   H5171     1.0  0.59162  0.51713  0.17947  1.0000
  H   H5172     1.0  0.74828  0.48954  0.08576  1.0000
  C   C4340     1.0  0.87682  0.43327  0.34963  1.0000
  C   C4341     1.0  0.93238  0.49946  0.17409  1.0000
  C   C4342     1.0  0.77263  0.41898  0.21882  1.0000
  H   H5173     1.0  0.91499  0.49655  0.39478  1.0000
  C   C4343     1.0  0.87859  0.38724  0.30605  1.0000
  H   H5174     1.0  0.71096  0.55221  0.04115  1.0000
  H   H5175     1.0  0.73211  0.55597  0.04865  1.0000
  C   C4344     1.0  0.81530  0.54668  0.99718  1.0000
  C   C4345     1.0  0.82466  0.54531  0.02256  1.0000
  H   H5176     1.0  0.97730  0.50772  0.21769  1.0000
  C   C4346     1.0  0.89679  0.44607  0.33687  1.0000
  C   C4347     1.0  0.82904  0.53767  0.99959  1.0000
  H   H5177     1.0  0.86644  0.57379  0.04765  1.0000
  H   H5178     1.0  0.86384  0.46815  0.99106  1.0000
  H   H5179     1.0  0.83563  0.53149  0.99131  1.0000
  H   H5180     1.0  0.76508  0.47536  0.08385  1.0000
  C   C4348     1.0  0.95770  0.55874  0.37622  1.0000
  H   H5181     1.0  0.91302  0.57192  0.47089  1.0000
  C   C4349     1.0  0.89295  0.54241  0.00983  1.0000
  S   S1186     1.0  0.98712  0.49202  0.19414  1.0000
  H   H5182     1.0  0.84014  0.49952  0.16224  1.0000
  H   H5183     1.0  0.96889  0.52945  0.33749  1.0000
  H   H5184     1.0  0.79519  0.40405  0.26746  1.0000
  H   H5185     1.0  0.98045  0.48902  0.26393  1.0000
  S   S1187     1.0  0.88184  0.39590  0.32933  1.0000
  H   H5186     1.0  0.85182  0.41018  0.31416  1.0000
  H   H5187     1.0  0.94019  0.56178  0.32717  1.0000
  H   H5188     1.0  0.94282  0.57353  0.33712  1.0000
  H   H5189     1.0  0.96480  0.51189  0.27015  1.0000
  C   C4350     1.0  0.94884  0.52159  0.39657  1.0000
  H   H5190     1.0  0.90781  0.56222  0.03829  1.0000
  C   C4351     1.0  0.96249  0.55158  0.35256  1.0000
  C   C4352     1.0  0.49976  0.51347  0.12594  1.0000
  C   C4353     1.0  0.97773  0.55756  0.23026  1.0000
  H   H5191     1.0  0.84642  0.49233  0.18627  1.0000
  C   C4354     1.0  0.68903  0.42096  0.15121  1.0000
  H   H5192     1.0  0.71354  0.58233  0.98373  1.0000
  C   C4355     1.0  0.94906  0.46286  0.41093  1.0000
  H   H5193     1.0  0.98882  0.56548  0.20786  1.0000
  H   H5194     1.0  0.70436  0.54613  0.12735  1.0000
  C   C4356     1.0  0.75384  0.56770  0.00871  1.0000
  H   H5195     1.0  0.84046  0.50731  0.02235  1.0000
  H   H5196     1.0  0.80378  0.56071  0.02797  1.0000
  C   C4357     1.0  0.83415  0.53664  0.01237  1.0000
  C   C4358     1.0  0.86075  0.53298  0.00232  1.0000
  C   C4359     1.0  0.99345  0.57530  0.22313  1.0000
  H   H5197     1.0  0.82903  0.51619  0.14382  1.0000
  C   C4360     1.0  0.89616  0.56620  0.04427  1.0000
  H   H5198     1.0  0.89673  0.56662  0.05552  1.0000
  C   C4361     1.0  0.85486  0.51525  0.15216  1.0000
  C   C4362     1.0  0.86562  0.52080  0.15531  1.0000
  S   S1188     1.0  0.99090  0.52997  0.16521  1.0000
  H   H5199     1.0  0.89075  0.38701  0.26210  1.0000
  H   H5200     1.0  0.99132  0.51237  0.28116  1.0000
  H   H5201     1.0  0.88719  0.55500  0.98922  1.0000
  H   H5202     1.0  0.88197  0.43545  0.20873  1.0000
  C   C4363     1.0  0.92782  0.46654  0.40077  1.0000
  C   C4364     1.0  0.84811  0.50470  0.16369  1.0000
  H   H5203     1.0  0.90065  0.51541  0.30607  1.0000
  H   H5204     1.0  0.91676  0.52208  0.30400  1.0000
  H   H5205     1.0  0.89363  0.53146  0.27529  1.0000
  C   C4365     1.0  0.86226  0.50607  0.18033  1.0000
  H   H5206     1.0  0.87337  0.52281  0.12490  1.0000
  C   C4366     1.0  0.80732  0.39493  0.20365  1.0000
  Fe  Fe601     1.0  0.98653  0.51627  0.18829  1.0000
  H   H5207     1.0  0.84233  0.54066  0.12322  1.0000
  C   C4367     1.0  0.72286  0.58143  0.01183  1.0000
  H   H5208     1.0  0.84125  0.43333  0.32308  1.0000
  H   H5209     1.0  0.92125  0.41897  0.30017  1.0000
  C   C4368     1.0  0.88799  0.42782  0.30506  1.0000
  C   C4369     1.0  0.92807  0.50245  0.42666  1.0000
  S   S1189     1.0  0.95197  0.53192  0.41904  1.0000
  Fe  Fe602     1.0  0.95039  0.55208  0.42769  1.0000
  C   C4370     1.0  0.93521  0.48979  0.42096  1.0000
  H   H5210     1.0  0.83452  0.45708  0.30554  1.0000
  H   H5211     1.0  0.73805  0.42620  0.13012  1.0000
  H   H5212     1.0  0.74630  0.43398  0.13978  1.0000
  N   N284      1.0  0.95815  0.55220  0.33880  1.0000
  S   S1190     1.0  0.99205  0.57942  0.41525  1.0000
  C   C4371     1.0  0.98214  0.56733  0.24893  1.0000
  H   H5213     1.0  0.89292  0.51317  0.28614  1.0000
  H   H5214     1.0  0.97224  0.52773  0.26707  1.0000
  H   H5215     1.0  0.87849  0.39856  0.30010  1.0000
  N   N285      1.0  0.74264  0.41215  0.15083  1.0000
  H   H5216     1.0  0.95859  0.46722  0.41115  1.0000
  N   N286      1.0  0.94485  0.41779  0.29551  1.0000
  C   C4372     1.0  0.95875  0.40618  0.29656  1.0000
  C   C4373     1.0  0.93196  0.41058  0.30032  1.0000
  C   C4374     1.0  0.94589  0.42524  0.27967  1.0000
  C   C4375     1.0  0.94286  0.42795  0.30523  1.0000
  C   C4376     1.0  0.94166  0.44349  0.29994  1.0000
  C   C4377     1.0  0.94177  0.42237  0.32065  1.0000
  C   C4378     1.0  0.93943  0.45274  0.30960  1.0000
  C   C4379     1.0  0.93960  0.43169  0.33015  1.0000
  C   C4380     1.0  0.93843  0.44684  0.32468  1.0000
  H   H5217     1.0  0.96783  0.55218  0.25351  1.0000
  C   C4381     1.0  0.69515  0.57072  0.04909  1.0000
  H   H5218     1.0  0.96870  0.41115  0.29321  1.0000
  H   H5219     1.0  0.68206  0.52172  0.12163  1.0000
  C   C4382     1.0  0.84264  0.43355  0.31150  1.0000
  H   H5220     1.0  0.93263  0.40323  0.29298  1.0000
  H   H5221     1.0  0.95559  0.43063  0.27515  1.0000
  H   H5222     1.0  0.81705  0.40853  0.24699  1.0000
  H   H5223     1.0  0.93552  0.43366  0.27796  1.0000
  H   H5224     1.0  0.94242  0.44880  0.28839  1.0000
  H   H5225     1.0  0.94262  0.41068  0.32551  1.0000
  H   H5226     1.0  0.93858  0.46454  0.30535  1.0000
  H   H5227     1.0  0.93893  0.42707  0.34183  1.0000
  H   H5228     1.0  0.93687  0.45395  0.33217  1.0000
  N   N287      1.0  0.68642  0.53435  0.13461  1.0000
  C   C4383     1.0  0.68453  0.52029  0.13260  1.0000
  C   C4384     1.0  0.68699  0.53244  0.15020  1.0000
  C   C4385     1.0  0.51542  0.56797  0.15899  1.0000
  C   C4386     1.0  0.67368  0.54668  0.13118  1.0000
  C   C4387     1.0  0.67552  0.56113  0.12325  1.0000
  C   C4388     1.0  0.65878  0.54471  0.13664  1.0000
  C   C4389     1.0  0.79520  0.43142  0.25269  1.0000
  C   C4390     1.0  0.88043  0.44350  0.32317  1.0000
  H   H5229     1.0  0.91738  0.49649  0.29336  1.0000
  H   H5230     1.0  0.93119  0.40359  0.31167  1.0000
  C   C4391     1.0  0.91625  0.51255  0.42112  1.0000
  H   H5231     1.0  0.70691  0.39189  0.18037  1.0000
  H   H5232     1.0  0.68918  0.54241  0.15211  1.0000
  H   H5233     1.0  0.69581  0.52268  0.15367  1.0000
  H   H5234     1.0  0.67626  0.53060  0.15786  1.0000
  H   H5235     1.0  0.71033  0.52705  0.12744  1.0000
  H   H5236     1.0  0.89799  0.53238  0.03075  1.0000
  H   H5237     1.0  0.88421  0.43202  0.17061  1.0000
  N   N288      1.0  0.85127  0.52028  0.13734  1.0000
  H   H5238     1.0  0.65638  0.53427  0.14329  1.0000
  C   C4392     1.0  0.76556  0.43379  0.21506  1.0000
  H   H5239     1.0  0.88276  0.41435  0.18254  1.0000
  C   C4393     1.0  0.94089  0.49911  0.19623  1.0000
  H   H5240     1.0  0.80255  0.42707  0.26079  1.0000
  C   C4394     1.0  0.91847  0.49675  0.18323  1.0000
  N   N289      1.0  0.76746  0.49671  0.07000  1.0000
  H   H5241     1.0  0.85966  0.53271  0.99125  1.0000
  H   H5242     1.0  0.94281  0.52287  0.17342  1.0000
  H   H5243     1.0  0.93161  0.50868  0.19871  1.0000
  H   H5244     1.0  0.95040  0.49995  0.20025  1.0000
  H   H5245     1.0  0.93760  0.48866  0.20306  1.0000
  H   H5246     1.0  0.91621  0.49486  0.19512  1.0000
  H   H5247     1.0  0.57436  0.54750  0.16358  1.0000
  H   H5248     1.0  0.85290  0.53782  0.02948  1.0000
  C   C4395     1.0  0.96928  0.55791  0.32583  1.0000
  H   H5249     1.0  0.86503  0.50259  0.19112  1.0000
  C   C4396     1.0  0.93151  0.54436  0.40115  1.0000
  H   H5250     1.0  0.78824  0.39810  0.25555  1.0000
  C   C4397     1.0  0.98854  0.49547  0.25601  1.0000
  C   C4398     1.0  0.91716  0.45397  0.18778  1.0000
  H   H5251     1.0  0.97008  0.52241  0.25165  1.0000
  H   H5252     1.0  0.90274  0.51826  0.40509  1.0000
  H   H5253     1.0  0.90471  0.43533  0.33566  1.0000
  C   C4399     1.0  0.98849  0.58097  0.37709  1.0000
  N   N290      1.0  0.93859  0.47417  0.40243  1.0000
  C   C4400     1.0  0.73633  0.41634  0.19749  1.0000
  C   C4401     1.0  0.78818  0.40812  0.25904  1.0000
  H   H5254     1.0  0.68191  0.41225  0.20874  1.0000
  H   H5255     1.0  0.50310  0.50757  0.11673  1.0000
  C   C4402     1.0  0.90406  0.43756  0.18338  1.0000
  H   H5256     1.0  0.91302  0.40816  0.19162  1.0000
  H   H5257     1.0  0.80017  0.44005  0.24390  1.0000
  H   H5258     1.0  0.90457  0.44024  0.20496  1.0000
  H   H5259     1.0  0.72845  0.57664  0.06056  1.0000
  H   H5260     1.0  0.99363  0.56971  0.14769  1.0000
  H   H5261     1.0  0.63528  0.55438  0.13818  1.0000
  H   H5262     1.0  0.75185  0.42132  0.16345  1.0000
  H   H5263     1.0  0.77650  0.41253  0.26455  1.0000
  N   N291      1.0  0.84893  0.52721  0.01442  1.0000
  C   C4403     1.0  0.85237  0.52672  0.02866  1.0000
  C   C4404     1.0  0.84968  0.51177  0.01393  1.0000
  C   C4405     1.0  0.95480  0.57312  0.11553  1.0000
  N   N292      1.0  0.94506  0.49924  0.18017  1.0000
  H   H5264     1.0  0.86557  0.43194  0.34982  1.0000
  C   C4406     1.0  0.93440  0.54878  0.14385  1.0000
  C   C4407     1.0  0.95146  0.51245  0.17250  1.0000
  H   H5265     1.0  0.95244  0.47559  0.18338  1.0000
  H   H5266     1.0  0.96126  0.48567  0.16599  1.0000
  C   C4408     1.0  0.95682  0.48579  0.17791  1.0000
  H   H5267     1.0  0.95171  0.56712  0.09695  1.0000
  H   H5268     1.0  0.92460  0.55475  0.15033  1.0000
  C   C4409     1.0  0.88692  0.55519  0.00047  1.0000
  H   H5269     1.0  0.96030  0.57701  0.13357  1.0000
  H   H5270     1.0  0.96651  0.48499  0.18255  1.0000
  C   C4410     1.0  0.79495  0.41276  0.17984  1.0000
  C   C4411     1.0  0.96418  0.52107  0.30392  1.0000
  H   H5271     1.0  0.97045  0.50170  0.32046  1.0000
  H   H5272     1.0  0.96097  0.54120  0.28725  1.0000
  H   H5273     1.0  0.95641  0.51277  0.16061  1.0000
  H   H5274     1.0  0.94435  0.50318  0.15089  1.0000
  H   H5275     1.0  0.76293  0.48936  0.09377  1.0000
  H   H5276     1.0  0.58623  0.53415  0.18518  1.0000
  S   S1191     1.0  0.68539  0.43346  0.16268  1.0000
  N   N293      1.0  0.88646  0.55630  0.04504  1.0000
  H   H5277     1.0  0.92397  0.50250  0.14086  1.0000
  C   C4412     1.0  0.86498  0.51637  0.12610  1.0000
  C   C4413     1.0  0.87184  0.45186  0.29988  1.0000
  Fe  Fe603     1.0  0.96919  0.54502  0.17301  1.0000
  S   S1192     1.0  0.96420  0.53052  0.19546  1.0000
  C   C4414     1.0  0.97325  0.51190  0.31350  1.0000
  C   C4415     1.0  0.96802  0.53408  0.29466  1.0000
  H   H5278     1.0  0.87058  0.56223  0.06447  1.0000
  C   C4416     1.0  0.93402  0.50145  0.15862  1.0000
  H   H5279     1.0  0.70033  0.42534  0.19466  1.0000
  H   H5280     1.0  0.87660  0.43494  0.36066  1.0000
  H   H5281     1.0  0.57459  0.50692  0.17419  1.0000
  S   S1193     1.0  0.94988  0.55374  0.16135  1.0000
  C   C4417     1.0  0.98088  0.53802  0.29514  1.0000
  H   H5282     1.0  0.94718  0.41727  0.27275  1.0000
  C   C4418     1.0  0.58211  0.52423  0.18582  1.0000
  C   C4419     1.0  0.94357  0.53287  0.40456  1.0000
  C   C4420     1.0  0.87104  0.56218  0.05283  1.0000
  C   C4421     1.0  0.92241  0.50103  0.15272  1.0000
  C   C4422     1.0  0.90697  0.49622  0.17722  1.0000
  H   H5283     1.0  0.89658  0.49387  0.18449  1.0000
  H   H5284     1.0  0.88470  0.42248  0.34874  1.0000
  C   C4423     1.0  0.90891  0.49841  0.16199  1.0000
  H   H5285     1.0  0.76492  0.40762  0.15461  1.0000
  H   H5286     1.0  0.89117  0.54235  0.06577  1.0000
  H   H5287     1.0  0.79547  0.56173  0.00564  1.0000
  H   H5288     1.0  0.81184  0.38816  0.21306  1.0000
  H   H5289     1.0  0.74542  0.42169  0.19591  1.0000
  C   C4424     1.0  0.90045  0.52002  0.27794  1.0000
  H   H5290     1.0  0.87141  0.52864  0.14699  1.0000
  H   H5291     1.0  0.95817  0.51268  0.39916  1.0000
  C   C4425     1.0  0.56480  0.51438  0.17979  1.0000
  H   H5292     1.0  0.87442  0.46948  0.33312  1.0000
  H   H5293     1.0  0.90033  0.41660  0.17055  1.0000
  H   H5294     1.0  0.82574  0.44007  0.26603  1.0000
  H   H5295     1.0  0.90005  0.49786  0.15734  1.0000
  H   H5296     1.0  0.94620  0.51306  0.37922  1.0000
  C   C4426     1.0  0.73376  0.39732  0.13871  1.0000
  H   H5297     1.0  0.87211  0.46088  0.35218  1.0000
  H   H5298     1.0  0.75754  0.41949  0.13048  1.0000
  C   C4427     1.0  0.92469  0.54445  0.38996  1.0000
  H   H5299     1.0  0.87588  0.57899  0.02333  1.0000
  H   H5300     1.0  0.89777  0.44841  0.34714  1.0000
  C   C4428     1.0  0.69799  0.38527  0.21792  1.0000
  C   C4429     1.0  0.83060  0.46734  0.98520  1.0000
  H   H5301     1.0  0.80777  0.45266  0.98741  1.0000
  H   H5302     1.0  0.99024  0.53312  0.37156  1.0000
  H   H5303     1.0  0.74945  0.39440  0.20340  1.0000
  S   S1194     1.0  0.61353  0.57792  0.15909  1.0000
  H   H5304     1.0  0.87613  0.57822  0.99820  1.0000
  H   H5305     1.0  0.91112  0.52259  0.42521  1.0000
  Fe  Fe604     1.0  0.57200  0.58233  0.15716  1.0000
  H   H5306     1.0  0.97813  0.58225  0.14097  1.0000
  H   H5307     1.0  0.68644  0.56849  0.04549  1.0000
  H   H5308     1.0  0.98504  0.49873  0.24532  1.0000
  H   H5309     1.0  0.70019  0.58191  0.01165  1.0000
  H   H5310     1.0  0.93209  0.50479  0.43502  1.0000
  H   H5311     1.0  0.67736  0.39881  0.20216  1.0000
  H   H5312     1.0  0.98562  0.57052  0.37737  1.0000
  C   C4430     1.0  0.72705  0.39404  0.20320  1.0000
  C   C4431     1.0  0.79694  0.39042  0.19906  1.0000
  H   H5313     1.0  0.51734  0.58338  0.17030  1.0000
  C   C4432     1.0  0.96503  0.57327  0.12335  1.0000
  H   H5314     1.0  0.84273  0.38669  0.19251  1.0000
  H   H5315     1.0  0.89211  0.57775  0.03849  1.0000
  C   C4433     1.0  0.99234  0.50323  0.27584  1.0000
  N   N294      1.0  0.99181  0.56762  0.12655  1.0000
  S   S1195     1.0  0.91507  0.48611  0.97779  1.0000
  C   C4434     1.0  0.75426  0.38484  0.15098  1.0000
  H   H5316     1.0  0.76232  0.38430  0.15714  1.0000
  N   N295      1.0  0.74939  0.58349  0.00977  1.0000
  C   C4435     1.0  0.73443  0.38417  0.13488  1.0000
  H   H5317     1.0  0.72670  0.38388  0.12865  1.0000
  Fe  Fe605     1.0  0.71235  0.45598  0.92673  1.0000
  S   S1196     1.0  0.69984  0.47898  0.91792  1.0000
  S   S1197     1.0  0.71850  0.43713  0.91491  1.0000
  Fe  Fe606     1.0  0.71946  0.46542  0.95104  1.0000
  S   S1198     1.0  0.70708  0.48877  0.94472  1.0000
  H   H5318     1.0  0.94787  0.44233  0.72049  1.0000
  Fe  Fe607     1.0  0.68954  0.47926  0.94184  1.0000
  S   S1199     1.0  0.66557  0.48932  0.95165  1.0000
  Fe  Fe608     1.0  0.71840  0.48671  0.92157  1.0000
  S   S1200     1.0  0.72802  0.50600  0.90685  1.0000
  S   S1201     1.0  0.70087  0.45567  0.95053  1.0000
  S   S1202     1.0  0.73184  0.46390  0.92795  1.0000
  H   H5319     1.0  0.83811  0.46122  0.94557  1.0000
  H   H5320     1.0  0.93013  0.38597  0.72179  1.0000
  H   H5321     1.0  0.86898  0.44655  0.83825  1.0000
  C   C4436     1.0  0.85235  0.55703  0.94336  1.0000
  C   C4437     1.0  0.88705  0.39951  0.84830  1.0000
  C   C4438     1.0  0.96436  0.51600  0.56224  1.0000
  Fe  Fe609     1.0  0.60806  0.55728  0.92226  1.0000
  S   S1203     1.0  0.62403  0.53849  0.91256  1.0000
  S   S1204     1.0  0.59645  0.55497  0.94614  1.0000
  C   C4439     1.0  0.94809  0.50221  0.83711  1.0000
  H   H5322     1.0  0.93477  0.49364  0.92736  1.0000
  C   C4440     1.0  0.82656  0.46364  0.95233  1.0000
  S   S1205     1.0  0.81576  0.54471  0.94220  1.0000
  H   H5323     1.0  0.69077  0.39801  0.87532  1.0000
  S   S1206     1.0  0.79019  0.48451  0.95070  1.0000
  S   S1207     1.0  0.78271  0.52440  0.95374  1.0000
  Fe  Fe610     1.0  0.82462  0.45172  0.91561  1.0000
  S   S1208     1.0  0.82501  0.45690  0.89136  1.0000
  S   S1209     1.0  0.81952  0.43098  0.93172  1.0000
  Fe  Fe611     1.0  0.83546  0.47905  0.91331  1.0000
  S   S1210     1.0  0.83731  0.48625  0.88887  1.0000
  S   S1211     1.0  0.83886  0.49416  0.92551  1.0000
  Fe  Fe612     1.0  0.81505  0.48032  0.89391  1.0000
  S   S1212     1.0  0.79801  0.49740  0.88245  1.0000
  Fe  Fe613     1.0  0.84707  0.46225  0.88858  1.0000
  S   S1213     1.0  0.86629  0.45097  0.87307  1.0000
  S   S1214     1.0  0.81255  0.47455  0.91839  1.0000
  S   S1215     1.0  0.84736  0.45558  0.91270  1.0000
  H   H5324     1.0  0.83452  0.56553  0.93162  1.0000
  H   H5325     1.0  0.94299  0.39068  0.81295  1.0000
  S   S1216     1.0  0.97762  0.52278  0.63006  1.0000
  H   H5326     1.0  0.70114  0.53136  0.89735  1.0000
  H   H5327     1.0  0.72944  0.50718  0.93695  1.0000
  Fe  Fe614     1.0  0.93351  0.46720  0.77773  1.0000
  S   S1217     1.0  0.95376  0.45228  0.78550  1.0000
  S   S1218     1.0  0.92953  0.46418  0.75705  1.0000
  Fe  Fe615     1.0  0.92043  0.47694  0.80695  1.0000
  S   S1219     1.0  0.93902  0.46200  0.81748  1.0000
  S   S1220     1.0  0.90183  0.49168  0.81963  1.0000
  Fe  Fe616     1.0  0.95359  0.47040  0.79585  1.0000
  S   S1221     1.0  0.97423  0.47838  0.79382  1.0000
  Fe  Fe617     1.0  0.93722  0.44531  0.80620  1.0000
  S   S1222     1.0  0.93724  0.42113  0.81494  1.0000
  S   S1223     1.0  0.93498  0.48633  0.78572  1.0000
  S   S1224     1.0  0.91704  0.45947  0.79801  1.0000
  H   H5328     1.0  0.95879  0.45590  0.93112  1.0000
  S   S1225     1.0  0.97378  0.53595  0.88636  1.0000
  C   C4441     1.0  0.80573  0.40468  0.90739  1.0000
  S   S1226     1.0  0.98378  0.52349  0.84937  1.0000
  H   H5329     1.0  0.72288  0.40838  0.88052  1.0000
  H   H5330     1.0  0.89844  0.50448  0.89696  1.0000
  H   H5331     1.0  0.86792  0.40874  0.81311  1.0000
  S   S1227     1.0  0.94684  0.50060  0.94992  1.0000
  C   C4442     1.0  0.78632  0.53755  0.91013  1.0000
  H   H5332     1.0  0.55708  0.55716  0.92022  1.0000
  S   S1228     1.0  0.90497  0.51051  0.94863  1.0000
  C   C4443     1.0  0.72760  0.38763  0.94868  1.0000
  H   H5333     1.0  0.98979  0.55221  0.64476  1.0000
  S   S1229     1.0  0.93818  0.56451  0.58477  1.0000
  H   H5334     1.0  0.98037  0.55323  0.50000  1.0000
  C   C4444     1.0  0.95932  0.52400  0.73167  1.0000
  S   S1230     1.0  0.98111  0.48160  0.65400  1.0000
  S   S1231     1.0  0.81319  0.50398  0.96508  1.0000
  N   N296      1.0  0.70255  0.41518  0.87259  1.0000
  H   H5335     1.0  0.67111  0.43710  0.92073  1.0000
  Fe  Fe618     1.0  0.95832  0.47740  0.66597  1.0000
  S   S1232     1.0  0.94635  0.50145  0.66054  1.0000
  S   S1233     1.0  0.94745  0.45850  0.66835  1.0000
  H   H5336     1.0  0.54500  0.51349  0.92093  1.0000
  S   S1234     1.0  0.97282  0.50896  0.67118  1.0000
  H   H5337     1.0  0.76231  0.40525  0.93738  1.0000
  Fe  Fe619     1.0  0.95081  0.50268  0.68172  1.0000
  S   S1235     1.0  0.93526  0.51443  0.69919  1.0000
  Fe  Fe620     1.0  0.96942  0.50581  0.65027  1.0000
  H   H5338     1.0  0.98831  0.38674  0.67677  1.0000
  S   S1236     1.0  0.96101  0.47858  0.68788  1.0000
  C   C4445     1.0  0.97836  0.54689  0.53691  1.0000
  C   C4446     1.0  0.95363  0.52618  0.83240  1.0000
  H   H5339     1.0  0.91792  0.46242  0.93078  1.0000
  H   H5340     1.0  0.75137  0.52271  0.96056  1.0000
  H   H5341     1.0  0.68518  0.40594  0.95011  1.0000
  S   S1237     1.0  0.87560  0.54604  0.95729  1.0000
  S   S1238     1.0  0.73134  0.45983  0.96971  1.0000
  C   C4447     1.0  0.68579  0.54932  0.90658  1.0000
  H   H5342     1.0  0.73274  0.54290  0.95995  1.0000
  H   H5343     1.0  0.64958  0.53861  0.96742  1.0000
  H   H5344     1.0  0.98327  0.57305  0.60496  1.0000
  H   H5345     1.0  0.71984  0.50964  0.95532  1.0000
  C   C4448     1.0  0.94828  0.57001  0.48872  1.0000
  N   N297      1.0  0.96600  0.43848  0.73113  1.0000
  H   H5346     1.0  0.92810  0.46373  0.64561  1.0000
  H   H5347     1.0  0.65707  0.56164  0.95971  1.0000
  C   C4449     1.0  0.52534  0.56506  0.94613  1.0000
  H   H5348     1.0  0.85823  0.54176  0.91191  1.0000
  C   C4450     1.0  0.87061  0.54019  0.90803  1.0000
  C   C4451     1.0  0.94889  0.55347  0.59780  1.0000
  C   C4452     1.0  0.96340  0.55491  0.59648  1.0000
  C   C4453     1.0  0.97208  0.54532  0.60639  1.0000
  C   C4454     1.0  0.96623  0.53447  0.61790  1.0000
  C   C4455     1.0  0.95166  0.53318  0.61937  1.0000
  C   C4456     1.0  0.94307  0.54257  0.60926  1.0000
  H   H5349     1.0  0.96803  0.56321  0.58764  1.0000
  H   H5350     1.0  0.89375  0.42045  0.77685  1.0000
  H   H5351     1.0  0.94705  0.52485  0.62819  1.0000
  H   H5352     1.0  0.93185  0.54140  0.61035  1.0000
  C   C4457     1.0  0.96592  0.52565  0.90360  1.0000
  C   C4458     1.0  0.97272  0.51099  0.90902  1.0000
  C   C4459     1.0  0.96689  0.50356  0.92334  1.0000
  C   C4460     1.0  0.95374  0.51040  0.93203  1.0000
  C   C4461     1.0  0.94664  0.52487  0.92644  1.0000
  C   C4462     1.0  0.95292  0.53258  0.91240  1.0000
  H   H5353     1.0  0.98267  0.50546  0.90238  1.0000
  H   H5354     1.0  0.97258  0.49245  0.92769  1.0000
  H   H5355     1.0  0.93660  0.53030  0.93313  1.0000
  H   H5356     1.0  0.94771  0.54398  0.90835  1.0000
  C   C4463     1.0  0.97780  0.47938  0.81040  1.0000
  C   C4464     1.0  0.97282  0.47007  0.82380  1.0000
  C   C4465     1.0  0.97607  0.47079  0.83684  1.0000
  S   S1239     1.0  0.80041  0.39503  0.89766  1.0000
  C   C4466     1.0  0.75304  0.46974  0.97531  1.0000
  H   H5357     1.0  0.96675  0.57589  0.66930  1.0000
  H   H5358     1.0  0.96685  0.46199  0.82408  1.0000
  H   H5359     1.0  0.97241  0.46337  0.84712  1.0000
  N   N298      1.0  0.96221  0.53235  0.55865  1.0000
  H   H5360     1.0  0.75123  0.51740  0.92410  1.0000
  C   C4467     1.0  0.92914  0.47900  0.74161  1.0000
  C   C4468     1.0  0.92951  0.49317  0.74231  1.0000
  C   C4469     1.0  0.93024  0.50444  0.72940  1.0000
  C   C4470     1.0  0.93140  0.50133  0.71573  1.0000
  C   C4471     1.0  0.93044  0.48732  0.71522  1.0000
  C   C4472     1.0  0.92908  0.47626  0.72816  1.0000
  H   H5361     1.0  0.92926  0.49542  0.75272  1.0000
  H   H5362     1.0  0.93040  0.51542  0.72994  1.0000
  H   H5363     1.0  0.93064  0.48504  0.70483  1.0000
  H   H5364     1.0  0.92824  0.46550  0.72763  1.0000
  C   C4473     1.0  0.65812  0.53478  0.95795  1.0000
  C   C4474     1.0  0.97723  0.50097  0.73915  1.0000
  H   H5365     1.0  0.59062  0.52370  0.95846  1.0000
  C   C4475     1.0  0.57896  0.52438  0.95790  1.0000
  H   H5366     1.0  0.81139  0.50460  0.91259  1.0000
  C   C4476     1.0  0.88519  0.42167  0.78723  1.0000
  H   H5367     1.0  0.86306  0.52251  0.93478  1.0000
  H   H5368     1.0  0.90733  0.40676  0.81218  1.0000
  H   H5369     1.0  0.84643  0.39441  0.90403  1.0000
  H   H5370     1.0  0.89683  0.54030  0.91693  1.0000
  S   S1240     1.0  0.61593  0.57747  0.92091  1.0000
  H   H5371     1.0  0.83993  0.43572  0.95979  1.0000
  C   C4477     1.0  0.94363  0.39127  0.79028  1.0000
  S   S1241     1.0  0.97942  0.53522  0.76678  1.0000
  C   C4478     1.0  0.64587  0.55415  0.94075  1.0000
  S   S1242     1.0  0.97456  0.40241  0.63926  1.0000
  C   C4479     1.0  0.76454  0.45076  0.89690  1.0000
  H   H5372     1.0  0.95798  0.45929  0.73813  1.0000
  C   C4480     1.0  0.87602  0.46260  0.85845  1.0000
  C   C4481     1.0  0.87130  0.47802  0.85601  1.0000
  C   C4482     1.0  0.87925  0.48700  0.84408  1.0000
  C   C4483     1.0  0.89190  0.48056  0.83461  1.0000
  C   C4484     1.0  0.89661  0.46515  0.83711  1.0000
  C   C4485     1.0  0.88869  0.45621  0.84898  1.0000
  H   H5373     1.0  0.86148  0.48303  0.86318  1.0000
  H   H5374     1.0  0.87554  0.49892  0.84214  1.0000
  H   H5375     1.0  0.90639  0.46007  0.82993  1.0000
  H   H5376     1.0  0.89238  0.44432  0.85078  1.0000
  C   C4486     1.0  0.85351  0.48750  0.93491  1.0000
  C   C4487     1.0  0.85400  0.49494  0.94524  1.0000
  H   H5377     1.0  0.82077  0.43600  0.96333  1.0000
  C   C4488     1.0  0.89668  0.40683  0.85040  1.0000
  C   C4489     1.0  0.87726  0.47114  0.93851  1.0000
  C   C4490     1.0  0.86507  0.47547  0.93168  1.0000
  H   H5378     1.0  0.84506  0.50424  0.94777  1.0000
  H   H5379     1.0  0.88629  0.46195  0.93583  1.0000
  H   H5380     1.0  0.86483  0.46976  0.92363  1.0000
  C   C4491     1.0  0.83210  0.54491  0.94703  1.0000
  C   C4492     1.0  0.83924  0.55663  0.93983  1.0000
  H   H5381     1.0  0.84569  0.42821  0.87334  1.0000
  C   C4493     1.0  0.97451  0.42968  0.64297  1.0000
  C   C4494     1.0  0.85866  0.54551  0.95383  1.0000
  N   N299      1.0  0.93778  0.47048  0.92767  1.0000
  C   C4495     1.0  0.69852  0.39591  0.93194  1.0000
  H   H5382     1.0  0.58974  0.50164  0.93392  1.0000
  C   C4496     1.0  0.81221  0.53078  0.91404  1.0000
  H   H5383     1.0  0.93492  0.44814  0.93197  1.0000
  H   H5384     1.0  0.96813  0.41947  0.74951  1.0000
  H   H5385     1.0  0.91514  0.58222  0.49642  1.0000
  H   H5386     1.0  0.80191  0.45534  0.97053  1.0000
  H   H5387     1.0  0.72219  0.39837  0.95128  1.0000
  C   C4497     1.0  0.74793  0.46629  0.96470  1.0000
  C   C4498     1.0  0.75610  0.46811  0.95010  1.0000
  C   C4499     1.0  0.76929  0.47324  0.94611  1.0000
  C   C4500     1.0  0.77412  0.47721  0.95653  1.0000
  H   H5388     1.0  0.99069  0.52835  0.91682  1.0000
  H   H5389     1.0  0.66984  0.56492  0.91811  1.0000
  H   H5390     1.0  0.75250  0.46524  0.94189  1.0000
  H   H5391     1.0  0.77567  0.47438  0.93486  1.0000
  H   H5392     1.0  0.55061  0.52996  0.96284  1.0000
  C   C4501     1.0  0.86614  0.49057  0.95212  1.0000
  C   C4502     1.0  0.74758  0.50323  0.90082  1.0000
  C   C4503     1.0  0.75343  0.51271  0.88796  1.0000
  C   C4504     1.0  0.76889  0.51076  0.88252  1.0000
  C   C4505     1.0  0.77870  0.49954  0.89009  1.0000
  C   C4506     1.0  0.77296  0.49048  0.90338  1.0000
  C   C4507     1.0  0.75736  0.49216  0.90865  1.0000
  H   H5393     1.0  0.74595  0.52134  0.88191  1.0000
  H   H5394     1.0  0.77326  0.51787  0.87229  1.0000
  H   H5395     1.0  0.78056  0.48201  0.90935  1.0000
  H   H5396     1.0  0.75293  0.48497  0.91874  1.0000
  C   C4508     1.0  0.65416  0.50280  0.94052  1.0000
  C   C4509     1.0  0.64001  0.51001  0.94732  1.0000
  C   C4510     1.0  0.63085  0.52122  0.93888  1.0000
  C   C4511     1.0  0.63560  0.52500  0.92352  1.0000
  C   C4512     1.0  0.64962  0.51762  0.91669  1.0000
  C   C4513     1.0  0.65895  0.50666  0.92517  1.0000
  H   H5397     1.0  0.63623  0.50702  0.95920  1.0000
  H   H5398     1.0  0.62004  0.52676  0.94426  1.0000
  H   H5399     1.0  0.65334  0.52046  0.90479  1.0000
  H   H5400     1.0  0.66980  0.50116  0.91981  1.0000
  H   H5401     1.0  0.75030  0.50397  0.96403  1.0000
  C   C4514     1.0  0.94279  0.47269  0.91139  1.0000
  C   C4515     1.0  0.68440  0.41348  0.89734  1.0000
  C   C4516     1.0  0.53403  0.52171  0.94059  1.0000
  C   C4517     1.0  0.74982  0.42776  0.95072  1.0000
  C   C4518     1.0  0.90173  0.40706  0.80339  1.0000
  C   C4519     1.0  0.71558  0.41014  0.91395  1.0000
  C   C4520     1.0  0.71073  0.42133  0.92195  1.0000
  C   C4521     1.0  0.69985  0.41974  0.93509  1.0000
  C   C4522     1.0  0.69373  0.40706  0.94004  1.0000
  H   H5402     1.0  0.96779  0.51923  0.75084  1.0000
  H   H5403     1.0  0.72392  0.41142  0.90379  1.0000
  H   H5404     1.0  0.69598  0.42834  0.94131  1.0000
  C   C4523     1.0  0.81308  0.39720  0.91893  1.0000
  C   C4524     1.0  0.81720  0.40526  0.92661  1.0000
  C   C4525     1.0  0.81427  0.42073  0.92247  1.0000
  C   C4526     1.0  0.80693  0.42810  0.91098  1.0000
  C   C4527     1.0  0.80250  0.42012  0.90356  1.0000
  C   C4528     1.0  0.96725  0.41783  0.64762  1.0000
  H   H5405     1.0  0.82279  0.39953  0.93560  1.0000
  H   H5406     1.0  0.80430  0.44003  0.90804  1.0000
  H   H5407     1.0  0.79667  0.42593  0.89475  1.0000
  C   C4529     1.0  0.94604  0.53905  0.56274  1.0000
  C   C4530     1.0  0.96878  0.44214  0.64939  1.0000
  C   C4531     1.0  0.95561  0.44289  0.66036  1.0000
  C   C4532     1.0  0.94839  0.43102  0.66501  1.0000
  C   C4533     1.0  0.51503  0.56254  0.93974  1.0000
  H   H5408     1.0  0.89015  0.39453  0.83883  1.0000
  H   H5409     1.0  0.93824  0.43148  0.67354  1.0000
  C   C4534     1.0  0.77520  0.42856  0.94862  1.0000
  H   H5410     1.0  0.71034  0.55459  0.91647  1.0000
  C   C4535     1.0  0.93985  0.41302  0.79998  1.0000
  C   C4536     1.0  0.93904  0.42193  0.78592  1.0000
  C   C4537     1.0  0.94038  0.41558  0.77411  1.0000
  C   C4538     1.0  0.94302  0.56941  0.50396  1.0000
  H   H5411     1.0  0.93671  0.43380  0.78420  1.0000
  C   C4539     1.0  0.76498  0.43419  0.92621  1.0000
  Fe  Fe621     1.0  0.79171  0.50050  0.96281  1.0000
  C   C4540     1.0  0.70843  0.42635  0.85978  1.0000
  C   C4541     1.0  0.87793  0.47885  0.94854  1.0000
  C   C4542     1.0  0.51987  0.55778  0.92646  1.0000
  C   C4543     1.0  0.86840  0.41731  0.81804  1.0000
  C   C4544     1.0  0.80777  0.52932  0.89136  1.0000
  H   H5412     1.0  0.87327  0.54322  0.89574  1.0000
  H   H5413     1.0  0.93947  0.46235  0.88136  1.0000
  H   H5414     1.0  0.97403  0.40899  0.73024  1.0000
  C   C4545     1.0  0.98603  0.48946  0.81011  1.0000
  H   H5415     1.0  0.98212  0.53158  0.56553  1.0000
  C   C4546     1.0  0.54540  0.55870  0.92569  1.0000
  C   C4547     1.0  0.96950  0.43110  0.74586  1.0000
  H   H5416     1.0  0.59663  0.53073  0.93170  1.0000
  H   H5417     1.0  0.50368  0.54238  0.88049  1.0000
  H   H5418     1.0  0.89433  0.56861  0.47836  1.0000
  H   H5419     1.0  0.85772  0.56621  0.93783  1.0000
  H   H5420     1.0  0.94395  0.55138  0.55950  1.0000
  C   C4548     1.0  0.98829  0.58047  0.60812  1.0000
  H   H5421     1.0  0.74169  0.42454  0.94662  1.0000
  H   H5422     1.0  0.74952  0.43789  0.89691  1.0000
  H   H5423     1.0  0.98233  0.48572  0.72450  1.0000
  H   H5424     1.0  0.90034  0.41811  0.63732  1.0000
  C   C4549     1.0  0.49659  0.53507  0.88027  1.0000
  C   C4550     1.0  0.80019  0.51219  0.91401  1.0000
  C   C4551     1.0  0.74937  0.57726  0.96418  1.0000
  H   H5425     1.0  0.89185  0.43665  0.63997  1.0000
  H   H5426     1.0  0.92527  0.50187  0.88845  1.0000
  H   H5427     1.0  0.87323  0.45271  0.97252  1.0000
  C   C4552     1.0  0.98427  0.53053  0.79464  1.0000
  S   S1243     1.0  0.98754  0.48189  0.85327  1.0000
  C   C4553     1.0  0.73904  0.38647  0.93607  1.0000
  H   H5428     1.0  0.49752  0.53513  0.86851  1.0000
  H   H5429     1.0  0.88309  0.42383  0.66653  1.0000
  H   H5430     1.0  0.71186  0.39475  0.88635  1.0000
  C   C4554     1.0  0.88021  0.42499  0.81246  1.0000
  H   H5431     1.0  0.74602  0.39208  0.90562  1.0000
  C   C4555     1.0  0.98731  0.53818  0.77986  1.0000
  C   C4556     1.0  0.96735  0.50556  0.71701  1.0000
  H   H5432     1.0  0.91966  0.40239  0.65160  1.0000
  H   H5433     1.0  0.73685  0.49598  0.95228  1.0000
  C   C4557     1.0  0.69456  0.43545  0.88716  1.0000
  H   H5434     1.0  0.90724  0.40762  0.84255  1.0000
  C   C4558     1.0  0.98152  0.47771  0.75674  1.0000
  C   C4559     1.0  0.96806  0.51489  0.74161  1.0000
  H   H5435     1.0  0.98459  0.42924  0.63435  1.0000
  C   C4560     1.0  0.97620  0.49638  0.72680  1.0000
  H   H5436     1.0  0.58599  0.52779  0.92079  1.0000
  H   H5437     1.0  0.95219  0.55283  0.64578  1.0000
  H   H5438     1.0  0.70184  0.44210  0.87919  1.0000
  C   C4561     1.0  0.83821  0.53348  0.95772  1.0000
  H   H5439     1.0  0.67632  0.55350  0.95274  1.0000
  H   H5440     1.0  0.96596  0.49105  0.88235  1.0000
  C   C4562     1.0  0.87333  0.39870  0.85828  1.0000
  C   C4563     1.0  0.85692  0.42053  0.83010  1.0000
  H   H5441     1.0  0.93822  0.51806  0.89381  1.0000
  C   C4564     1.0  0.95323  0.47693  0.88027  1.0000
  H   H5442     1.0  0.97441  0.45124  0.64570  1.0000
  H   H5443     1.0  0.94390  0.57697  0.52274  1.0000
  C   C4565     1.0  0.74394  0.51553  0.96095  1.0000
  H   H5444     1.0  0.69926  0.43585  0.85665  1.0000
  N   N300      1.0  0.80137  0.52775  0.90746  1.0000
  Fe  Fe622     1.0  0.57634  0.56923  0.93744  1.0000
  C   C4566     1.0  0.76605  0.47535  0.97120  1.0000
  C   C4567     1.0  0.53509  0.55588  0.91943  1.0000
  H   H5445     1.0  0.71414  0.42156  0.84987  1.0000
  C   C4568     1.0  0.69303  0.53456  0.90694  1.0000
  C   C4569     1.0  0.95797  0.48412  0.88816  1.0000
  N   N301      1.0  0.66046  0.54722  0.94500  1.0000
  H   H5446     1.0  0.68379  0.40247  0.89745  1.0000
  H   H5447     1.0  0.78696  0.42678  0.94218  1.0000
  H   H5448     1.0  0.74586  0.56245  0.91734  1.0000
  C   C4570     1.0  0.77293  0.44570  0.91962  1.0000
  C   C4571     1.0  0.71545  0.40367  0.87697  1.0000
  H   H5449     1.0  0.86643  0.49640  0.96005  1.0000
  H   H5450     1.0  0.74969  0.42353  0.92196  1.0000
  H   H5451     1.0  0.64616  0.56464  0.93228  1.0000
  S   S1244     1.0  0.61134  0.57965  0.96218  1.0000
  C   C4572     1.0  0.92867  0.45909  0.93446  1.0000
  H   H5452     1.0  0.94800  0.49121  0.84397  1.0000
  H   H5453     1.0  0.74556  0.43968  0.95097  1.0000
  H   H5454     1.0  0.81933  0.52243  0.88907  1.0000
  C   C4573     1.0  0.85162  0.53367  0.96095  1.0000
  H   H5455     1.0  0.80815  0.54104  0.88585  1.0000
  H   H5456     1.0  0.50174  0.52374  0.88570  1.0000
  H   H5457     1.0  0.58298  0.49673  0.95360  1.0000
  H   H5458     1.0  0.94747  0.46327  0.94693  1.0000
  C   C4574     1.0  0.97895  0.39023  0.68541  1.0000
  C   C4575     1.0  0.94254  0.40027  0.77629  1.0000
  N   N302      1.0  0.87837  0.52477  0.91354  1.0000
  H   H5459     1.0  0.85214  0.42417  0.88999  1.0000
  H   H5460     1.0  0.80894  0.52821  0.92631  1.0000
  H   H5461     1.0  0.78992  0.54904  0.92513  1.0000
  C   C4576     1.0  0.80938  0.45850  0.97558  1.0000
  H   H5462     1.0  0.66860  0.52921  0.96196  1.0000
  C   C4577     1.0  0.95880  0.56344  0.65900  1.0000
  H   H5463     1.0  0.87857  0.52971  0.93395  1.0000
  H   H5464     1.0  0.88134  0.51051  0.93441  1.0000
  H   H5465     1.0  0.68274  0.41608  0.86559  1.0000
  H   H5466     1.0  0.81338  0.54247  0.91007  1.0000
  C   C4578     1.0  0.90337  0.51192  0.89963  1.0000
  H   H5467     1.0  0.99206  0.39720  0.71112  1.0000
  C   C4579     1.0  0.95959  0.38395  0.70753  1.0000
  H   H5468     1.0  0.84789  0.41470  0.83391  1.0000
  Fe  Fe623     1.0  0.92245  0.50594  0.96158  1.0000
  Fe  Fe624     1.0  0.80312  0.52811  0.95802  1.0000
  C   C4580     1.0  0.75653  0.43164  0.91756  1.0000
  S   S1245     1.0  0.99169  0.53583  0.72362  1.0000
  H   H5469     1.0  0.91125  0.43175  0.63119  1.0000
  H   H5470     1.0  0.97720  0.52268  0.79805  1.0000
  H   H5471     1.0  0.77951  0.44864  0.92534  1.0000
  H   H5472     1.0  0.81905  0.46129  0.94675  1.0000
  H   H5473     1.0  0.83492  0.42024  0.89077  1.0000
  H   H5474     1.0  0.85942  0.51644  0.91399  1.0000
  C   C4581     1.0  0.53585  0.52621  0.95233  1.0000
  H   H5475     1.0  0.57285  0.53604  0.95813  1.0000
  N   N303      1.0  0.98717  0.49131  0.74902  1.0000
  H   H5476     1.0  0.98340  0.54628  0.60512  1.0000
  H   H5477     1.0  0.87673  0.43209  0.78473  1.0000
  H   H5478     1.0  0.86646  0.39284  0.85597  1.0000
  C   C4582     1.0  0.95274  0.48218  0.90346  1.0000
  H   H5479     1.0  0.92514  0.44211  0.63935  1.0000
  C   C4583     1.0  0.96776  0.53775  0.54260  1.0000
  H   H5480     1.0  0.83275  0.52439  0.96335  1.0000
  C   C4584     1.0  0.95325  0.51214  0.84139  1.0000
  Fe  Fe625     1.0  0.89703  0.49143  0.96533  1.0000
  H   H5481     1.0  0.82357  0.52364  0.91134  1.0000
  C   C4585     1.0  0.87173  0.51471  0.90943  1.0000
  H   H5482     1.0  0.82344  0.47575  0.95193  1.0000
  H   H5483     1.0  0.72592  0.52998  0.92301  1.0000
  H   H5484     1.0  0.92373  0.53722  0.90789  1.0000
  C   C4586     1.0  0.70957  0.39744  0.91894  1.0000
  H   H5485     1.0  0.99217  0.50336  0.69096  1.0000
  H   H5486     1.0  0.96184  0.43677  0.75468  1.0000
  C   C4587     1.0  0.91804  0.53014  0.90558  1.0000
  H   H5487     1.0  0.71335  0.38886  0.91271  1.0000
  S   S1246     1.0  0.50717  0.55361  0.91881  1.0000
  C   C4588     1.0  0.67530  0.55335  0.91896  1.0000
  H   H5488     1.0  0.68820  0.55766  0.89659  1.0000
  C   C4589     1.0  0.86881  0.43844  0.83249  1.0000
  C   C4590     1.0  0.75355  0.51614  0.93510  1.0000
  H   H5489     1.0  0.80134  0.52549  0.88574  1.0000
  H   H5490     1.0  0.87641  0.50287  0.91402  1.0000
  H   H5491     1.0  0.76045  0.52409  0.93399  1.0000
  C   C4591     1.0  0.89472  0.52289  0.90774  1.0000
  C   C4592     1.0  0.78220  0.54774  0.91950  1.0000
  H   H5492     1.0  0.94223  0.44232  0.73987  1.0000
  H   H5493     1.0  0.87367  0.54840  0.91209  1.0000
  C   C4593     1.0  0.92620  0.51933  0.89766  1.0000
  C   C4594     1.0  0.77506  0.53670  0.90363  1.0000
  C   C4595     1.0  0.76069  0.54569  0.90610  1.0000
  C   C4596     1.0  0.75703  0.55557  0.91534  1.0000
  H   H5494     1.0  0.77726  0.52893  0.89670  1.0000
  H   H5495     1.0  0.75233  0.54483  0.90095  1.0000
  H   H5496     1.0  0.87971  0.41221  0.78989  1.0000
  N   N304      1.0  0.57846  0.52017  0.94441  1.0000
  H   H5497     1.0  0.96223  0.56808  0.62232  1.0000
  C   C4597     1.0  0.58800  0.50506  0.94445  1.0000
  H   H5498     1.0  0.92977  0.41675  0.64584  1.0000
  C   C4598     1.0  0.56315  0.52053  0.94346  1.0000
  C   C4599     1.0  0.55014  0.52573  0.95379  1.0000
  C   C4600     1.0  0.56087  0.51605  0.93161  1.0000
  S   S1247     1.0  0.58750  0.57020  0.91359  1.0000
  H   H5499     1.0  0.66957  0.41257  0.91883  1.0000
  C   C4601     1.0  0.96354  0.57008  0.63229  1.0000
  S   S1248     1.0  0.55299  0.56574  0.94823  1.0000
  C   C4602     1.0  0.54054  0.56310  0.93920  1.0000
  H   H5500     1.0  0.98152  0.47118  0.74894  1.0000
  H   H5501     1.0  0.88912  0.44135  0.81740  1.0000
  C   C4603     1.0  0.54651  0.51665  0.93024  1.0000
  H   H5502     1.0  0.59941  0.50433  0.94582  1.0000
  H   H5503     1.0  0.71703  0.43061  0.86207  1.0000
  N   N305      1.0  0.89195  0.42178  0.79930  1.0000
  C   C4604     1.0  0.95841  0.57889  0.48057  1.0000
  C   C4605     1.0  0.96209  0.53437  0.53212  1.0000
  H   H5504     1.0  0.57017  0.51236  0.92312  1.0000
  H   H5505     1.0  0.63682  0.55699  0.95034  1.0000
  H   H5506     1.0  0.91068  0.40415  0.79376  1.0000
  H   H5507     1.0  0.76056  0.50480  0.93783  1.0000
  C   C4606     1.0  0.98822  0.49843  0.76037  1.0000
  H   H5508     1.0  0.53892  0.55216  0.90916  1.0000
  C   C4607     1.0  0.92857  0.48458  0.93149  1.0000
  H   H5509     1.0  0.95245  0.52658  0.71156  1.0000
  H   H5510     1.0  0.94152  0.53611  0.57489  1.0000
  C   C4608     1.0  0.77288  0.45361  0.90507  1.0000
  H   H5511     1.0  0.95724  0.50884  0.85154  1.0000
  C   C4609     1.0  0.87519  0.52175  0.92986  1.0000
  H   H5512     1.0  0.86413  0.39913  0.90035  1.0000
  H   H5513     1.0  0.64241  0.54662  0.93612  1.0000
  H   H5514     1.0  0.57822  0.54209  0.93104  1.0000
  H   H5515     1.0  0.84165  0.40600  0.86563  1.0000
  Fe  Fe626     1.0  0.99436  0.55879  0.71164  1.0000
  H   H5516     1.0  0.94889  0.40924  0.66272  1.0000
  S   S1249     1.0  0.89363  0.47373  0.95638  1.0000
  N   N306      1.0  0.76514  0.42517  0.94137  1.0000
  S   S1250     1.0  0.96982  0.57885  0.55297  1.0000
  H   H5517     1.0  0.98310  0.45160  0.70411  1.0000
  H   H5518     1.0  0.52288  0.52265  0.93924  1.0000
  C   C4610     1.0  0.76773  0.55653  0.92208  1.0000
  C   C4611     1.0  0.75632  0.43984  0.90315  1.0000
  H   H5519     1.0  0.95663  0.48811  0.90905  1.0000
  H   H5520     1.0  0.87345  0.51652  0.89724  1.0000
  N   N307      1.0  0.73964  0.51851  0.94659  1.0000
  C   C4612     1.0  0.73104  0.50743  0.94783  1.0000
  C   C4613     1.0  0.99063  0.53277  0.80507  1.0000
  H   H5521     1.0  0.92540  0.45751  0.94674  1.0000
  C   C4614     1.0  0.73067  0.53367  0.94240  1.0000
  C   C4615     1.0  0.72813  0.54481  0.95040  1.0000
  C   C4616     1.0  0.72421  0.53774  0.92986  1.0000
  C   C4617     1.0  0.71931  0.55892  0.94633  1.0000
  C   C4618     1.0  0.71532  0.55185  0.92595  1.0000
  C   C4619     1.0  0.71280  0.56240  0.93423  1.0000
  C   C4620     1.0  0.67617  0.41918  0.90974  1.0000
  Fe  Fe627     1.0  0.99274  0.54233  0.74384  1.0000
  H   H5522     1.0  0.57408  0.51697  0.96812  1.0000
  H   H5523     1.0  0.90942  0.43098  0.78264  1.0000
  C   C4621     1.0  0.67708  0.43295  0.91086  1.0000
  H   H5524     1.0  0.90856  0.43213  0.80087  1.0000
  Fe  Fe628     1.0  0.89039  0.52409  0.96479  1.0000
  H   H5525     1.0  0.96665  0.50184  0.70767  1.0000
  H   H5526     1.0  0.84842  0.38746  0.87568  1.0000
  C   C4622     1.0  0.99010  0.40906  0.70990  1.0000
  H   H5527     1.0  0.77142  0.40214  0.95204  1.0000
  H   H5528     1.0  0.95754  0.47825  0.86844  1.0000
  H   H5529     1.0  0.89535  0.39816  0.80753  1.0000
  N   N308      1.0  0.82528  0.45493  0.96772  1.0000
  H   H5530     1.0  0.91836  0.48835  0.92687  1.0000
  C   C4623     1.0  0.91967  0.45777  0.65271  1.0000
  N   N309      1.0  0.90603  0.42363  0.65491  1.0000
  C   C4624     1.0  0.92042  0.41259  0.65430  1.0000
  C   C4625     1.0  0.89435  0.41629  0.66568  1.0000
  C   C4626     1.0  0.90219  0.42775  0.64022  1.0000
  C   C4627     1.0  0.90750  0.43689  0.65874  1.0000
  C   C4628     1.0  0.91792  0.44532  0.64928  1.0000
  C   C4629     1.0  0.89899  0.44171  0.67188  1.0000
  C   C4630     1.0  0.58509  0.53062  0.93143  1.0000
  C   C4631     1.0  0.90092  0.45416  0.67522  1.0000
  C   C4632     1.0  0.91125  0.46214  0.66568  1.0000
  H   H5531     1.0  0.92366  0.40916  0.66518  1.0000
  C   C4633     1.0  0.86128  0.45659  0.97621  1.0000
  H   H5532     1.0  0.66601  0.56845  0.94123  1.0000
  H   H5533     1.0  0.89699  0.41212  0.67685  1.0000
  H   H5534     1.0  0.98840  0.47031  0.76468  1.0000
  H   H5535     1.0  0.96767  0.54828  0.56694  1.0000
  H   H5536     1.0  0.52150  0.56841  0.95660  1.0000
  H   H5537     1.0  0.95648  0.42160  0.69525  1.0000
  H   H5538     1.0  0.95373  0.52782  0.53559  1.0000
  H   H5539     1.0  0.76480  0.56414  0.92938  1.0000
  H   H5540     1.0  0.89093  0.43595  0.67985  1.0000
  H   H5541     1.0  0.68754  0.45142  0.90092  1.0000
  H   H5542     1.0  0.89455  0.45753  0.68540  1.0000
  H   H5543     1.0  0.91310  0.47151  0.66851  1.0000
  N   N310      1.0  0.85428  0.40494  0.88137  1.0000
  C   C4634     1.0  0.84646  0.41998  0.88393  1.0000
  C   C4635     1.0  0.82911  0.43896  0.96745  1.0000
  H   H5544     1.0  0.98639  0.53408  0.65112  1.0000
  C   C4636     1.0  0.86877  0.40545  0.87064  1.0000
  C   C4637     1.0  0.87906  0.41245  0.87264  1.0000
  H   H5545     1.0  0.96569  0.53156  0.58007  1.0000
  C   C4638     1.0  0.89274  0.41316  0.86263  1.0000
  H   H5546     1.0  0.74944  0.42153  0.96237  1.0000
  C   C4639     1.0  0.96092  0.40983  0.69576  1.0000
  C   C4640     1.0  0.68632  0.44102  0.89964  1.0000
  H   H5547     1.0  0.85639  0.52469  0.96899  1.0000
  C   C4641     1.0  0.69344  0.40825  0.86743  1.0000
  H   H5548     1.0  0.99119  0.55012  0.67030  1.0000
  H   H5549     1.0  0.98116  0.43104  0.74586  1.0000
  C   C4642     1.0  0.98406  0.48104  0.83661  1.0000
  H   H5550     1.0  0.76434  0.45714  0.88574  1.0000
  C   C4643     1.0  0.85707  0.39511  0.89561  1.0000
  H   H5551     1.0  0.93528  0.56247  0.51039  1.0000
  H   H5552     1.0  0.87656  0.41761  0.88190  1.0000
  H   H5553     1.0  0.76510  0.55612  0.96518  1.0000
  H   H5554     1.0  0.90026  0.41882  0.86430  1.0000
  H   H5555     1.0  0.93922  0.53553  0.55731  1.0000
  C   C4644     1.0  0.95091  0.43700  0.73139  1.0000
  N   N311      1.0  0.93962  0.52400  0.79983  1.0000
  C   C4645     1.0  0.92421  0.52201  0.80219  1.0000
  C   C4646     1.0  0.94002  0.53942  0.79146  1.0000
  C   C4647     1.0  0.95000  0.51394  0.79046  1.0000
  C   C4648     1.0  0.94398  0.52031  0.81420  1.0000
  C   C4649     1.0  0.94357  0.50615  0.82372  1.0000
  C   C4650     1.0  0.94911  0.53028  0.81899  1.0000
  H   H5556     1.0  0.91615  0.52863  0.81000  1.0000
  H   H5557     1.0  0.92028  0.52530  0.79168  1.0000
  H   H5558     1.0  0.92332  0.51029  0.80684  1.0000
  H   H5559     1.0  0.95153  0.54142  0.78857  1.0000
  H   H5560     1.0  0.93233  0.54762  0.79782  1.0000
  H   H5561     1.0  0.93664  0.54181  0.78075  1.0000
  H   H5562     1.0  0.94973  0.50220  0.79566  1.0000
  H   H5563     1.0  0.94730  0.51633  0.77944  1.0000
  H   H5564     1.0  0.96176  0.51482  0.78865  1.0000
  H   H5565     1.0  0.94008  0.49785  0.82073  1.0000
  H   H5566     1.0  0.95010  0.54118  0.81245  1.0000
  C   C4651     1.0  0.69364  0.42157  0.88549  1.0000
  H   H5567     1.0  0.95714  0.47472  0.93191  1.0000
  H   H5568     1.0  0.88949  0.57721  0.50662  1.0000
  C   C4652     1.0  0.93789  0.46579  0.90294  1.0000
  S   S1251     1.0  0.94263  0.39266  0.76178  1.0000
  H   H5569     1.0  0.77163  0.44015  0.95008  1.0000
  C   C4653     1.0  0.97985  0.41592  0.72082  1.0000
  C   C4654     1.0  0.83562  0.45837  0.97454  1.0000
  H   H5570     1.0  0.77943  0.46196  0.90001  1.0000
  H   H5571     1.0  0.89467  0.44431  0.79083  1.0000
  H   H5572     1.0  0.97809  0.41341  0.67609  1.0000
  H   H5573     1.0  0.65401  0.52637  0.95527  1.0000
  C   C4655     1.0  0.90257  0.53190  0.91060  1.0000
  H   H5574     1.0  0.83293  0.39956  0.88446  1.0000
  C   C4656     1.0  0.95428  0.41848  0.65879  1.0000
  Fe  Fe629     1.0  0.99103  0.52485  0.86901  1.0000
  H   H5575     1.0  0.50340  0.56385  0.94537  1.0000
  C   C4657     1.0  0.84394  0.39926  0.87649  1.0000
  H   H5576     1.0  0.84806  0.43385  0.84644  1.0000
  H   H5577     1.0  0.73398  0.51721  0.97013  1.0000
  H   H5578     1.0  0.92492  0.48334  0.94370  1.0000
  H   H5579     1.0  0.95271  0.53473  0.73352  1.0000
  C   C4658     1.0  0.75375  0.56183  0.96902  1.0000
  H   H5580     1.0  0.79322  0.50850  0.90888  1.0000
  C   C4659     1.0  0.95767  0.56132  0.64572  1.0000
  H   H5581     1.0  0.95007  0.42523  0.73412  1.0000
  C   C4660     1.0  0.85704  0.43121  0.83720  1.0000
  H   H5582     1.0  0.85606  0.44729  0.96134  1.0000
  H   H5583     1.0  0.71747  0.56720  0.95269  1.0000
  H   H5584     1.0  0.69519  0.51229  0.91972  1.0000
  C   C4661     1.0  0.67174  0.54264  0.93212  1.0000
  C   C4662     1.0  0.90149  0.43282  0.79320  1.0000
  C   C4663     1.0  0.67929  0.52767  0.93209  1.0000
  H   H5585     1.0  0.79525  0.51046  0.92609  1.0000
  H   H5586     1.0  0.93013  0.45859  0.90791  1.0000
  C   C4664     1.0  0.94311  0.46790  0.88761  1.0000
  C   C4665     1.0  0.95088  0.46585  0.93462  1.0000
  C   C4666     1.0  0.66519  0.55814  0.94986  1.0000
  C   C4667     1.0  0.88032  0.43537  0.82037  1.0000
  C   C4668     1.0  0.77023  0.40924  0.94097  1.0000
  H   H5587     1.0  0.74203  0.39660  0.92916  1.0000
  C   C4669     1.0  0.91888  0.51024  0.89468  1.0000
  H   H5588     1.0  0.95776  0.53388  0.83568  1.0000
  C   C4670     1.0  0.68973  0.52379  0.91963  1.0000
  H   H5589     1.0  0.89360  0.40631  0.66250  1.0000
  H   H5590     1.0  0.67719  0.51864  0.94142  1.0000
  H   H5591     1.0  0.95410  0.55671  0.66940  1.0000
  H   H5592     1.0  0.69947  0.40463  0.85693  1.0000
  H   H5593     1.0  0.93912  0.42263  0.76346  1.0000
  H   H5594     1.0  0.80514  0.47061  0.97484  1.0000
  H   H5595     1.0  0.94469  0.40374  0.71490  1.0000
  H   H5596     1.0  0.52607  0.53065  0.96006  1.0000
  H   H5597     1.0  0.76605  0.39066  0.91735  1.0000
  H   H5598     1.0  0.77528  0.42144  0.95988  1.0000
  C   C4671     1.0  0.97318  0.40526  0.68496  1.0000
  Fe  Fe630     1.0  0.94732  0.58336  0.56816  1.0000
  C   C4672     1.0  0.96560  0.45448  0.72879  1.0000
  C   C4673     1.0  0.94222  0.39764  0.80214  1.0000
  H   H5599     1.0  0.78130  0.40712  0.93321  1.0000
  C   C4674     1.0  0.96595  0.57424  0.65890  1.0000
  C   C4675     1.0  0.98898  0.49044  0.82323  1.0000
  C   C4676     1.0  0.95923  0.51948  0.71924  1.0000
  H   H5600     1.0  0.97725  0.50119  0.76800  1.0000
  Fe  Fe631     1.0  0.98267  0.48467  0.67567  1.0000
  H   H5601     1.0  0.96985  0.48048  0.76322  1.0000
  H   H5602     1.0  0.98323  0.55020  0.54394  1.0000
  H   H5603     1.0  0.96132  0.46111  0.71878  1.0000
  C   C4677     1.0  0.97701  0.43145  0.71950  1.0000
  C   C4678     1.0  0.96984  0.53611  0.56810  1.0000
  H   H5604     1.0  0.99252  0.50872  0.75521  1.0000
  H   H5605     1.0  0.96090  0.51157  0.57436  1.0000
  S   S1252     1.0  0.99266  0.56595  0.73233  1.0000
  H   H5606     1.0  0.72234  0.39825  0.86774  1.0000
  C   C4679     1.0  0.98281  0.55236  0.52171  1.0000
  H   H5607     1.0  0.90269  0.39095  0.70605  1.0000
  Fe  Fe632     1.0  0.60273  0.57626  0.94422  1.0000
  C   C4680     1.0  0.85131  0.45339  0.97000  1.0000
  H   H5608     1.0  0.99042  0.53087  0.67597  1.0000
  C   C4681     1.0  0.97712  0.54871  0.51175  1.0000
  C   C4682     1.0  0.96684  0.53968  0.51694  1.0000
  H   H5609     1.0  0.95765  0.51218  0.55694  1.0000
  H   H5610     1.0  0.96219  0.53720  0.50910  1.0000
  C   C4683     1.0  0.94788  0.57761  0.51098  1.0000
  H   H5611     1.0  0.97632  0.51063  0.55861  1.0000
  H   H5612     1.0  0.81534  0.38525  0.92212  1.0000
  H   H5613     1.0  0.97683  0.45637  0.72777  1.0000
  C   C4684     1.0  0.95419  0.39940  0.70695  1.0000
  H   H5614     1.0  0.86289  0.38367  0.89420  1.0000
  C   C4685     1.0  0.98471  0.43970  0.70637  1.0000
  C   C4686     1.0  0.97089  0.58121  0.63174  1.0000
  H   H5615     1.0  0.99009  0.49655  0.79974  1.0000
  H   H5616     1.0  0.90760  0.56372  0.48983  1.0000
  H   H5617     1.0  0.98838  0.52666  0.81639  1.0000
  S   S1253     1.0  0.90866  0.52176  0.97627  1.0000
  S   S1254     1.0  0.98165  0.57373  0.69455  1.0000
  C   C4687     1.0  0.90340  0.57225  0.48057  1.0000
  H   H5618     1.0  0.94019  0.38548  0.73534  1.0000
  H   H5619     1.0  0.70584  0.57332  0.93124  1.0000
  C   C4688     1.0  0.99379  0.58045  0.67826  1.0000
  S   S1255     1.0  0.94200  0.55962  0.48019  1.0000
  H   H5620     1.0  0.99049  0.55976  0.51761  1.0000
  C   C4689     1.0  0.97198  0.58300  0.64551  1.0000
  Fe  Fe633     1.0  0.77247  0.52517  0.97738  1.0000
  H   H5621     1.0  0.75732  0.58343  0.95655  1.0000
  H   H5622     1.0  0.51505  0.71718  0.14400  1.0000
  C   C4690     1.0  0.61928  0.66665  0.10577  1.0000
  H   H5623     1.0  0.66186  0.59962  0.07836  1.0000
  C   C4691     1.0  0.95361  0.65186  0.42393  1.0000
  H   H5624     1.0  0.60106  0.76776  0.39421  1.0000
  C   C4692     1.0  0.97576  0.72871  0.41931  1.0000
  S   S1256     1.0  0.64367  0.75615  0.01410  1.0000
  C   C4693     1.0  0.60259  0.65227  0.12493  1.0000
  H   H5625     1.0  0.56619  0.75107  0.17537  1.0000
  C   C4694     1.0  0.78069  0.78040  0.44828  1.0000
  C   C4695     1.0  0.59728  0.65484  0.15085  1.0000
  Fe  Fe634     1.0  0.51168  0.74471  0.24839  1.0000
  C   C4696     1.0  0.97926  0.64286  0.42671  1.0000
  S   S1257     1.0  0.53544  0.74634  0.23842  1.0000
  C   C4697     1.0  0.73812  0.61410  0.07886  1.0000
  C   C4698     1.0  0.92545  0.75857  0.42487  1.0000
  C   C4699     1.0  0.61150  0.63542  0.18315  1.0000
  H   H5626     1.0  0.57778  0.62697  0.20088  1.0000
  H   H5627     1.0  0.50026  0.78102  0.17577  1.0000
  H   H5628     1.0  0.66105  0.76115  0.13736  1.0000
  Fe  Fe635     1.0  0.91262  0.69748  0.46829  1.0000
  C   C4700     1.0  0.60018  0.64724  0.11348  1.0000
  S   S1258     1.0  0.51718  0.75030  0.33768  1.0000
  N   N312      1.0  0.90760  0.75785  0.47595  1.0000
  H   H5629     1.0  0.52890  0.63439  0.24072  1.0000
  H   H5630     1.0  0.53741  0.61734  0.13863  1.0000
  S   S1259     1.0  0.93084  0.67873  0.46156  1.0000
  H   H5631     1.0  0.96083  0.59991  0.38597  1.0000
  C   C4701     1.0  0.74812  0.59715  0.06236  1.0000
  H   H5632     1.0  0.69279  0.67759  0.01176  1.0000
  H   H5633     1.0  0.64310  0.67755  0.13951  1.0000
  S   S1260     1.0  0.52639  0.76323  0.36728  1.0000
  C   C4702     1.0  0.62681  0.61177  0.11726  1.0000
  H   H5634     1.0  0.64165  0.65773  0.00174  1.0000
  H   H5635     1.0  0.60758  0.74239  0.38103  1.0000
  C   C4703     1.0  0.52255  0.60694  0.19282  1.0000
  H   H5636     1.0  0.69777  0.72876  0.98951  1.0000
  C   C4704     1.0  0.51893  0.63295  0.12918  1.0000
  C   C4705     1.0  0.97236  0.60545  0.40755  1.0000
  H   H5637     1.0  0.95682  0.62572  0.40101  1.0000
  H   H5638     1.0  0.57122  0.72559  0.20137  1.0000
  H   H5639     1.0  0.62723  0.67364  0.10277  1.0000
  Fe  Fe636     1.0  0.65895  0.65153  0.06063  1.0000
  S   S1261     1.0  0.67917  0.65913  0.04587  1.0000
  S   S1262     1.0  0.63934  0.64931  0.05376  1.0000
  Fe  Fe637     1.0  0.66952  0.64709  0.08850  1.0000
  S   S1263     1.0  0.69097  0.65452  0.07644  1.0000
  S   S1264     1.0  0.66111  0.63848  0.11279  1.0000
  Fe  Fe638     1.0  0.67650  0.67232  0.06254  1.0000
  S   S1265     1.0  0.67646  0.69651  0.05349  1.0000
  Fe  Fe639     1.0  0.69212  0.64081  0.06057  1.0000
  S   S1266     1.0  0.65503  0.66621  0.07615  1.0000
  H   H5640     1.0  0.97150  0.59338  0.34110  1.0000
  Fe  Fe640     1.0  0.58819  0.69960  0.17120  1.0000
  S   S1267     1.0  0.58774  0.68332  0.19296  1.0000
  S   S1268     1.0  0.56855  0.70826  0.16048  1.0000
  Fe  Fe641     1.0  0.62041  0.70070  0.16755  1.0000
  S   S1269     1.0  0.62248  0.68491  0.18913  1.0000
  S   S1270     1.0  0.64142  0.70616  0.15226  1.0000
  Fe  Fe642     1.0  0.61050  0.67204  0.18214  1.0000
  S   S1271     1.0  0.62189  0.64879  0.17985  1.0000
  Fe  Fe643     1.0  0.59966  0.69788  0.19766  1.0000
  S   S1272     1.0  0.59116  0.70440  0.21959  1.0000
  S   S1273     1.0  0.60981  0.68713  0.15999  1.0000
  S   S1274     1.0  0.59859  0.71497  0.17653  1.0000
  C   C4706     1.0  0.50879  0.76859  0.15876  1.0000
  Fe  Fe644     1.0  0.68808  0.78225  0.09117  1.0000
  Fe  Fe645     1.0  0.51643  0.65934  0.16988  1.0000
  H   H5641     1.0  0.55638  0.59060  0.20131  1.0000
  S   S1275     1.0  0.68065  0.76291  0.10766  1.0000
  S   S1276     1.0  0.89474  0.69010  0.46335  1.0000
  C   C4707     1.0  0.57920  0.64851  0.14225  1.0000
  H   H5642     1.0  0.65470  0.59642  0.05818  1.0000
  Fe  Fe646     1.0  0.68643  0.75186  0.08863  1.0000
  S   S1277     1.0  0.69747  0.72771  0.09092  1.0000
  S   S1278     1.0  0.95344  0.58509  0.44152  1.0000
  S   S1279     1.0  0.66384  0.76027  0.08316  1.0000
  C   C4708     1.0  0.96173  0.70935  0.42781  1.0000
  H   H5643     1.0  0.96677  0.69792  0.35680  1.0000
  N   N313      1.0  0.51130  0.62205  0.12803  1.0000
  C   C4709     1.0  0.89289  0.59608  0.45805  1.0000
  H   H5644     1.0  0.63970  0.69842  0.98555  1.0000
  H   H5645     1.0  0.71809  0.63038  0.07502  1.0000
  C   C4710     1.0  0.61052  0.61160  0.18004  1.0000
  H   H5646     1.0  0.52043  0.62503  0.10461  1.0000
  H   H5647     1.0  0.73265  0.77750  0.23911  1.0000
  S   S1280     1.0  0.54704  0.58758  0.15980  1.0000
  S   S1281     1.0  0.91735  0.71304  0.44636  1.0000
  C   C4711     1.0  0.96904  0.59544  0.36379  1.0000
  S   S1282     1.0  0.59678  0.75424  0.26698  1.0000
  H   H5648     1.0  0.94775  0.64925  0.45352  1.0000
  Fe  Fe647     1.0  0.61101  0.76299  0.27597  1.0000
  S   S1283     1.0  0.62148  0.74751  0.29436  1.0000
  Fe  Fe648     1.0  0.60766  0.76566  0.24466  1.0000
  S   S1284     1.0  0.61553  0.75753  0.22343  1.0000
  H   H5649     1.0  0.50404  0.74336  0.38810  1.0000
  C   C4712     1.0  0.66782  0.78189  0.02014  1.0000
  H   H5650     1.0  0.51339  0.77749  0.15074  1.0000
  C   C4713     1.0  0.61832  0.62271  0.17743  1.0000
  C   C4714     1.0  0.60222  0.63102  0.14534  1.0000
  H   H5651     1.0  0.66570  0.68560  0.13527  1.0000
  C   C4715     1.0  0.98414  0.65638  0.42102  1.0000
  C   C4716     1.0  0.76695  0.77978  0.40929  1.0000
  C   C4717     1.0  0.54218  0.75499  0.19655  1.0000
  H   H5652     1.0  0.94507  0.59917  0.34166  1.0000
  H   H5653     1.0  0.59370  0.63896  0.11591  1.0000
  C   C4718     1.0  0.64272  0.77131  0.39661  1.0000
  H   H5654     1.0  0.65265  0.71960  0.17118  1.0000
  Fe  Fe649     1.0  0.60197  0.59058  0.14059  1.0000
  H   H5655     1.0  0.95427  0.66370  0.42060  1.0000
  S   S1285     1.0  0.49487  0.69916  0.25488  1.0000
  S   S1286     1.0  0.65346  0.76746  0.33251  1.0000
  C   C4719     1.0  0.54657  0.61515  0.21374  1.0000
  S   S1287     1.0  0.56333  0.77666  0.35043  1.0000
  H   H5656     1.0  0.52572  0.72946  0.14464  1.0000
  H   H5657     1.0  0.64863  0.61672  0.13724  1.0000
  C   C4720     1.0  0.97258  0.71615  0.41727  1.0000
  C   C4721     1.0  0.64171  0.62965  0.10275  1.0000
  H   H5658     1.0  0.51349  0.59848  0.13105  1.0000
  S   S1288     1.0  0.66230  0.60477  0.01126  1.0000
  C   C4722     1.0  0.56256  0.76781  0.31335  1.0000
  H   H5659     1.0  0.50871  0.73658  0.13767  1.0000
  C   C4723     1.0  0.51944  0.60643  0.13207  1.0000
  H   H5660     1.0  0.68719  0.61206  0.05341  1.0000
  H   H5661     1.0  0.73388  0.61091  0.01515  1.0000
  Fe  Fe650     1.0  0.90073  0.70431  0.44080  1.0000
  H   H5662     1.0  0.87756  0.74426  0.47090  1.0000
  S   S1289     1.0  0.88348  0.72159  0.42987  1.0000
  Fe  Fe651     1.0  0.91334  0.67240  0.45482  1.0000
  H   H5663     1.0  0.64316  0.75436  0.04411  1.0000
  H   H5664     1.0  0.57363  0.64476  0.15397  1.0000
  C   C4724     1.0  0.54564  0.61489  0.18297  1.0000
  C   C4725     1.0  0.70514  0.58466  0.05984  1.0000
  S   S1290     1.0  0.91768  0.68572  0.43154  1.0000
  N   N314      1.0  0.59548  0.64688  0.14056  1.0000
  H   H5665     1.0  0.96450  0.68385  0.39743  1.0000
  H   H5666     1.0  0.78492  0.76512  0.41888  1.0000
  S   S1291     1.0  0.50322  0.64638  0.16458  1.0000
  H   H5667     1.0  0.67782  0.77196  0.16874  1.0000
  H   H5668     1.0  0.50276  0.65242  0.12079  1.0000
  S   S1292     1.0  0.92307  0.60651  0.42007  1.0000
  C   C4726     1.0  0.58906  0.62582  0.19427  1.0000
  H   H5669     1.0  0.64306  0.72312  0.19683  1.0000
  H   H5670     1.0  0.92163  0.61721  0.46699  1.0000
  C   C4727     1.0  0.64851  0.73122  0.18841  1.0000
  C   C4728     1.0  0.50141  0.77059  0.17292  1.0000
  C   C4729     1.0  0.68265  0.65146  0.12767  1.0000
  C   C4730     1.0  0.51927  0.72037  0.20556  1.0000
  C   C4731     1.0  0.91610  0.63721  0.45096  1.0000
  C   C4732     1.0  0.92015  0.62188  0.45581  1.0000
  C   C4733     1.0  0.92223  0.61255  0.44630  1.0000
  C   C4734     1.0  0.92043  0.61847  0.43181  1.0000
  C   C4735     1.0  0.91634  0.63387  0.42688  1.0000
  C   C4736     1.0  0.91419  0.64327  0.43647  1.0000
  H   H5671     1.0  0.61975  0.77705  0.29852  1.0000
  H   H5672     1.0  0.92470  0.60072  0.45037  1.0000
  H   H5673     1.0  0.91482  0.63851  0.41570  1.0000
  C   C4737     1.0  0.87403  0.74546  0.46090  1.0000
  C   C4738     1.0  0.97962  0.62813  0.39284  1.0000
  H   H5674     1.0  0.97549  0.68070  0.37975  1.0000
  C   C4739     1.0  0.64982  0.74375  0.19198  1.0000
  H   H5675     1.0  0.52931  0.76700  0.28095  1.0000
  H   H5676     1.0  0.96117  0.68114  0.47738  1.0000
  H   H5677     1.0  0.61958  0.77315  0.17500  1.0000
  C   C4740     1.0  0.65654  0.76894  0.04418  1.0000
  H   H5678     1.0  0.62326  0.77784  0.19687  1.0000
  C   C4741     1.0  0.69440  0.65558  0.11620  1.0000
  H   H5679     1.0  0.55167  0.74560  0.17097  1.0000
  C   C4742     1.0  0.95791  0.59909  0.37627  1.0000
  H   H5680     1.0  0.71974  0.78053  0.21795  1.0000
  C   C4743     1.0  0.94867  0.59882  0.35146  1.0000
  S   S1293     1.0  0.91346  0.64824  0.46352  1.0000
  C   C4744     1.0  0.74894  0.60204  0.07438  1.0000
  C   C4745     1.0  0.92900  0.77235  0.41842  1.0000
  H   H5681     1.0  0.61547  0.66606  0.12853  1.0000
  H   H5682     1.0  0.93664  0.70686  0.47446  1.0000
  H   H5683     1.0  0.56256  0.77481  0.32076  1.0000
  C   C4746     1.0  0.61721  0.74429  0.38404  1.0000
  C   C4747     1.0  0.60252  0.70453  0.10974  1.0000
  C   C4748     1.0  0.96802  0.73443  0.43184  1.0000
  C   C4749     1.0  0.98944  0.62480  0.32280  1.0000
  H   H5684     1.0  0.61427  0.62934  0.14513  1.0000
  C   C4750     1.0  0.65394  0.72924  0.17399  1.0000
  H   H5685     1.0  0.63019  0.70381  0.00257  1.0000
  H   H5686     1.0  0.73875  0.61790  0.08815  1.0000
  C   C4751     1.0  0.59772  0.70895  0.12316  1.0000
  C   C4752     1.0  0.67360  0.67690  0.13031  1.0000
  S   S1294     1.0  0.67206  0.63192  0.07382  1.0000
  H   H5687     1.0  0.63335  0.72022  0.07481  1.0000
  C   C4753     1.0  0.55591  0.70035  0.24809  1.0000
  C   C4754     1.0  0.54242  0.70298  0.19935  1.0000
  C   C4755     1.0  0.52702  0.73164  0.20228  1.0000
  H   H5688     1.0  0.63614  0.78055  0.21253  1.0000
  H   H5689     1.0  0.59131  0.65094  0.16238  1.0000
  H   H5690     1.0  0.50570  0.71568  0.18341  1.0000
  C   C4756     1.0  0.87542  0.73549  0.44004  1.0000
  C   C4757     1.0  0.86494  0.74808  0.43505  1.0000
  H   H5691     1.0  0.75897  0.77296  0.41549  1.0000
  H   H5692     1.0  0.86147  0.74911  0.42501  1.0000
  C   C4758     1.0  0.66163  0.77465  0.01328  1.0000
  H   H5693     1.0  0.97949  0.62248  0.33089  1.0000
  H   H5694     1.0  0.92082  0.73592  0.47425  1.0000
  H   H5695     1.0  0.53164  0.69841  0.26881  1.0000
  Fe  Fe652     1.0  0.65087  0.75261  0.99073  1.0000
  H   H5696     1.0  0.52085  0.69740  0.20674  1.0000
  Fe  Fe653     1.0  0.93382  0.69338  0.43902  1.0000
  H   H5697     1.0  0.50722  0.72271  0.20938  1.0000
  Fe  Fe654     1.0  0.67337  0.77938  0.06817  1.0000
  C   C4759     1.0  0.62988  0.75391  0.30473  1.0000
  C   C4760     1.0  0.62722  0.76893  0.30493  1.0000
  H   H5698     1.0  0.91091  0.65514  0.43271  1.0000
  C   C4761     1.0  0.64395  0.76276  0.32184  1.0000
  C   C4762     1.0  0.64641  0.74783  0.32165  1.0000
  C   C4763     1.0  0.63933  0.74343  0.31326  1.0000
  C   C4764     1.0  0.67856  0.60800  0.05101  1.0000
  Fe  Fe655     1.0  0.53815  0.78168  0.35535  1.0000
  H   H5699     1.0  0.65392  0.73959  0.32795  1.0000
  H   H5700     1.0  0.64140  0.73183  0.31319  1.0000
  C   C4765     1.0  0.95944  0.64958  0.44728  1.0000
  H   H5701     1.0  0.63240  0.66574  0.02546  1.0000
  H   H5702     1.0  0.95666  0.64757  0.41367  1.0000
  H   H5703     1.0  0.92297  0.69697  0.38954  1.0000
  H   H5704     1.0  0.56889  0.74435  0.20199  1.0000
  H   H5705     1.0  0.51516  0.60113  0.20245  1.0000
  C   C4766     1.0  0.72571  0.61634  0.05935  1.0000
  C   C4767     1.0  0.68013  0.66821  0.00304  1.0000
  H   H5706     1.0  0.98642  0.61525  0.35454  1.0000
  C   C4768     1.0  0.72642  0.62115  0.07146  1.0000
  H   H5707     1.0  0.94818  0.62835  0.44504  1.0000
  S   S1295     1.0  0.49620  0.77649  0.40010  1.0000
  H   H5708     1.0  0.62686  0.68496  0.02575  1.0000
  H   H5709     1.0  0.64486  0.69514  0.08522  1.0000
  C   C4769     1.0  0.65936  0.75671  0.37954  1.0000
  H   H5710     1.0  0.49722  0.62061  0.14983  1.0000
  H   H5711     1.0  0.55713  0.73321  0.21556  1.0000
  H   H5712     1.0  0.53405  0.75961  0.18924  1.0000
  C   C4770     1.0  0.95815  0.70466  0.36419  1.0000
  H   H5713     1.0  0.98182  0.61058  0.37418  1.0000
  H   H5714     1.0  0.61735  0.75909  0.14361  1.0000
  H   H5715     1.0  0.62723  0.72179  0.12272  1.0000
  C   C4771     1.0  0.60682  0.71518  0.12754  1.0000
  H   H5716     1.0  0.54907  0.76330  0.19424  1.0000
  C   C4772     1.0  0.88266  0.62198  0.44869  1.0000
  H   H5717     1.0  0.62641  0.67041  0.99455  1.0000
  C   C4773     1.0  0.78160  0.77537  0.41118  1.0000
  H   H5718     1.0  0.62567  0.77250  0.35541  1.0000
  C   C4774     1.0  0.59727  0.71968  0.22045  1.0000
  C   C4775     1.0  0.60640  0.72685  0.20811  1.0000
  C   C4776     1.0  0.61144  0.73882  0.20903  1.0000
  C   C4777     1.0  0.60771  0.74346  0.22236  1.0000
  C   C4778     1.0  0.59824  0.73655  0.23459  1.0000
  C   C4779     1.0  0.59298  0.72471  0.23361  1.0000
  H   H5719     1.0  0.60977  0.72308  0.19791  1.0000
  H   H5720     1.0  0.61836  0.74442  0.19943  1.0000
  H   H5721     1.0  0.59509  0.74018  0.24485  1.0000
  H   H5722     1.0  0.58579  0.71932  0.24315  1.0000
  C   C4780     1.0  0.64027  0.72486  0.14384  1.0000
  C   C4781     1.0  0.62775  0.73577  0.14799  1.0000
  C   C4782     1.0  0.62695  0.75060  0.14037  1.0000
  C   C4783     1.0  0.63851  0.75437  0.12845  1.0000
  C   C4784     1.0  0.65093  0.74337  0.12436  1.0000
  C   C4785     1.0  0.65197  0.72874  0.13224  1.0000
  H   H5723     1.0  0.61876  0.73284  0.15707  1.0000
  C   C4786     1.0  0.61625  0.66188  0.09480  1.0000
  H   H5724     1.0  0.65976  0.74603  0.11504  1.0000
  H   H5725     1.0  0.66174  0.72036  0.12908  1.0000
  C   C4787     1.0  0.68352  0.70501  0.06306  1.0000
  C   C4788     1.0  0.67985  0.72046  0.06077  1.0000
  C   C4789     1.0  0.68429  0.72752  0.06912  1.0000
  C   C4790     1.0  0.69262  0.71918  0.07966  1.0000
  C   C4791     1.0  0.69678  0.70378  0.08155  1.0000
  C   C4792     1.0  0.69209  0.69664  0.07340  1.0000
  H   H5726     1.0  0.67341  0.72703  0.05263  1.0000
  H   H5727     1.0  0.68157  0.73943  0.06710  1.0000
  H   H5728     1.0  0.70360  0.69742  0.08937  1.0000
  H   H5729     1.0  0.69512  0.68472  0.07509  1.0000
  H   H5730     1.0  0.60494  0.64799  0.09014  1.0000
  H   H5731     1.0  0.54842  0.69190  0.19805  1.0000
  H   H5732     1.0  0.89126  0.76705  0.46228  1.0000
  H   H5733     1.0  0.66668  0.76687  0.39265  1.0000
  C   C4793     1.0  0.56061  0.76356  0.25359  1.0000
  H   H5734     1.0  0.62173  0.66518  0.08331  1.0000
  H   H5735     1.0  0.67079  0.69578  0.02152  1.0000
  H   H5736     1.0  0.62103  0.69609  0.99386  1.0000
  C   C4794     1.0  0.55029  0.71411  0.19619  1.0000
  C   C4795     1.0  0.96393  0.59553  0.35128  1.0000
  S   S1296     1.0  0.76339  0.59315  0.08387  1.0000
  H   H5737     1.0  0.67063  0.75191  0.37428  1.0000
  C   C4796     1.0  0.61251  0.66205  0.12062  1.0000
  C   C4797     1.0  0.68185  0.67806  0.01023  1.0000
  H   H5738     1.0  0.64992  0.72582  0.07366  1.0000
  C   C4798     1.0  0.50564  0.75256  0.32555  1.0000
  H   H5739     1.0  0.62971  0.62138  0.17106  1.0000
  C   C4799     1.0  0.69588  0.67021  0.11191  1.0000
  C   C4800     1.0  0.96012  0.62791  0.43945  1.0000
  H   H5740     1.0  0.59370  0.77872  0.34076  1.0000
  H   H5741     1.0  0.60132  0.62426  0.13816  1.0000
  H   H5742     1.0  0.63528  0.66208  0.15031  1.0000
  C   C4801     1.0  0.88709  0.61378  0.47346  1.0000
  C   C4802     1.0  0.64958  0.69903  0.09233  1.0000
  S   S1297     1.0  0.50591  0.72840  0.26956  1.0000
  C   C4803     1.0  0.54812  0.66977  0.16403  1.0000
  C   C4804     1.0  0.56047  0.66739  0.17009  1.0000
  C   C4805     1.0  0.56684  0.67918  0.16881  1.0000
  C   C4806     1.0  0.56066  0.69349  0.16183  1.0000
  C   C4807     1.0  0.54825  0.69592  0.15581  1.0000
  C   C4808     1.0  0.54196  0.68405  0.15690  1.0000
  H   H5743     1.0  0.56518  0.65636  0.17570  1.0000
  H   H5744     1.0  0.57670  0.67707  0.17300  1.0000
  H   H5745     1.0  0.54374  0.70690  0.15006  1.0000
  H   H5746     1.0  0.94656  0.70919  0.44894  1.0000
  H   H5747     1.0  0.98492  0.72895  0.36999  1.0000
  H   H5748     1.0  0.60917  0.65282  0.15147  1.0000
  H   H5749     1.0  0.63227  0.73525  0.08290  1.0000
  H   H5750     1.0  0.53594  0.75433  0.20824  1.0000
  H   H5751     1.0  0.59275  0.66697  0.14765  1.0000
  C   C4809     1.0  0.63223  0.76141  0.38185  1.0000
  C   C4810     1.0  0.54286  0.72879  0.19758  1.0000
  H   H5752     1.0  0.53271  0.68586  0.15179  1.0000
  N   N315      1.0  0.96344  0.64291  0.43422  1.0000
  C   C4811     1.0  0.68532  0.75602  0.14786  1.0000
  C   C4812     1.0  0.87973  0.73415  0.45310  1.0000
  H   H5753     1.0  0.99131  0.64176  0.33237  1.0000
  C   C4813     1.0  0.63900  0.72417  0.08109  1.0000
  C   C4814     1.0  0.59597  0.61304  0.18863  1.0000
  C   C4815     1.0  0.55959  0.74238  0.17844  1.0000
  H   H5754     1.0  0.62654  0.62283  0.09463  1.0000
  C   C4816     1.0  0.54155  0.75406  0.24942  1.0000
  C   C4817     1.0  0.55594  0.75679  0.24512  1.0000
  C   C4818     1.0  0.60521  0.77006  0.38202  1.0000
  H   H5755     1.0  0.58363  0.75798  0.32880  1.0000
  C   C4819     1.0  0.53670  0.76438  0.27089  1.0000
  C   C4820     1.0  0.53200  0.75767  0.26241  1.0000
  H   H5756     1.0  0.65718  0.76381  0.18467  1.0000
  Fe  Fe656     1.0  0.59200  0.58750  0.17364  1.0000
  H   H5757     1.0  0.53745  0.66265  0.13326  1.0000
  H   H5758     1.0  0.52095  0.75538  0.26593  1.0000
  S   S1298     1.0  0.62364  0.77227  0.25343  1.0000
  S   S1299     1.0  0.58160  0.60165  0.15493  1.0000
  H   H5759     1.0  0.55695  0.65337  0.21527  1.0000
  Fe  Fe657     1.0  0.67416  0.61272  0.98792  1.0000
  C   C4821     1.0  0.51051  0.74416  0.31469  1.0000
  C   C4822     1.0  0.98737  0.59827  0.40693  1.0000
  H   H5760     1.0  0.97649  0.66685  0.42207  1.0000
  C   C4823     1.0  0.65015  0.71923  0.10178  1.0000
  H   H5761     1.0  0.52130  0.73655  0.31382  1.0000
  N   N316      1.0  0.67002  0.76338  0.15459  1.0000
  S   S1300     1.0  0.85706  0.77206  0.46599  1.0000
  H   H5762     1.0  0.54620  0.58545  0.19147  1.0000
  C   C4824     1.0  0.60670  0.65222  0.09865  1.0000
  H   H5763     1.0  0.52475  0.60119  0.18366  1.0000
  C   C4825     1.0  0.65259  0.76481  0.02193  1.0000
  C   C4826     1.0  0.53207  0.62877  0.13490  1.0000
  H   H5764     1.0  0.90694  0.74268  0.46348  1.0000
  H   H5765     1.0  0.87935  0.63085  0.43968  1.0000
  H   H5766     1.0  0.66773  0.61595  0.05363  1.0000
  H   H5767     1.0  0.93430  0.74870  0.42632  1.0000
  H   H5768     1.0  0.93446  0.60479  0.38622  1.0000
  H   H5769     1.0  0.56894  0.77213  0.30214  1.0000
  C   C4827     1.0  0.65673  0.75431  0.18117  1.0000
  H   H5770     1.0  0.68662  0.69231  0.11545  1.0000
  C   C4828     1.0  0.64376  0.61809  0.12796  1.0000
  C   C4829     1.0  0.65529  0.61827  0.02190  1.0000
  C   C4830     1.0  0.64267  0.61700  0.03339  1.0000
  C   C4831     1.0  0.63749  0.62691  0.04282  1.0000
  C   C4832     1.0  0.64525  0.63777  0.04116  1.0000
  C   C4833     1.0  0.65787  0.63910  0.02968  1.0000
  C   C4834     1.0  0.66268  0.62958  0.01982  1.0000
  C   C4835     1.0  0.51017  0.75529  0.15484  1.0000
  H   H5771     1.0  0.62772  0.62587  0.05169  1.0000
  H   H5772     1.0  0.66391  0.64746  0.02844  1.0000
  H   H5773     1.0  0.67242  0.63067  0.01099  1.0000
  H   H5774     1.0  0.68208  0.63997  0.13020  1.0000
  H   H5775     1.0  0.52267  0.70689  0.23875  1.0000
  C   C4836     1.0  0.49631  0.62363  0.13807  1.0000
  C   C4837     1.0  0.53580  0.67879  0.23544  1.0000
  C   C4838     1.0  0.53933  0.66795  0.22722  1.0000
  C   C4839     1.0  0.55421  0.66180  0.22162  1.0000
  H   H5776     1.0  0.53907  0.71361  0.22821  1.0000
  H   H5777     1.0  0.52411  0.68306  0.23977  1.0000
  H   H5778     1.0  0.53046  0.66430  0.22523  1.0000
  S   S1301     1.0  0.73950  0.77353  0.45356  1.0000
  H   H5779     1.0  0.65611  0.67558  0.15848  1.0000
  H   H5780     1.0  0.93049  0.75808  0.46396  1.0000
  C   C4840     1.0  0.50417  0.74350  0.16515  1.0000
  C   C4841     1.0  0.52694  0.70608  0.20414  1.0000
  H   H5781     1.0  0.66925  0.65889  0.16414  1.0000
  H   H5782     1.0  0.75481  0.60402  0.99599  1.0000
  H   H5783     1.0  0.89725  0.58526  0.45553  1.0000
  C   C4842     1.0  0.63319  0.60990  0.12925  1.0000
  H   H5784     1.0  0.55235  0.70925  0.25444  1.0000
  H   H5785     1.0  0.63114  0.75295  0.35653  1.0000
  N   N317      1.0  0.55154  0.74033  0.19416  1.0000
  H   H5786     1.0  0.65433  0.76681  0.05607  1.0000
  C   C4843     1.0  0.64799  0.62805  0.11468  1.0000
  Fe  Fe658     1.0  0.51595  0.76912  0.34778  1.0000
  C   C4844     1.0  0.99021  0.62967  0.42479  1.0000
  H   H5787     1.0  0.73603  0.60075  0.04542  1.0000
  C   C4845     1.0  0.85886  0.75929  0.44314  1.0000
  C   C4846     1.0  0.71171  0.61049  0.01553  1.0000
  H   H5788     1.0  0.64482  0.73065  0.10350  1.0000
  S   S1302     1.0  0.55639  0.77683  0.27655  1.0000
  H   H5789     1.0  0.70236  0.64737  0.11053  1.0000
  C   C4847     1.0  0.63140  0.62136  0.10394  1.0000
  H   H5790     1.0  0.56229  0.71115  0.19253  1.0000
  H   H5791     1.0  0.51616  0.61836  0.18907  1.0000
  Fe  Fe659     1.0  0.99241  0.75614  0.41947  1.0000
  S   S1303     1.0  0.97117  0.75047  0.43435  1.0000
  H   H5792     1.0  0.94832  0.70969  0.35902  1.0000
  H   H5793     1.0  0.52035  0.74242  0.20373  1.0000
  H   H5794     1.0  0.52049  0.60343  0.14377  1.0000
  H   H5795     1.0  0.61223  0.76200  0.35719  1.0000
  H   H5796     1.0  0.64614  0.69717  0.01797  1.0000
  H   H5797     1.0  0.56762  0.73212  0.17587  1.0000
  N   N318      1.0  0.95392  0.69565  0.37923  1.0000
  H   H5798     1.0  0.50533  0.73900  0.29663  1.0000
  C   C4848     1.0  0.94864  0.68309  0.37789  1.0000
  H   H5799     1.0  0.55786  0.61021  0.20881  1.0000
  C   C4849     1.0  0.94252  0.70532  0.38841  1.0000
  C   C4850     1.0  0.94649  0.71631  0.39280  1.0000
  C   C4851     1.0  0.92715  0.70478  0.39249  1.0000
  C   C4852     1.0  0.93587  0.72570  0.40129  1.0000
  C   C4853     1.0  0.91659  0.71442  0.40074  1.0000
  C   C4854     1.0  0.92094  0.72474  0.40526  1.0000
  H   H5800     1.0  0.68082  0.59715  0.07896  1.0000
  H   H5801     1.0  0.51417  0.70595  0.16913  1.0000
  H   H5802     1.0  0.60663  0.78171  0.37815  1.0000
  H   H5803     1.0  0.94491  0.67610  0.38895  1.0000
  H   H5804     1.0  0.95767  0.67566  0.37148  1.0000
  H   H5805     1.0  0.93945  0.68689  0.37183  1.0000
  S   S1304     1.0  0.98766  0.60257  0.31139  1.0000
  C   C4855     1.0  0.62614  0.71231  0.10495  1.0000
  H   H5806     1.0  0.64948  0.77455  0.14754  1.0000
  H   H5807     1.0  0.95789  0.71762  0.38988  1.0000
  C   C4856     1.0  0.66570  0.58871  0.05539  1.0000
  H   H5808     1.0  0.93932  0.73362  0.40492  1.0000
  H   H5809     1.0  0.90493  0.71373  0.40387  1.0000
  H   H5810     1.0  0.91268  0.73194  0.41191  1.0000
  N   N319      1.0  0.56919  0.75200  0.31881  1.0000
  C   C4857     1.0  0.58423  0.75123  0.32090  1.0000
  H   H5811     1.0  0.68980  0.66022  0.99886  1.0000
  C   C4858     1.0  0.56000  0.74653  0.33346  1.0000
  C   C4859     1.0  0.56939  0.74325  0.30834  1.0000
  C   C4860     1.0  0.58274  0.73456  0.30132  1.0000
  C   C4861     1.0  0.55586  0.74321  0.30495  1.0000
  C   C4862     1.0  0.58249  0.72665  0.29130  1.0000
  C   C4863     1.0  0.55578  0.73542  0.29479  1.0000
  C   C4864     1.0  0.56908  0.72725  0.28789  1.0000
  C   C4865     1.0  0.76805  0.77420  0.45314  1.0000
  H   H5812     1.0  0.62726  0.73589  0.38032  1.0000
  H   H5813     1.0  0.58984  0.73971  0.32542  1.0000
  H   H5814     1.0  0.96298  0.71386  0.36429  1.0000
  C   C4866     1.0  0.66609  0.66877  0.00091  1.0000
  H   H5815     1.0  0.53084  0.60434  0.12489  1.0000
  H   H5816     1.0  0.56422  0.73450  0.33760  1.0000
  C   C4867     1.0  0.88791  0.60750  0.44673  1.0000
  H   H5817     1.0  0.54812  0.74822  0.33314  1.0000
  H   H5818     1.0  0.59361  0.73397  0.30305  1.0000
  H   H5819     1.0  0.54525  0.74948  0.30993  1.0000
  H   H5820     1.0  0.59286  0.72042  0.28578  1.0000
  H   H5821     1.0  0.54536  0.73599  0.29203  1.0000
  H   H5822     1.0  0.56902  0.72153  0.27974  1.0000
  H   H5823     1.0  0.57153  0.68092  0.23341  1.0000
  H   H5824     1.0  0.56360  0.69103  0.25388  1.0000
  C   C4868     1.0  0.65538  0.68898  0.01360  1.0000
  C   C4869     1.0  0.53867  0.63943  0.13620  1.0000
  C   C4870     1.0  0.66089  0.73969  0.16310  1.0000
  C   C4871     1.0  0.96848  0.62035  0.40062  1.0000
  H   H5825     1.0  0.70512  0.67322  0.10310  1.0000
  H   H5826     1.0  0.50089  0.67595  0.23921  1.0000
  S   S1305     1.0  0.97450  0.64642  0.38340  1.0000
  H   H5827     1.0  0.69062  0.60768  0.01425  1.0000
  H   H5828     1.0  0.59149  0.64692  0.19581  1.0000
  N   N320      1.0  0.63813  0.68008  0.00429  1.0000
  H   H5829     1.0  0.57715  0.66155  0.22000  1.0000
  H   H5830     1.0  0.57670  0.64161  0.13619  1.0000
  H   H5831     1.0  0.98320  0.66031  0.47495  1.0000
  H   H5832     1.0  0.64951  0.74817  0.36754  1.0000
  H   H5833     1.0  0.89062  0.77814  0.47457  1.0000
  H   H5834     1.0  0.51451  0.67060  0.12333  1.0000
  N   N321      1.0  0.67777  0.59271  0.05935  1.0000
  C   C4872     1.0  0.91892  0.76490  0.46426  1.0000
  H   H5835     1.0  0.60298  0.71875  0.13794  1.0000
  H   H5836     1.0  0.88782  0.76846  0.43114  1.0000
  H   H5837     1.0  0.88877  0.60522  0.43612  1.0000
  C   C4873     1.0  0.65324  0.67924  0.00614  1.0000
  C   C4874     1.0  0.86353  0.75799  0.45603  1.0000
  H   H5838     1.0  0.54141  0.67976  0.26744  1.0000
  H   H5839     1.0  0.65011  0.69049  0.10278  1.0000
  H   H5840     1.0  0.59598  0.76946  0.37741  1.0000
  C   C4875     1.0  0.89263  0.76652  0.47350  1.0000
  H   H5841     1.0  0.52372  0.71814  0.17211  1.0000
  C   C4876     1.0  0.66265  0.75249  0.16637  1.0000
  H   H5842     1.0  0.55432  0.62251  0.22875  1.0000
  S   S1306     1.0  0.49979  0.73757  0.23570  1.0000
  C   C4877     1.0  0.53320  0.70902  0.23953  1.0000
  H   H5843     1.0  0.61962  0.70289  0.09028  1.0000
  H   H5844     1.0  0.57362  0.66024  0.13840  1.0000
  H   H5845     1.0  0.65217  0.71176  0.11246  1.0000
  C   C4878     1.0  0.65851  0.66334  0.16042  1.0000
  H   H5846     1.0  0.54848  0.63602  0.14090  1.0000
  H   H5847     1.0  0.66134  0.71989  0.09442  1.0000
  S   S1307     1.0  0.54141  0.65457  0.16442  1.0000
  H   H5848     1.0  0.61954  0.77476  0.39830  1.0000
  C   C4879     1.0  0.68547  0.68088  0.11890  1.0000
  N   N322      1.0  0.98510  0.59248  0.36386  1.0000
  C   C4880     1.0  0.73661  0.60441  0.05477  1.0000
  H   H5849     1.0  0.64507  0.67128  0.98460  1.0000
  H   H5850     1.0  0.91693  0.76658  0.45305  1.0000
  C   C4881     1.0  0.65016  0.76193  0.03737  1.0000
  H   H5851     1.0  0.56001  0.75240  0.34185  1.0000
  H   H5852     1.0  0.61591  0.60174  0.17572  1.0000
  S   S1308     1.0  0.71138  0.62497  0.04969  1.0000
  C   C4882     1.0  0.51412  0.72816  0.14626  1.0000
  S   S1309     1.0  0.65130  0.72911  0.99123  1.0000
  H   H5853     1.0  0.96678  0.62065  0.44761  1.0000
  H   H5854     1.0  0.59667  0.62633  0.15681  1.0000
  S   S1310     1.0  0.58641  0.59888  0.19244  1.0000
  H   H5855     1.0  0.96225  0.62244  0.43012  1.0000
  H   H5856     1.0  0.85070  0.76894  0.43934  1.0000
  C   C4883     1.0  0.95439  0.71483  0.44051  1.0000
  C   C4884     1.0  0.49665  0.74597  0.17947  1.0000
  H   H5857     1.0  0.56235  0.70509  0.23708  1.0000
  N   N323      1.0  0.53663  0.60707  0.19646  1.0000
  C   C4885     1.0  0.95456  0.77840  0.45763  1.0000
  H   H5858     1.0  0.55081  0.76966  0.31251  1.0000
  C   C4886     1.0  0.51981  0.62137  0.21586  1.0000
  C   C4887     1.0  0.50954  0.62474  0.11265  1.0000
  H   H5859     1.0  0.96014  0.66142  0.44417  1.0000
  C   C4888     1.0  0.55091  0.76759  0.26636  1.0000
  C   C4889     1.0  0.50148  0.74553  0.30495  1.0000
  C   C4890     1.0  0.56215  0.67760  0.23211  1.0000
  S   S1311     1.0  0.50445  0.65754  0.19358  1.0000
  H   H5860     1.0  0.64526  0.74535  0.20321  1.0000
  H   H5861     1.0  0.92046  0.59100  0.47743  1.0000
  C   C4891     1.0  0.56264  0.73565  0.20362  1.0000
  C   C4892     1.0  0.54708  0.68407  0.23803  1.0000
  S   S1312     1.0  0.63789  0.77278  0.11885  1.0000
  H   H5862     1.0  0.66127  0.69932  0.08632  1.0000
  H   H5863     1.0  0.50151  0.63529  0.10947  1.0000
  C   C4893     1.0  0.59678  0.63711  0.19139  1.0000
  C   C4894     1.0  0.53246  0.65445  0.13191  1.0000
  C   C4895     1.0  0.89269  0.59892  0.47179  1.0000
  C   C4896     1.0  0.61646  0.70627  0.10069  1.0000
  H   H5864     1.0  0.88727  0.72427  0.45741  1.0000
  C   C4897     1.0  0.53466  0.69012  0.26183  1.0000
  C   C4898     1.0  0.62082  0.71685  0.11864  1.0000
  C   C4899     1.0  0.53421  0.61445  0.20874  1.0000
  C   C4900     1.0  0.95739  0.72745  0.44246  1.0000
  H   H5865     1.0  0.54739  0.61002  0.17330  1.0000
  N   N324      1.0  0.64097  0.71371  0.09530  1.0000
  H   H5866     1.0  0.95162  0.73166  0.45230  1.0000
  C   C4901     1.0  0.73304  0.58946  0.01233  1.0000
  H   H5867     1.0  0.52393  0.68771  0.26186  1.0000
  H   H5868     1.0  0.64437  0.63766  0.09266  1.0000
  S   S1313     1.0  0.99336  0.76549  0.39534  1.0000
  S   S1314     1.0  0.69040  0.62747  0.98157  1.0000
  H   H5869     1.0  0.59534  0.69984  0.10628  1.0000
  H   H5870     1.0  0.64945  0.65988  0.16985  1.0000
  C   C4902     1.0  0.63202  0.69518  0.99629  1.0000
  N   N325      1.0  0.69558  0.72448  0.01310  1.0000
  C   C4903     1.0  0.70078  0.73269  0.99786  1.0000
  C   C4904     1.0  0.70129  0.70842  0.01338  1.0000
  C   C4905     1.0  0.67903  0.72737  0.01651  1.0000
  C   C4906     1.0  0.70059  0.72959  0.02363  1.0000
  C   C4907     1.0  0.71046  0.72009  0.03271  1.0000
  C   C4908     1.0  0.69576  0.74461  0.02486  1.0000
  C   C4909     1.0  0.71516  0.72542  0.04231  1.0000
  C   C4910     1.0  0.70045  0.74980  0.03455  1.0000
  C   C4911     1.0  0.71017  0.74023  0.04322  1.0000
  H   H5871     1.0  0.71314  0.73130  0.99506  1.0000
  H   H5872     1.0  0.64109  0.77786  0.40463  1.0000
  H   H5873     1.0  0.69573  0.74476  0.99629  1.0000
  H   H5874     1.0  0.71371  0.70549  0.01028  1.0000
  H   H5875     1.0  0.69727  0.70502  0.00533  1.0000
  H   H5876     1.0  0.69740  0.70158  0.02449  1.0000
  H   H5877     1.0  0.67377  0.73935  0.01505  1.0000
  H   H5878     1.0  0.67489  0.72319  0.00912  1.0000
  H   H5879     1.0  0.67458  0.72199  0.02811  1.0000
  H   H5880     1.0  0.71445  0.70842  0.03287  1.0000
  H   H5881     1.0  0.68819  0.75247  0.01840  1.0000
  H   H5882     1.0  0.72234  0.71793  0.04945  1.0000
  H   H5883     1.0  0.69634  0.76126  0.03550  1.0000
  H   H5884     1.0  0.71350  0.74418  0.05100  1.0000
  C   C4912     1.0  0.63787  0.66940  0.99592  1.0000
  H   H5885     1.0  0.56343  0.75386  0.23516  1.0000
  C   C4913     1.0  0.65717  0.76509  0.38989  1.0000
  N   N326      1.0  0.54293  0.69565  0.24670  1.0000
  H   H5886     1.0  0.61661  0.67720  0.01813  1.0000
  C   C4914     1.0  0.66948  0.68835  0.01561  1.0000
  C   C4915     1.0  0.62805  0.67690  0.01902  1.0000
  C   C4916     1.0  0.49517  0.68603  0.23292  1.0000
  H   H5887     1.0  0.97838  0.71187  0.40747  1.0000
  H   H5888     1.0  0.58688  0.70769  0.13015  1.0000
  C   C4917     1.0  0.56557  0.66649  0.22421  1.0000
  C   C4918     1.0  0.51800  0.62851  0.22720  1.0000
  H   H5889     1.0  0.66476  0.73772  0.15204  1.0000
  H   H5890     1.0  0.96363  0.59953  0.41307  1.0000
  H   H5891     1.0  0.52983  0.71788  0.24582  1.0000
  C   C4919     1.0  0.64712  0.75473  0.37567  1.0000
  H   H5892     1.0  0.94166  0.65169  0.42902  1.0000
  H   H5893     1.0  0.62980  0.60239  0.13955  1.0000
  C   C4920     1.0  0.96747  0.68922  0.38553  1.0000
  H   H5894     1.0  0.59155  0.75567  0.31033  1.0000
  S   S1315     1.0  0.95670  0.69441  0.42499  1.0000
  N   N327      1.0  0.65915  0.65807  0.14716  1.0000
  C   C4921     1.0  0.64514  0.66526  0.14190  1.0000
  C   C4922     1.0  0.65985  0.64188  0.15194  1.0000
  C   C4923     1.0  0.67194  0.66199  0.13520  1.0000
  H   H5895     1.0  0.91875  0.77591  0.46592  1.0000
  N   N328      1.0  0.61940  0.75953  0.37733  1.0000
  C   C4924     1.0  0.51257  0.71680  0.17195  1.0000
  H   H5896     1.0  0.64551  0.66193  0.13163  1.0000
  H   H5897     1.0  0.67036  0.63577  0.15567  1.0000
  H   H5898     1.0  0.65044  0.63924  0.16135  1.0000
  H   H5899     1.0  0.65895  0.63728  0.14296  1.0000
  H   H5900     1.0  0.98760  0.61885  0.42850  1.0000
  H   H5901     1.0  0.97393  0.69755  0.38445  1.0000
  C   C4925     1.0  0.51959  0.65891  0.12630  1.0000
  H   H5902     1.0  0.79073  0.77459  0.45229  1.0000
  C   C4926     1.0  0.66128  0.76965  0.14294  1.0000
  C   C4927     1.0  0.54486  0.59147  0.20023  1.0000
  C   C4928     1.0  0.62225  0.76183  0.36099  1.0000
  C   C4929     1.0  0.88221  0.62511  0.46204  1.0000
  H   H5903     1.0  0.66567  0.66091  0.99508  1.0000
  S   S1316     1.0  0.81296  0.78051  0.46777  1.0000
  C   C4930     1.0  0.72692  0.60410  0.01453  1.0000
  S   S1317     1.0  0.61251  0.60305  0.11855  1.0000
  H   H5904     1.0  0.57165  0.76584  0.25006  1.0000
  C   C4931     1.0  0.53038  0.62893  0.23185  1.0000
  S   S1318     1.0  0.69643  0.77013  0.07261  1.0000
  H   H5905     1.0  0.75440  0.59628  0.02231  1.0000
  H   H5906     1.0  0.76833  0.76365  0.46094  1.0000
  H   H5907     1.0  0.92625  0.60455  0.36417  1.0000
  C   C4932     1.0  0.98868  0.60630  0.36431  1.0000
  H   H5908     1.0  0.50506  0.61593  0.11108  1.0000
  C   C4933     1.0  0.51292  0.64836  0.12491  1.0000
  H   H5909     1.0  0.61504  0.74206  0.39632  1.0000
  C   C4934     1.0  0.63038  0.76945  0.39279  1.0000
  H   H5910     1.0  0.68529  0.74744  0.14224  1.0000
  H   H5911     1.0  0.68129  0.60875  0.03896  1.0000
  C   C4935     1.0  0.67140  0.77590  0.15986  1.0000
  C   C4936     1.0  0.66524  0.77910  0.03562  1.0000
  C   C4937     1.0  0.54465  0.62225  0.22512  1.0000
  H   H5912     1.0  0.70734  0.62175  0.01707  1.0000
  H   H5913     1.0  0.50953  0.77679  0.30008  1.0000
  H   H5914     1.0  0.69130  0.76406  0.13920  1.0000
  C   C4938     1.0  0.63418  0.77334  0.31361  1.0000
  C   C4939     1.0  0.93807  0.60196  0.36406  1.0000
  C   C4940     1.0  0.67326  0.59261  0.07538  1.0000
  H   H5915     1.0  0.96698  0.64357  0.45502  1.0000
  H   H5916     1.0  0.66349  0.77700  0.00137  1.0000
  H   H5917     1.0  0.90776  0.74673  0.43410  1.0000
  H   H5918     1.0  0.96159  0.76756  0.45661  1.0000
  C   C4941     1.0  0.94269  0.60209  0.37645  1.0000
  H   H5919     1.0  0.63690  0.60830  0.03500  1.0000
  S   S1319     1.0  0.99039  0.67104  0.34697  1.0000
  C   C4942     1.0  0.91053  0.75749  0.42933  1.0000
  Fe  Fe660     1.0  0.58094  0.77617  0.26792  1.0000
  H   H5920     1.0  0.69214  0.75060  0.15635  1.0000
  C   C4943     1.0  0.90931  0.74266  0.47412  1.0000
  H   H5921     1.0  0.51590  0.75458  0.14363  1.0000
  Fe  Fe661     1.0  0.50741  0.78075  0.37586  1.0000
  C   C4944     1.0  0.89909  0.77019  0.42752  1.0000
  H   H5922     1.0  0.53994  0.62669  0.18006  1.0000
  N   N329      1.0  0.50533  0.72928  0.16141  1.0000
  H   H5923     1.0  0.67757  0.78350  0.15086  1.0000
  H   H5924     1.0  0.55693  0.61453  0.18429  1.0000
  Fe  Fe662     1.0  0.65872  0.77281  0.10092  1.0000
  S   S1320     1.0  0.50243  0.68142  0.16196  1.0000
  H   H5925     1.0  0.87855  0.63647  0.46335  1.0000
  H   H5926     1.0  0.49974  0.74740  0.37039  1.0000
  H   H5927     1.0  0.50971  0.62150  0.21285  1.0000
  H   H5928     1.0  0.98408  0.73403  0.41112  1.0000
  H   H5929     1.0  0.70424  0.59375  0.06477  1.0000
  H   H5930     1.0  0.94067  0.77308  0.41481  1.0000
  C   C4945     1.0  0.62315  0.78314  0.17416  1.0000
  H   H5931     1.0  0.49795  0.71814  0.39203  1.0000
  C   C4946     1.0  0.49537  0.75930  0.18327  1.0000
  Fe  Fe663     1.0  0.93785  0.58474  0.42822  1.0000
  H   H5932     1.0  0.75648  0.58792  0.05878  1.0000
  H   H5933     1.0  0.50687  0.63373  0.23241  1.0000
  C   C4947     1.0  0.70223  0.60255  0.01419  1.0000
  H   H5934     1.0  0.66598  0.77838  0.13413  1.0000
  H   H5935     1.0  0.66786  0.58946  0.04327  1.0000
  H   H5936     1.0  0.51522  0.78154  0.31397  1.0000
  C   C4948     1.0  0.75509  0.78155  0.44781  1.0000
  H   H5937     1.0  0.80276  0.78057  0.40621  1.0000
  H   H5938     1.0  0.53888  0.58545  0.21082  1.0000
  C   C4949     1.0  0.94644  0.78082  0.47148  1.0000
  C   C4950     1.0  0.70770  0.58799  0.01263  1.0000
  Fe  Fe664     1.0  0.99426  0.65386  0.36734  1.0000
  H   H5939     1.0  0.49595  0.67598  0.21531  1.0000
  C   C4951     1.0  0.75665  0.59220  0.99568  1.0000
  H   H5940     1.0  0.75204  0.59206  0.98633  1.0000
  H   H5941     1.0  0.98532  0.77146  0.35419  1.0000
  C   C4952     1.0  0.75526  0.58465  0.02200  1.0000
  H   H5942     1.0  0.76894  0.58779  0.99292  1.0000
  H   H5943     1.0  0.95883  0.78180  0.35590  1.0000
  H   H5944     1.0  0.98231  0.58436  0.38759  1.0000
  H   H5945     1.0  0.99344  0.59011  0.11631  1.0000
  H   H5946     1.0  0.66028  0.78281  0.16388  1.0000
  H   H5947     1.0  0.71274  0.78318  0.32849  1.0000
  H   H5948     1.0  0.63049  0.58413  0.97801  1.0000
  H   H5949     1.0  0.99445  0.59583  0.34038  1.0000
  C   C4953     1.0  0.49470  0.74774  0.38219  1.0000
  C   C4954     1.0  0.98163  0.78332  0.35285  1.0000
  H   H5950     1.0  0.66473  0.58368  0.11475  1.0000
  S   S1321     1.0  0.64946  0.74558  0.80025  1.0000
  S   S1322     1.0  0.58320  0.77737  0.83492  1.0000
  S   S1323     1.0  0.69410  0.62513  0.94731  1.0000
  S   S1324     1.0  0.67121  0.60243  0.93981  1.0000
  C   C4955     1.0  0.60258  0.71330  0.83826  1.0000
  S   S1325     1.0  0.58139  0.59032  0.93814  1.0000
  H   H5951     1.0  0.98079  0.63467  0.48791  1.0000
  H   H5952     1.0  0.70604  0.67988  0.97026  1.0000
  S   S1326     1.0  0.93627  0.59889  0.55002  1.0000
  Fe  Fe665     1.0  0.60926  0.68399  0.90204  1.0000
  S   S1327     1.0  0.59596  0.70625  0.90644  1.0000
  S   S1328     1.0  0.60633  0.66259  0.91861  1.0000
  Fe  Fe666     1.0  0.62758  0.69730  0.87275  1.0000
  S   S1329     1.0  0.61559  0.72053  0.87416  1.0000
  S   S1330     1.0  0.64629  0.69089  0.85408  1.0000
  Fe  Fe667     1.0  0.61782  0.71337  0.89774  1.0000
  S   S1331     1.0  0.62710  0.72916  0.90399  1.0000
  Fe  Fe668     1.0  0.59489  0.71165  0.88251  1.0000
  S   S1332     1.0  0.57458  0.72345  0.87316  1.0000
  S   S1333     1.0  0.63130  0.69067  0.89573  1.0000
  S   S1334     1.0  0.60660  0.68897  0.87873  1.0000
  H   H5953     1.0  0.93699  0.67666  0.49230  1.0000
  S   S1335     1.0  0.66142  0.73751  0.95530  1.0000
  H   H5954     1.0  0.98739  0.66020  0.55549  1.0000
  H   H5955     1.0  0.62624  0.59344  0.93311  1.0000
  H   H5956     1.0  0.95585  0.60555  0.61619  1.0000
  Fe  Fe669     1.0  0.65982  0.76051  0.95728  1.0000
  H   H5957     1.0  0.89217  0.76676  0.52407  1.0000
  S   S1336     1.0  0.59190  0.61199  0.89840  1.0000
  H   H5958     1.0  0.84954  0.77932  0.53972  1.0000
  Fe  Fe670     1.0  0.94261  0.61670  0.55628  1.0000
  C   C4956     1.0  0.68992  0.67182  0.96452  1.0000
  S   S1337     1.0  0.92796  0.63967  0.55366  1.0000
  C   C4957     1.0  0.98440  0.60139  0.61859  1.0000
  C   C4958     1.0  0.97991  0.65960  0.51828  1.0000
  C   C4959     1.0  0.99424  0.63582  0.58230  1.0000
  H   H5959     1.0  0.57438  0.64839  0.93334  1.0000
  C   C4960     1.0  0.86267  0.75319  0.53004  1.0000
  H   H5960     1.0  0.90795  0.60155  0.49038  1.0000
  Fe  Fe671     1.0  0.94261  0.70759  0.56569  1.0000
  S   S1338     1.0  0.96463  0.70498  0.54977  1.0000
  S   S1339     1.0  0.93849  0.68659  0.58201  1.0000
  Fe  Fe672     1.0  0.93509  0.74074  0.55400  1.0000
  S   S1340     1.0  0.95667  0.74078  0.53702  1.0000
  S   S1341     1.0  0.91883  0.76250  0.55554  1.0000
  Fe  Fe673     1.0  0.95239  0.72069  0.53299  1.0000
  S   S1342     1.0  0.95853  0.71651  0.50997  1.0000
  Fe  Fe674     1.0  0.96698  0.72509  0.55526  1.0000
  H   H5961     1.0  0.97198  0.72109  0.58914  1.0000
  S   S1343     1.0  0.92986  0.72188  0.54855  1.0000
  S   S1344     1.0  0.94576  0.72662  0.57269  1.0000
  S   S1345     1.0  0.85094  0.75985  0.56977  1.0000
  H   H5962     1.0  0.63262  0.74880  0.87545  1.0000
  H   H5963     1.0  0.61319  0.73495  0.84001  1.0000
  C   C4961     1.0  0.57467  0.72667  0.82948  1.0000
  S   S1346     1.0  0.52023  0.71010  0.92514  1.0000
  H   H5964     1.0  0.98486  0.70317  0.64420  1.0000
  H   H5965     1.0  0.90820  0.65140  0.50469  1.0000
  H   H5966     1.0  0.92029  0.67224  0.51334  1.0000
  H   H5967     1.0  0.53833  0.66737  0.90719  1.0000
  C   C4962     1.0  0.51177  0.72670  0.84950  1.0000
  C   C4963     1.0  0.63788  0.78312  0.73417  1.0000
  S   S1347     1.0  0.90711  0.70270  0.49064  1.0000
  H   H5968     1.0  0.51249  0.74578  0.91279  1.0000
  H   H5969     1.0  0.61966  0.75584  0.86347  1.0000
  H   H5970     1.0  0.93185  0.65955  0.52539  1.0000
  H   H5971     1.0  0.78161  0.78052  0.58188  1.0000
  C   C4964     1.0  0.90023  0.76139  0.55830  1.0000
  C   C4965     1.0  0.89588  0.74789  0.56441  1.0000
  C   C4966     1.0  0.88074  0.74743  0.56759  1.0000
  C   C4967     1.0  0.86992  0.76049  0.56483  1.0000
  C   C4968     1.0  0.87439  0.77388  0.55820  1.0000
  C   C4969     1.0  0.88950  0.77434  0.55498  1.0000
  H   H5972     1.0  0.90409  0.73785  0.56717  1.0000
  H   H5973     1.0  0.87737  0.73701  0.57260  1.0000
  H   H5974     1.0  0.98058  0.75517  0.54829  1.0000
  C   C4970     1.0  0.95808  0.58642  0.50278  1.0000
  C   C4971     1.0  0.94448  0.71213  0.50467  1.0000
  C   C4972     1.0  0.94649  0.71090  0.49010  1.0000
  S   S1348     1.0  0.96483  0.59673  0.51094  1.0000
  C   C4973     1.0  0.92175  0.70598  0.49586  1.0000
  C   C4974     1.0  0.91986  0.70694  0.51044  1.0000
  C   C4975     1.0  0.93128  0.70985  0.51486  1.0000
  H   H5975     1.0  0.50204  0.62108  0.92677  1.0000
  H   H5976     1.0  0.61137  0.75786  0.89454  1.0000
  C   C4976     1.0  0.67040  0.69864  0.96892  1.0000
  H   H5977     1.0  0.92980  0.71028  0.52617  1.0000
  H   H5978     1.0  0.54971  0.75028  0.87018  1.0000
  H   H5979     1.0  0.55640  0.62384  0.90874  1.0000
  H   H5980     1.0  0.56594  0.59873  0.90689  1.0000
  H   H5981     1.0  0.92922  0.76579  0.61245  1.0000
  C   C4977     1.0  0.57192  0.75152  0.80626  1.0000
  C   C4978     1.0  0.67544  0.67510  0.96214  1.0000
  H   H5982     1.0  0.96896  0.60559  0.59872  1.0000
  H   H5983     1.0  0.49685  0.60863  0.88626  1.0000
  H   H5984     1.0  0.54999  0.74825  0.80839  1.0000
  C   C4979     1.0  0.90820  0.77210  0.60571  1.0000
  H   H5985     1.0  0.96062  0.68524  0.51922  1.0000
  C   C4980     1.0  0.62084  0.77926  0.93582  1.0000
  S   S1349     1.0  0.99410  0.65130  0.58842  1.0000
  C   C4981     1.0  0.89838  0.76308  0.50186  1.0000
  C   C4982     1.0  0.53344  0.75179  0.85119  1.0000
  C   C4983     1.0  0.60272  0.73872  0.83582  1.0000
  S   S1350     1.0  0.50642  0.65069  0.91398  1.0000
  N   N330      1.0  0.52996  0.76165  0.86161  1.0000
  C   C4984     1.0  0.98173  0.63527  0.57782  1.0000
  N   N331      1.0  0.89816  0.58721  0.48395  1.0000
  H   H5986     1.0  0.60290  0.74986  0.82848  1.0000
  H   H5987     1.0  0.97199  0.64429  0.57843  1.0000
  H   H5988     1.0  0.97211  0.62271  0.56918  1.0000
  C   C4985     1.0  0.93105  0.65245  0.56174  1.0000
  C   C4986     1.0  0.92640  0.66763  0.55600  1.0000
  C   C4987     1.0  0.92896  0.67813  0.56198  1.0000
  C   C4988     1.0  0.93567  0.67352  0.57411  1.0000
  C   C4989     1.0  0.94005  0.65834  0.58007  1.0000
  C   C4990     1.0  0.93802  0.64780  0.57371  1.0000
  H   H5989     1.0  0.92077  0.67134  0.54692  1.0000
  H   H5990     1.0  0.92533  0.68981  0.55748  1.0000
  H   H5991     1.0  0.94515  0.65474  0.58953  1.0000
  H   H5992     1.0  0.94154  0.63611  0.57827  1.0000
  N   N332      1.0  0.60131  0.72813  0.82805  1.0000
  H   H5993     1.0  0.66252  0.69698  0.87527  1.0000
  C   C4991     1.0  0.51280  0.59629  0.89960  1.0000
  H   H5994     1.0  0.88574  0.75759  0.60677  1.0000
  H   H5995     1.0  0.57779  0.78321  0.71057  1.0000
  H   H5996     1.0  0.68485  0.67662  0.87271  1.0000
  C   C4992     1.0  0.55870  0.72139  0.88720  1.0000
  C   C4993     1.0  0.54638  0.71857  0.88424  1.0000
  C   C4994     1.0  0.53409  0.71585  0.89575  1.0000
  C   C4995     1.0  0.53423  0.71577  0.91020  1.0000
  C   C4996     1.0  0.54619  0.71940  0.91297  1.0000
  C   C4997     1.0  0.55843  0.72220  0.90147  1.0000
  H   H5997     1.0  0.54656  0.71798  0.87319  1.0000
  H   H5998     1.0  0.52465  0.71362  0.89344  1.0000
  H   H5999     1.0  0.54620  0.71961  0.92411  1.0000
  H   H6000     1.0  0.56765  0.72496  0.90368  1.0000
  C   C4998     1.0  0.62473  0.72900  0.92266  1.0000
  C   C4999     1.0  0.63158  0.73818  0.92620  1.0000
  C   C5000     1.0  0.63070  0.73790  0.94095  1.0000
  C   C5001     1.0  0.62301  0.72839  0.95229  1.0000
  C   C5002     1.0  0.61595  0.71929  0.94880  1.0000
  C   C5003     1.0  0.61685  0.71955  0.93395  1.0000
  H   H6001     1.0  0.63787  0.74533  0.91754  1.0000
  H   H6002     1.0  0.63592  0.74513  0.94353  1.0000
  H   H6003     1.0  0.60994  0.71194  0.95758  1.0000
  H   H6004     1.0  0.61155  0.71239  0.93127  1.0000
  C   C5004     1.0  0.60354  0.64824  0.91236  1.0000
  C   C5005     1.0  0.60055  0.65073  0.89839  1.0000
  C   C5006     1.0  0.59715  0.63952  0.89412  1.0000
  C   C5007     1.0  0.59696  0.62563  0.90369  1.0000
  C   C5008     1.0  0.60045  0.62294  0.91748  1.0000
  C   C5009     1.0  0.60360  0.63425  0.92184  1.0000
  H   H6005     1.0  0.60044  0.66139  0.89099  1.0000
  H   H6006     1.0  0.59458  0.64163  0.88341  1.0000
  H   H6007     1.0  0.60053  0.61221  0.92489  1.0000
  H   H6008     1.0  0.60594  0.63216  0.93266  1.0000
  H   H6009     1.0  0.88686  0.61689  0.48344  1.0000
  C   C5010     1.0  0.69475  0.68224  0.96872  1.0000
  C   C5011     1.0  0.64601  0.59746  0.93612  1.0000
  H   H6010     1.0  0.90958  0.70538  0.51837  1.0000
  H   H6011     1.0  0.59957  0.76648  0.88189  1.0000
  H   H6012     1.0  0.98512  0.60617  0.69541  1.0000
  H   H6013     1.0  0.73581  0.78080  0.48094  1.0000
  H   H6014     1.0  0.50576  0.71312  0.87112  1.0000
  S   S1351     1.0  0.51958  0.74412  0.82212  1.0000
  S   S1352     1.0  0.52740  0.77659  0.78885  1.0000
  H   H6015     1.0  0.95459  0.68269  0.53887  1.0000
  H   H6016     1.0  0.53681  0.73998  0.85672  1.0000
  H   H6017     1.0  0.87593  0.58455  0.49521  1.0000
  H   H6018     1.0  0.52382  0.75287  0.84641  1.0000
  C   C5012     1.0  0.96016  0.66994  0.48318  1.0000
  H   H6019     1.0  0.86172  0.75634  0.54017  1.0000
  C   C5013     1.0  0.64552  0.77977  0.86980  1.0000
  H   H6020     1.0  0.66260  0.70870  0.97101  1.0000
  C   C5014     1.0  0.60835  0.77519  0.93487  1.0000
  H   H6021     1.0  0.55222  0.72646  0.82903  1.0000
  C   C5015     1.0  0.66575  0.68853  0.96428  1.0000
  C   C5016     1.0  0.65063  0.73042  0.81534  1.0000
  C   C5017     1.0  0.64605  0.73249  0.82981  1.0000
  C   C5018     1.0  0.64525  0.72032  0.84178  1.0000
  C   C5019     1.0  0.64900  0.70601  0.83930  1.0000
  C   C5020     1.0  0.65446  0.70382  0.82487  1.0000
  C   C5021     1.0  0.65531  0.71603  0.81288  1.0000
  H   H6022     1.0  0.64327  0.74343  0.83184  1.0000
  H   H6023     1.0  0.64193  0.72201  0.85290  1.0000
  H   H6024     1.0  0.65759  0.69274  0.82291  1.0000
  H   H6025     1.0  0.65904  0.71433  0.80170  1.0000
  H   H6026     1.0  0.99086  0.65178  0.51916  1.0000
  C   C5022     1.0  0.99437  0.61138  0.57198  1.0000
  H   H6027     1.0  0.69319  0.70207  0.92001  1.0000
  Fe  Fe675     1.0  0.67750  0.61069  0.95623  1.0000
  C   C5023     1.0  0.73468  0.58468  0.96923  1.0000
  H   H6028     1.0  0.52344  0.72113  0.84790  1.0000
  H   H6029     1.0  0.57055  0.78355  0.69529  1.0000
  S   S1353     1.0  0.98902  0.72331  0.56036  1.0000
  C   C5024     1.0  0.98967  0.76534  0.56013  1.0000
  C   C5025     1.0  0.68204  0.68200  0.88190  1.0000
  H   H6030     1.0  0.53153  0.75356  0.89173  1.0000
  C   C5026     1.0  0.58703  0.73359  0.82305  1.0000
  C   C5027     1.0  0.49679  0.74751  0.89997  1.0000
  C   C5028     1.0  0.92649  0.74935  0.50811  1.0000
  C   C5029     1.0  0.56020  0.74424  0.81248  1.0000
  C   C5030     1.0  0.63246  0.59288  0.94102  1.0000
  H   H6031     1.0  0.52824  0.61354  0.92858  1.0000
  S   S1354     1.0  0.50676  0.69355  0.89862  1.0000
  S   S1355     1.0  0.68854  0.59631  0.97439  1.0000
  H   H6032     1.0  0.95677  0.71255  0.48217  1.0000
  C   C5031     1.0  0.69085  0.67733  0.89235  1.0000
  H   H6033     1.0  0.61604  0.73791  0.80833  1.0000
  C   C5032     1.0  0.97117  0.64384  0.48905  1.0000
  N   N333      1.0  0.84020  0.77333  0.52470  1.0000
  H   H6034     1.0  0.94715  0.77190  0.48120  1.0000
  H   H6035     1.0  0.59312  0.74017  0.84542  1.0000
  Fe  Fe676     1.0  0.63999  0.73844  0.97225  1.0000
  H   H6036     1.0  0.97120  0.59380  0.48116  1.0000
  C   C5033     1.0  0.98995  0.66932  0.54649  1.0000
  Fe  Fe677     1.0  0.60492  0.78250  0.82123  1.0000
  C   C5034     1.0  0.75011  0.78195  0.49408  1.0000
  C   C5035     1.0  0.66948  0.69351  0.88334  1.0000
  C   C5036     1.0  0.64344  0.78288  0.74612  1.0000
  C   C5037     1.0  0.68497  0.69572  0.97088  1.0000
  H   H6037     1.0  0.63742  0.76085  0.85786  1.0000
  H   H6038     1.0  0.97645  0.60949  0.62495  1.0000
  N   N334      1.0  0.97703  0.59026  0.61733  1.0000
  C   C5038     1.0  0.68731  0.68433  0.90416  1.0000
  C   C5039     1.0  0.82891  0.76743  0.53733  1.0000
  C   C5040     1.0  0.60831  0.76827  0.88638  1.0000
  H   H6039     1.0  0.96996  0.77958  0.59394  1.0000
  Fe  Fe678     1.0  0.50399  0.70104  0.91937  1.0000
  C   C5041     1.0  0.96090  0.72087  0.63084  1.0000
  C   C5042     1.0  0.58506  0.74643  0.81157  1.0000
  H   H6040     1.0  0.97243  0.65342  0.51671  1.0000
  H   H6041     1.0  0.93312  0.74472  0.48671  1.0000
  H   H6042     1.0  0.86607  0.73830  0.49572  1.0000
  H   H6043     1.0  0.90159  0.73663  0.48319  1.0000
  Fe  Fe679     1.0  0.70410  0.61193  0.96673  1.0000
  H   H6044     1.0  0.96021  0.77895  0.57602  1.0000
  H   H6045     1.0  0.61368  0.70924  0.84136  1.0000
  C   C5043     1.0  0.91090  0.59072  0.48719  1.0000
  S   S1356     1.0  0.72915  0.60395  0.96347  1.0000
  Fe  Fe680     1.0  0.98835  0.77117  0.62864  1.0000
  C   C5044     1.0  0.98632  0.75334  0.55705  1.0000
  C   C5045     1.0  0.64808  0.59306  0.96145  1.0000
  H   H6046     1.0  0.68841  0.77451  0.76857  1.0000
  H   H6047     1.0  0.65409  0.59314  0.96939  1.0000
  H   H6048     1.0  0.55114  0.62755  0.89157  1.0000
  H   H6049     1.0  0.95716  0.62965  0.50298  1.0000
  H   H6050     1.0  0.98398  0.68974  0.51265  1.0000
  S   S1357     1.0  0.66933  0.66328  0.95543  1.0000
  C   C5046     1.0  0.51877  0.75672  0.87490  1.0000
  H   H6051     1.0  0.65456  0.69112  0.96245  1.0000
  H   H6052     1.0  0.64278  0.77373  0.75568  1.0000
  C   C5047     1.0  0.85417  0.75513  0.50809  1.0000
  H   H6053     1.0  0.60631  0.78308  0.85985  1.0000
  H   H6054     1.0  0.96780  0.70170  0.58363  1.0000
  C   C5048     1.0  0.63473  0.58800  0.96632  1.0000
  C   C5049     1.0  0.55163  0.65300  0.93020  1.0000
  C   C5050     1.0  0.98960  0.59476  0.66991  1.0000
  H   H6055     1.0  0.57068  0.76137  0.79748  1.0000
  C   C5051     1.0  0.63296  0.77204  0.89523  1.0000
  C   C5052     1.0  0.92396  0.74999  0.49437  1.0000
  C   C5053     1.0  0.56541  0.66925  0.91006  1.0000
  H   H6056     1.0  0.93341  0.62682  0.51004  1.0000
  H   H6057     1.0  0.55056  0.68937  0.92591  1.0000
  C   C5054     1.0  0.90988  0.75707  0.49071  1.0000
  C   C5055     1.0  0.55028  0.67776  0.93188  1.0000
  C   C5056     1.0  0.92358  0.66042  0.51891  1.0000
  H   H6058     1.0  0.88351  0.76142  0.48138  1.0000
  H   H6059     1.0  0.53961  0.67806  0.94038  1.0000
  H   H6060     1.0  0.51371  0.77767  0.85013  1.0000
  C   C5057     1.0  0.53883  0.64672  0.93444  1.0000
  Fe  Fe681     1.0  0.67878  0.63905  0.96289  1.0000
  C   C5058     1.0  0.91507  0.75541  0.51872  1.0000
  H   H6061     1.0  0.95967  0.69836  0.63495  1.0000
  C   C5059     1.0  0.96966  0.65370  0.54429  1.0000
  C   C5060     1.0  0.98823  0.68576  0.52265  1.0000
  Fe  Fe682     1.0  0.95926  0.59594  0.53549  1.0000
  H   H6062     1.0  0.97645  0.68277  0.58806  1.0000
  C   C5061     1.0  0.51910  0.77712  0.70192  1.0000
  H   H6063     1.0  0.97830  0.61623  0.70990  1.0000
  H   H6064     1.0  0.60593  0.76457  0.94120  1.0000
  C   C5062     1.0  0.53877  0.67469  0.91408  1.0000
  H   H6065     1.0  0.94743  0.68876  0.62175  1.0000
  C   C5063     1.0  0.98393  0.67351  0.53363  1.0000
  H   H6066     1.0  0.86852  0.77741  0.62000  1.0000
  S   S1358     1.0  0.67331  0.75270  0.97498  1.0000
  H   H6067     1.0  0.95047  0.67133  0.52931  1.0000
  C   C5064     1.0  0.96904  0.72042  0.60087  1.0000
  C   C5065     1.0  0.66578  0.70052  0.89515  1.0000
  C   C5066     1.0  0.56477  0.62971  0.94384  1.0000
  H   H6068     1.0  0.91331  0.65772  0.52702  1.0000
  C   C5067     1.0  0.67476  0.69638  0.90577  1.0000
  C   C5068     1.0  0.96209  0.70789  0.62639  1.0000
  C   C5069     1.0  0.98180  0.62307  0.57263  1.0000
  H   H6069     1.0  0.62477  0.72109  0.81861  1.0000
  H   H6070     1.0  0.52836  0.65274  0.93137  1.0000
  H   H6071     1.0  0.83362  0.76186  0.54734  1.0000
  C   C5070     1.0  0.65665  0.70071  0.92810  1.0000
  N   N335      1.0  0.92973  0.65038  0.50843  1.0000
  C   C5071     1.0  0.96481  0.59838  0.60947  1.0000
  C   C5072     1.0  0.91934  0.65364  0.49849  1.0000
  C   C5073     1.0  0.93019  0.63496  0.51721  1.0000
  C   C5074     1.0  0.94456  0.65282  0.49949  1.0000
  C   C5075     1.0  0.94637  0.66730  0.49185  1.0000
  C   C5076     1.0  0.95741  0.64109  0.49777  1.0000
  H   H6072     1.0  0.82461  0.75914  0.53465  1.0000
  Fe  Fe683     1.0  0.49663  0.67482  0.91370  1.0000
  C   C5077     1.0  0.99113  0.73892  0.56484  1.0000
  H   H6073     1.0  0.62418  0.76787  0.90380  1.0000
  H   H6074     1.0  0.64459  0.77181  0.91158  1.0000
  H   H6075     1.0  0.51262  0.76661  0.72476  1.0000
  H   H6076     1.0  0.56974  0.76831  0.71099  1.0000
  S   S1359     1.0  0.96358  0.77601  0.63861  1.0000
  H   H6077     1.0  0.95365  0.67964  0.60659  1.0000
  H   H6078     1.0  0.93815  0.63173  0.52465  1.0000
  H   H6079     1.0  0.91912  0.63360  0.52450  1.0000
  H   H6080     1.0  0.64742  0.70365  0.92221  1.0000
  H   H6081     1.0  0.98641  0.77643  0.55379  1.0000
  N   N336      1.0  0.62145  0.77165  0.87453  1.0000
  C   C5078     1.0  0.54428  0.76158  0.86489  1.0000
  H   H6082     1.0  0.88396  0.72609  0.51197  1.0000
  S   S1360     1.0  0.95129  0.60154  0.57582  1.0000
  H   H6083     1.0  0.54761  0.60585  0.92942  1.0000
  H   H6084     1.0  0.69751  0.66147  0.96276  1.0000
  N   N337      1.0  0.55146  0.66838  0.92164  1.0000
  Fe  Fe684     1.0  0.97316  0.59793  0.55956  1.0000
  H   H6085     1.0  0.60123  0.70490  0.83315  1.0000
  H   H6086     1.0  0.55236  0.61269  0.95430  1.0000
  H   H6087     1.0  0.55445  0.77255  0.73545  1.0000
  Fe  Fe685     1.0  0.67259  0.72981  0.97434  1.0000
  H   H6088     1.0  0.59632  0.78176  0.75465  1.0000
  C   C5079     1.0  0.50485  0.75535  0.87349  1.0000
  C   C5080     1.0  0.51027  0.74881  0.90178  1.0000
  H   H6089     1.0  0.65575  0.70919  0.89591  1.0000
  H   H6090     1.0  0.98811  0.68358  0.61496  1.0000
  H   H6091     1.0  0.53954  0.68571  0.90669  1.0000
  S   S1361     1.0  0.96496  0.61469  0.54069  1.0000
  C   C5081     1.0  0.87400  0.74098  0.52679  1.0000
  H   H6092     1.0  0.95781  0.72105  0.64249  1.0000
  H   H6093     1.0  0.56479  0.68034  0.90239  1.0000
  S   S1362     1.0  0.69085  0.70916  0.97561  1.0000
  C   C5082     1.0  0.56152  0.73193  0.82414  1.0000
  H   H6094     1.0  0.65814  0.68871  0.93336  1.0000
  H   H6095     1.0  0.93736  0.74396  0.51064  1.0000
  H   H6096     1.0  0.55255  0.76517  0.85472  1.0000
  C   C5083     1.0  0.86536  0.74272  0.50510  1.0000
  N   N338      1.0  0.64869  0.64882  0.92588  1.0000
  C   C5084     1.0  0.63992  0.63958  0.93840  1.0000
  C   C5085     1.0  0.66448  0.64415  0.92723  1.0000
  C   C5086     1.0  0.64286  0.66437  0.92760  1.0000
  C   C5087     1.0  0.64787  0.64757  0.91120  1.0000
  C   C5088     1.0  0.64083  0.63724  0.90936  1.0000
  C   C5089     1.0  0.65459  0.65664  0.89813  1.0000
  C   C5090     1.0  0.63981  0.63675  0.89535  1.0000
  C   C5091     1.0  0.65347  0.65610  0.88418  1.0000
  C   C5092     1.0  0.64595  0.64629  0.88281  1.0000
  H   H6097     1.0  0.64442  0.62760  0.93862  1.0000
  H   H6098     1.0  0.64029  0.64110  0.94928  1.0000
  H   H6099     1.0  0.62793  0.64243  0.93781  1.0000
  H   H6100     1.0  0.66946  0.63271  0.92545  1.0000
  H   H6101     1.0  0.66554  0.64427  0.93836  1.0000
  H   H6102     1.0  0.67152  0.65151  0.91909  1.0000
  H   H6103     1.0  0.63115  0.66846  0.92610  1.0000
  H   H6104     1.0  0.64292  0.66545  0.93876  1.0000
  H   H6105     1.0  0.64963  0.67201  0.91958  1.0000
  H   H6106     1.0  0.63568  0.62964  0.91858  1.0000
  H   H6107     1.0  0.66053  0.66439  0.89864  1.0000
  H   H6108     1.0  0.63391  0.62913  0.89428  1.0000
  H   H6109     1.0  0.65823  0.66350  0.87436  1.0000
  H   H6110     1.0  0.64485  0.64611  0.87200  1.0000
  C   C5093     1.0  0.96651  0.70717  0.61125  1.0000
  C   C5094     1.0  0.97747  0.68074  0.61542  1.0000
  C   C5095     1.0  0.97493  0.69361  0.59091  1.0000
  H   H6111     1.0  0.70056  0.66826  0.89126  1.0000
  H   H6112     1.0  0.50225  0.75758  0.86276  1.0000
  H   H6113     1.0  0.97853  0.60141  0.67309  1.0000
  H   H6114     1.0  0.98028  0.67042  0.61123  1.0000
  H   H6115     1.0  0.97196  0.67773  0.62727  1.0000
  H   H6116     1.0  0.57485  0.62310  0.94752  1.0000
  C   C5096     1.0  0.95302  0.69004  0.60986  1.0000
  H   H6117     1.0  0.56019  0.76775  0.82909  1.0000
  H   H6118     1.0  0.52791  0.67667  0.92207  1.0000
  N   N339      1.0  0.96801  0.69321  0.60682  1.0000
  H   H6119     1.0  0.98180  0.66829  0.50802  1.0000
  H   H6120     1.0  0.50842  0.58634  0.90282  1.0000
  H   H6121     1.0  0.88157  0.73536  0.53417  1.0000
  N   N340      1.0  0.67070  0.70415  0.91805  1.0000
  H   H6122     1.0  0.94558  0.69912  0.60351  1.0000
  C   C5097     1.0  0.62705  0.58762  0.95607  1.0000
  N   N341      1.0  0.54278  0.60966  0.90797  1.0000
  C   C5098     1.0  0.54707  0.62420  0.90373  1.0000
  C   C5099     1.0  0.53855  0.60571  0.92434  1.0000
  C   C5100     1.0  0.55617  0.59858  0.90286  1.0000
  C   C5101     1.0  0.53034  0.60961  0.90167  1.0000
  C   C5102     1.0  0.52463  0.59667  0.90521  1.0000
  C   C5103     1.0  0.52359  0.62213  0.89193  1.0000
  H   H6123     1.0  0.58930  0.78150  0.92507  1.0000
  C   C5104     1.0  0.51178  0.62163  0.88632  1.0000
  C   C5105     1.0  0.50636  0.60877  0.89019  1.0000
  H   H6124     1.0  0.53753  0.63302  0.90752  1.0000
  H   H6125     1.0  0.54262  0.75435  0.84157  1.0000
  H   H6126     1.0  0.74626  0.77568  0.53963  1.0000
  C   C5106     1.0  0.95918  0.67674  0.52965  1.0000
  H   H6127     1.0  0.56790  0.66082  0.90335  1.0000
  C   C5107     1.0  0.52054  0.77250  0.71656  1.0000
  S   S1363     1.0  0.62618  0.77121  0.82874  1.0000
  H   H6128     1.0  0.64671  0.78155  0.85803  1.0000
  S   S1364     1.0  0.66463  0.77447  0.93412  1.0000
  H   H6129     1.0  0.95953  0.59084  0.60680  1.0000
  H   H6130     1.0  0.52687  0.63260  0.88885  1.0000
  C   C5108     1.0  0.50175  0.72214  0.86268  1.0000
  H   H6131     1.0  0.50641  0.63146  0.87938  1.0000
  H   H6132     1.0  0.96438  0.65783  0.55463  1.0000
  H   H6133     1.0  0.91036  0.76160  0.60273  1.0000
  H   H6134     1.0  0.99380  0.58694  0.59752  1.0000
  C   C5109     1.0  0.53914  0.63237  0.94307  1.0000
  H   H6135     1.0  0.67838  0.72339  0.90389  1.0000
  H   H6136     1.0  0.92382  0.64681  0.48999  1.0000
  Fe  Fe686     1.0  0.63498  0.76683  0.80598  1.0000
  C   C5110     1.0  0.63310  0.77470  0.87995  1.0000
  C   C5111     1.0  0.50673  0.73842  0.83839  1.0000
  C   C5112     1.0  0.52117  0.75329  0.88949  1.0000
  H   H6137     1.0  0.68386  0.68802  0.93272  1.0000
  H   H6138     1.0  0.67905  0.70620  0.93586  1.0000
  H   H6139     1.0  0.55963  0.67371  0.93776  1.0000
  H   H6140     1.0  0.81916  0.77639  0.54045  1.0000
  H   H6141     1.0  0.55437  0.58710  0.90687  1.0000
  H   H6142     1.0  0.84680  0.75988  0.50046  1.0000
  N   N342      1.0  0.97338  0.66594  0.53161  1.0000
  H   H6143     1.0  0.55946  0.60085  0.89057  1.0000
  C   C5113     1.0  0.91922  0.77438  0.61125  1.0000
  C   C5114     1.0  0.87535  0.73575  0.51432  1.0000
  C   C5115     1.0  0.96791  0.73332  0.60542  1.0000
  C   C5116     1.0  0.66837  0.72042  0.91221  1.0000
  H   H6144     1.0  0.52918  0.62792  0.94632  1.0000
  H   H6145     1.0  0.59363  0.75274  0.80669  1.0000
  C   C5117     1.0  0.61410  0.72695  0.81514  1.0000
  H   H6146     1.0  0.69461  0.68011  0.91185  1.0000
  H   H6147     1.0  0.82619  0.77524  0.50978  1.0000
  C   C5118     1.0  0.88516  0.76599  0.59624  1.0000
  H   H6148     1.0  0.53641  0.59438  0.92866  1.0000
  C   C5119     1.0  0.85252  0.76081  0.52069  1.0000
  C   C5120     1.0  0.56448  0.64415  0.93547  1.0000
  H   H6149     1.0  0.59422  0.71353  0.84886  1.0000
  H   H6150     1.0  0.96153  0.64834  0.54262  1.0000
  C   C5121     1.0  0.68226  0.69990  0.92696  1.0000
  H   H6151     1.0  0.98612  0.69635  0.58776  1.0000
  C   C5122     1.0  0.93514  0.70772  0.48571  1.0000
  C   C5123     1.0  0.97255  0.65823  0.48178  1.0000
  C   C5124     1.0  0.96398  0.73351  0.62038  1.0000
  H   H6152     1.0  0.61246  0.72069  0.80786  1.0000
  H   H6153     1.0  0.57523  0.66766  0.91479  1.0000
  H   H6154     1.0  0.57486  0.71722  0.83867  1.0000
  C   C5125     1.0  0.55213  0.62383  0.94765  1.0000
  H   H6155     1.0  0.96334  0.74345  0.62390  1.0000
  C   C5126     1.0  0.98669  0.60660  0.70622  1.0000
  H   H6156     1.0  0.65861  0.72500  0.90694  1.0000
  H   H6157     1.0  0.66606  0.72648  0.92117  1.0000
  C   C5127     1.0  0.90104  0.76221  0.51564  1.0000
  H   H6158     1.0  0.97023  0.74319  0.59726  1.0000
  H   H6159     1.0  0.63292  0.77420  0.73444  1.0000
  Fe  Fe687     1.0  0.51127  0.76642  0.80827  1.0000
  H   H6160     1.0  0.89551  0.76307  0.58782  1.0000
  C   C5128     1.0  0.65390  0.59742  0.94632  1.0000
  H   H6161     1.0  0.65275  0.70691  0.93713  1.0000
  S   S1365     1.0  0.63733  0.76206  0.97308  1.0000
  H   H6162     1.0  0.97976  0.64482  0.54604  1.0000
  H   H6163     1.0  0.53212  0.77206  0.73239  1.0000
  Fe  Fe688     1.0  0.59418  0.59027  0.91492  1.0000
  C   C5129     1.0  0.52373  0.77697  0.85420  1.0000
  H   H6164     1.0  0.91710  0.75474  0.52939  1.0000
  C   C5130     1.0  0.64459  0.77432  0.89990  1.0000
  H   H6165     1.0  0.65033  0.60111  0.92441  1.0000
  H   H6166     1.0  0.88255  0.59669  0.50172  1.0000
  S   S1366     1.0  0.61301  0.77615  0.79933  1.0000
  H   H6167     1.0  0.51015  0.77479  0.69870  1.0000
  C   C5131     1.0  0.53184  0.77582  0.72082  1.0000
  C   C5132     1.0  0.62806  0.75876  0.86751  1.0000
  H   H6168     1.0  0.54268  0.76931  0.87211  1.0000
  H   H6169     1.0  0.91730  0.66546  0.49255  1.0000
  H   H6170     1.0  0.62823  0.77178  0.94278  1.0000
  H   H6171     1.0  0.98380  0.59633  0.71396  1.0000
  S   S1367     1.0  0.62254  0.72769  0.97074  1.0000
  S   S1368     1.0  0.66135  0.62553  0.97046  1.0000
  C   C5133     1.0  0.55948  0.77921  0.82353  1.0000
  H   H6172     1.0  0.97735  0.59114  0.64626  1.0000
  C   C5134     1.0  0.83260  0.78181  0.51243  1.0000
  H   H6173     1.0  0.98879  0.60805  0.60755  1.0000
  H   H6174     1.0  0.53196  0.78131  0.84440  1.0000
  H   H6175     1.0  0.88721  0.76839  0.50029  1.0000
  C   C5135     1.0  0.65687  0.78236  0.87459  1.0000
  H   H6176     1.0  0.52915  0.58677  0.91254  1.0000
  H   H6177     1.0  0.87583  0.76485  0.59213  1.0000
  C   C5136     1.0  0.88600  0.58640  0.49744  1.0000
  H   H6178     1.0  0.54059  0.78077  0.81469  1.0000
  C   C5137     1.0  0.56858  0.78053  0.70756  1.0000
  C   C5138     1.0  0.65645  0.77954  0.88962  1.0000
  Fe  Fe689     1.0  0.83489  0.78093  0.57438  1.0000
  H   H6179     1.0  0.76119  0.77967  0.57116  1.0000
  C   C5139     1.0  0.96325  0.58707  0.48756  1.0000
  H   H6180     1.0  0.76017  0.77638  0.48746  1.0000
  H   H6181     1.0  0.94266  0.77420  0.56469  1.0000
  H   H6182     1.0  0.66546  0.78118  0.89333  1.0000
  H   H6183     1.0  0.60304  0.77745  0.89231  1.0000
  N   N343      1.0  0.88295  0.78119  0.59837  1.0000
  S   S1369     1.0  0.49625  0.68109  0.93442  1.0000
  H   H6184     1.0  0.85908  0.78258  0.60496  1.0000
  S   S1370     1.0  0.99448  0.59583  0.56601  1.0000
  C   C5140     1.0  0.89493  0.78316  0.60412  1.0000
  H   H6185     1.0  0.99416  0.59607  0.62385  1.0000
  H   H6186     1.0  0.94861  0.84359  0.37820  1.0000
  C   C5141     1.0  0.52153  0.93592  0.34901  1.0000
  Fe  Fe690     1.0  0.67675  0.85816  0.17690  1.0000
  C   C5142     1.0  0.52930  0.94491  0.35160  1.0000
  S   S1371     1.0  0.66422  0.88073  0.18078  1.0000
  S   S1372     1.0  0.69356  0.84675  0.19077  1.0000
  Fe  Fe691     1.0  0.75153  0.83706  0.26634  1.0000
  S   S1373     1.0  0.72692  0.84193  0.27576  1.0000
  S   S1374     1.0  0.76510  0.82748  0.28377  1.0000
  Fe  Fe692     1.0  0.74735  0.84577  0.23471  1.0000
  S   S1375     1.0  0.72238  0.85163  0.24151  1.0000
  S   S1376     1.0  0.75940  0.84878  0.21087  1.0000
  Fe  Fe693     1.0  0.72637  0.86215  0.25758  1.0000
  S   S1377     1.0  0.71182  0.88338  0.26288  1.0000
  Fe  Fe694     1.0  0.72541  0.83086  0.25898  1.0000
  S   S1378     1.0  0.75118  0.85832  0.24918  1.0000
  Fe  Fe695     1.0  0.79354  0.86545  0.32434  1.0000
  S   S1379     1.0  0.77097  0.87285  0.33811  1.0000
  S   S1380     1.0  0.79398  0.87073  0.30004  1.0000
  Fe  Fe696     1.0  0.80795  0.85322  0.35102  1.0000
  S   S1381     1.0  0.78639  0.85954  0.36687  1.0000
  S   S1382     1.0  0.82739  0.83973  0.36138  1.0000
  Fe  Fe697     1.0  0.77622  0.85108  0.35355  1.0000
  S   S1383     1.0  0.75907  0.83720  0.36207  1.0000
  Fe  Fe698     1.0  0.78313  0.88073  0.34998  1.0000
  S   S1384     1.0  0.77220  0.90262  0.35608  1.0000
  S   S1385     1.0  0.79802  0.84286  0.33901  1.0000
  S   S1386     1.0  0.80553  0.87529  0.33490  1.0000
  C   C5143     1.0  0.62996  0.80594  0.15954  1.0000
  C   C5144     1.0  0.50867  0.95068  0.30283  1.0000
  Fe  Fe699     1.0  0.82089  0.81987  0.45706  1.0000
  S   S1387     1.0  0.83139  0.80408  0.44205  1.0000
  S   S1388     1.0  0.82371  0.84314  0.45014  1.0000
  Fe  Fe700     1.0  0.80864  0.79898  0.44817  1.0000
  S   S1389     1.0  0.79655  0.80105  0.43067  1.0000
  H   H6187     1.0  0.70748  0.80169  0.29782  1.0000
  H   H6188     1.0  0.59043  0.81241  0.29119  1.0000
  S   S1390     1.0  0.79794  0.81626  0.46143  1.0000
  C   C5145     1.0  0.52196  0.95896  0.35423  1.0000
  H   H6189     1.0  0.94420  0.80298  0.41882  1.0000
  S   S1391     1.0  0.71677  0.81112  0.45850  1.0000
  C   C5146     1.0  0.71603  0.80386  0.30226  1.0000
  H   H6190     1.0  0.60800  0.79353  0.34603  1.0000
  S   S1392     1.0  0.68583  0.82503  0.44631  1.0000
  Fe  Fe701     1.0  0.71041  0.82372  0.43709  1.0000
  S   S1393     1.0  0.72096  0.84326  0.42574  1.0000
  Fe  Fe702     1.0  0.69272  0.81050  0.46703  1.0000
  C   C5147     1.0  0.62525  0.79320  0.16064  1.0000
  H   H6191     1.0  0.71655  0.98333  0.22473  1.0000
  Fe  Fe703     1.0  0.88295  0.86802  0.38643  1.0000
  S   S1394     1.0  0.88522  0.87791  0.40389  1.0000
  S   S1395     1.0  0.86217  0.87795  0.37728  1.0000
  Fe  Fe704     1.0  0.91404  0.84772  0.38510  1.0000
  S   S1396     1.0  0.91922  0.85660  0.40171  1.0000
  Fe  Fe705     1.0  0.89601  0.85477  0.41397  1.0000
  S   S1397     1.0  0.89228  0.84141  0.43718  1.0000
  Fe  Fe706     1.0  0.90815  0.87904  0.39002  1.0000
  S   S1398     1.0  0.91648  0.90024  0.38393  1.0000
  S   S1399     1.0  0.89122  0.84483  0.39800  1.0000
  S   S1400     1.0  0.90540  0.87028  0.37186  1.0000
  Fe  Fe707     1.0  0.73739  0.96245  0.30112  1.0000
  S   S1401     1.0  0.72779  0.94370  0.31653  1.0000
  H   H6192     1.0  0.52375  0.81055  0.28958  1.0000
  Fe  Fe708     1.0  0.71975  0.96565  0.27818  1.0000
  S   S1402     1.0  0.70861  0.94720  0.29175  1.0000
  H   H6193     1.0  0.65551  0.79558  0.47440  1.0000
  S   S1403     1.0  0.50416  0.96968  0.20117  1.0000
  H   H6194     1.0  0.52597  0.78419  0.29567  1.0000
  Fe  Fe709     1.0  0.73111  0.93520  0.29628  1.0000
  S   S1404     1.0  0.74161  0.91121  0.29613  1.0000
  H   H6195     1.0  0.70279  0.78917  0.22904  1.0000
  S   S1405     1.0  0.74265  0.95283  0.28114  1.0000
  C   C5148     1.0  0.62929  0.81592  0.24077  1.0000
  C   C5149     1.0  0.73780  0.84021  0.20334  1.0000
  Fe  Fe710     1.0  0.69309  0.95064  0.16747  1.0000
  S   S1406     1.0  0.71132  0.95249  0.17683  1.0000
  S   S1407     1.0  0.69895  0.93282  0.15448  1.0000
  H   H6196     1.0  0.66126  0.84136  0.10911  1.0000
  C   C5150     1.0  0.52388  0.97514  0.21346  1.0000
  H   H6197     1.0  0.64796  0.80016  0.45829  1.0000
  H   H6198     1.0  0.73184  0.79697  0.19625  1.0000
  H   H6199     1.0  0.88970  0.97811  0.34880  1.0000
  Fe  Fe711     1.0  0.69344  0.95590  0.19698  1.0000
  S   S1408     1.0  0.69575  0.94419  0.22009  1.0000
  C   C5151     1.0  0.51329  0.81112  0.29834  1.0000
  S   S1409     1.0  0.67572  0.95193  0.18849  1.0000
  H   H6200     1.0  0.78877  0.97113  0.45167  1.0000
  C   C5152     1.0  0.62987  0.79904  0.18606  1.0000
  N   N344      1.0  0.50952  0.96648  0.29749  1.0000
  H   H6201     1.0  0.60859  0.83558  0.31241  1.0000
  H   H6202     1.0  0.82921  0.85056  0.41770  1.0000
  C   C5153     1.0  0.82838  0.85852  0.40698  1.0000
  H   H6203     1.0  0.63096  0.82518  0.29687  1.0000
  H   H6204     1.0  0.74128  0.82554  0.44854  1.0000
  H   H6205     1.0  0.52086  0.95979  0.32225  1.0000
  C   C5154     1.0  0.70671  0.97160  0.39739  1.0000
  N   N345      1.0  0.50485  0.80021  0.29879  1.0000
  H   H6206     1.0  0.78095  0.82855  0.38814  1.0000
  H   H6207     1.0  0.57056  0.80923  0.31340  1.0000
  H   H6208     1.0  0.81897  0.92996  0.33395  1.0000
  C   C5155     1.0  0.81147  0.92838  0.32822  1.0000
  C   C5156     1.0  0.79182  0.82259  0.39116  1.0000
  C   C5157     1.0  0.93750  0.79475  0.47281  1.0000
  H   H6209     1.0  0.50928  0.94640  0.31465  1.0000
  C   C5158     1.0  0.76163  0.91750  0.25976  1.0000
  C   C5159     1.0  0.62849  0.79156  0.21312  1.0000
  C   C5160     1.0  0.71002  0.96894  0.24577  1.0000
  C   C5161     1.0  0.70371  0.95669  0.25303  1.0000
  C   C5162     1.0  0.69895  0.94946  0.24509  1.0000
  C   C5163     1.0  0.70057  0.95435  0.22980  1.0000
  C   C5164     1.0  0.70686  0.96662  0.22244  1.0000
  C   C5165     1.0  0.77970  0.85252  0.47136  1.0000
  H   H6210     1.0  0.70220  0.95289  0.26480  1.0000
  H   H6211     1.0  0.69404  0.94000  0.25084  1.0000
  H   H6212     1.0  0.70844  0.97024  0.21057  1.0000
  H   H6213     1.0  0.52403  0.79551  0.27253  1.0000
  H   H6214     1.0  0.70430  0.80633  0.04973  1.0000
  H   H6215     1.0  0.70973  0.81994  0.21891  1.0000
  C   C5166     1.0  0.75948  0.84480  0.18405  1.0000
  H   H6216     1.0  0.69692  0.84442  0.26897  1.0000
  H   H6217     1.0  0.79016  0.87990  0.39313  1.0000
  H   H6218     1.0  0.54106  0.94089  0.35166  1.0000
  H   H6219     1.0  0.50470  0.97686  0.46748  1.0000
  Fe  Fe712     1.0  0.88668  0.97278  0.41582  1.0000
  H   H6220     1.0  0.74526  0.80592  0.23178  1.0000
  H   H6221     1.0  0.89377  0.90036  0.41120  1.0000
  H   H6222     1.0  0.61399  0.80622  0.27895  1.0000
  H   H6223     1.0  0.71566  0.95910  0.13527  1.0000
  C   C5167     1.0  0.96998  0.81374  0.35001  1.0000
  C   C5168     1.0  0.64184  0.83019  0.44384  1.0000
  H   H6224     1.0  0.65786  0.81007  0.13528  1.0000
  C   C5169     1.0  0.84257  0.84294  0.44772  1.0000
  C   C5170     1.0  0.85232  0.83019  0.45356  1.0000
  C   C5171     1.0  0.86752  0.83000  0.45113  1.0000
  C   C5172     1.0  0.87304  0.84237  0.44240  1.0000
  C   C5173     1.0  0.86326  0.85511  0.43664  1.0000
  C   C5174     1.0  0.84801  0.85547  0.43945  1.0000
  H   H6225     1.0  0.84816  0.82049  0.45996  1.0000
  H   H6226     1.0  0.87504  0.82015  0.45564  1.0000
  H   H6227     1.0  0.86743  0.86476  0.43014  1.0000
  H   H6228     1.0  0.84050  0.86537  0.43501  1.0000
  C   C5175     1.0  0.71536  0.96740  0.12504  1.0000
  C   C5176     1.0  0.50671  0.96411  0.35409  1.0000
  H   H6229     1.0  0.82445  0.90696  0.32499  1.0000
  C   C5177     1.0  0.74804  0.83256  0.44991  1.0000
  C   C5178     1.0  0.70372  0.79324  0.32655  1.0000
  C   C5179     1.0  0.76751  0.80118  0.43253  1.0000
  C   C5180     1.0  0.49729  0.97526  0.30697  1.0000
  C   C5181     1.0  0.68302  0.98152  0.36170  1.0000
  H   H6230     1.0  0.56203  0.97350  0.30214  1.0000
  H   H6231     1.0  0.76735  0.81144  0.42431  1.0000
  C   C5182     1.0  0.78476  0.91047  0.35987  1.0000
  C   C5183     1.0  0.79915  0.90230  0.36114  1.0000
  C   C5184     1.0  0.80894  0.90872  0.36445  1.0000
  C   C5185     1.0  0.80435  0.92319  0.36662  1.0000
  C   C5186     1.0  0.79007  0.93142  0.36505  1.0000
  C   C5187     1.0  0.78026  0.92505  0.36177  1.0000
  H   H6232     1.0  0.80270  0.89106  0.35962  1.0000
  H   H6233     1.0  0.82005  0.90250  0.36542  1.0000
  S   S1410     1.0  0.92786  0.82634  0.37897  1.0000
  H   H6234     1.0  0.76925  0.93151  0.36055  1.0000
  C   C5188     1.0  0.85412  0.86680  0.37155  1.0000
  C   C5189     1.0  0.85725  0.85137  0.37625  1.0000
  C   C5190     1.0  0.84926  0.84305  0.37277  1.0000
  C   C5191     1.0  0.83811  0.85014  0.36468  1.0000
  C   C5192     1.0  0.83535  0.86550  0.35965  1.0000
  C   C5193     1.0  0.84344  0.87376  0.36297  1.0000
  H   H6235     1.0  0.86553  0.84592  0.38283  1.0000
  H   H6236     1.0  0.85151  0.83114  0.37659  1.0000
  H   H6237     1.0  0.82696  0.87105  0.35324  1.0000
  H   H6238     1.0  0.84135  0.88562  0.35896  1.0000
  C   C5194     1.0  0.74759  0.84001  0.37915  1.0000
  C   C5195     1.0  0.73663  0.83178  0.38609  1.0000
  C   C5196     1.0  0.72802  0.83317  0.40019  1.0000
  C   C5197     1.0  0.73056  0.84253  0.40751  1.0000
  C   C5198     1.0  0.74112  0.85120  0.40032  1.0000
  C   C5199     1.0  0.74957  0.84999  0.38611  1.0000
  H   H6239     1.0  0.73487  0.82422  0.38065  1.0000
  H   H6240     1.0  0.71931  0.82713  0.40528  1.0000
  H   H6241     1.0  0.74283  0.85874  0.40580  1.0000
  H   H6242     1.0  0.75757  0.85678  0.38061  1.0000
  C   C5200     1.0  0.77353  0.83951  0.28773  1.0000
  C   C5201     1.0  0.77910  0.83512  0.30060  1.0000
  C   C5202     1.0  0.78533  0.84467  0.30441  1.0000
  C   C5203     1.0  0.78627  0.85861  0.29528  1.0000
  C   C5204     1.0  0.78087  0.86295  0.28230  1.0000
  C   C5205     1.0  0.77437  0.85349  0.27858  1.0000
  H   H6243     1.0  0.77868  0.82427  0.30764  1.0000
  H   H6244     1.0  0.78967  0.84109  0.31428  1.0000
  H   H6245     1.0  0.78162  0.87366  0.27517  1.0000
  H   H6246     1.0  0.77017  0.85696  0.26860  1.0000
  C   C5206     1.0  0.71976  0.89045  0.27300  1.0000
  C   C5207     1.0  0.73418  0.88384  0.27538  1.0000
  C   C5208     1.0  0.74085  0.89031  0.28242  1.0000
  C   C5209     1.0  0.73307  0.90331  0.28728  1.0000
  C   C5210     1.0  0.71848  0.90959  0.28536  1.0000
  C   C5211     1.0  0.71188  0.90327  0.27812  1.0000
  H   H6247     1.0  0.74029  0.87384  0.27169  1.0000
  H   H6248     1.0  0.75210  0.88530  0.28398  1.0000
  H   H6249     1.0  0.71213  0.91920  0.28958  1.0000
  H   H6250     1.0  0.70068  0.90838  0.27643  1.0000
  S   S1411     1.0  0.75014  0.82399  0.25103  1.0000
  C   C5212     1.0  0.67407  0.89501  0.17343  1.0000
  C   C5213     1.0  0.66897  0.90783  0.17911  1.0000
  C   C5214     1.0  0.67653  0.91945  0.17338  1.0000
  C   C5215     1.0  0.68907  0.91847  0.16171  1.0000
  C   C5216     1.0  0.69402  0.90572  0.15585  1.0000
  C   C5217     1.0  0.68671  0.89389  0.16187  1.0000
  H   H6251     1.0  0.65907  0.90884  0.18791  1.0000
  H   H6252     1.0  0.67238  0.92930  0.17775  1.0000
  H   H6253     1.0  0.70352  0.90496  0.14662  1.0000
  H   H6254     1.0  0.69058  0.88410  0.15730  1.0000
  C   C5218     1.0  0.75170  0.84408  0.19876  1.0000
  H   H6255     1.0  0.72122  0.83382  0.19675  1.0000
  C   C5219     1.0  0.93689  0.80641  0.46034  1.0000
  C   C5220     1.0  0.76072  0.83690  0.46700  1.0000
  S   S1412     1.0  0.69699  0.81677  0.17898  1.0000
  S   S1413     1.0  0.50228  0.82471  0.33298  1.0000
  N   N346      1.0  0.75142  0.82804  0.46485  1.0000
  H   H6256     1.0  0.90254  0.80749  0.39690  1.0000
  C   C5221     1.0  0.80142  0.86304  0.40956  1.0000
  C   C5222     1.0  0.89651  0.91109  0.40729  1.0000
  H   H6257     1.0  0.80114  0.88519  0.42146  1.0000
  H   H6258     1.0  0.77028  0.84769  0.18048  1.0000
  H   H6259     1.0  0.70925  0.79878  0.21089  1.0000
  C   C5223     1.0  0.90764  0.91379  0.39457  1.0000
  H   H6260     1.0  0.50502  0.78925  0.19829  1.0000
  C   C5224     1.0  0.59623  0.79490  0.35079  1.0000
  C   C5225     1.0  0.73638  0.80017  0.21611  1.0000
  H   H6261     1.0  0.73529  0.91811  0.21127  1.0000
  H   H6262     1.0  0.50101  0.97502  0.35599  1.0000
  C   C5226     1.0  0.73591  0.80985  0.31596  1.0000
  H   H6263     1.0  0.71955  0.81378  0.29441  1.0000
  C   C5227     1.0  0.69310  0.81322  0.13255  1.0000
  H   H6264     1.0  0.68345  0.81864  0.03911  1.0000
  H   H6265     1.0  0.75332  0.89260  0.17933  1.0000
  C   C5228     1.0  0.73701  0.82951  0.47582  1.0000
  C   C5229     1.0  0.71328  0.90884  0.19071  1.0000
  C   C5230     1.0  0.76712  0.97473  0.32615  1.0000
  C   C5231     1.0  0.74368  0.91319  0.21832  1.0000
  C   C5232     1.0  0.54172  0.96615  0.31356  1.0000
  H   H6266     1.0  0.77722  0.97522  0.31760  1.0000
  C   C5233     1.0  0.78053  0.79371  0.43771  1.0000
  H   H6267     1.0  0.72629  0.90599  0.24482  1.0000
  H   H6268     1.0  0.73090  0.84130  0.47467  1.0000
  H   H6269     1.0  0.75932  0.84266  0.16249  1.0000
  H   H6270     1.0  0.59894  0.83105  0.27130  1.0000
  H   H6271     1.0  0.51802  0.79905  0.24873  1.0000
  H   H6272     1.0  0.85249  0.97000  0.41039  1.0000
  C   C5234     1.0  0.79978  0.84971  0.42022  1.0000
  C   C5235     1.0  0.78809  0.84294  0.42185  1.0000
  C   C5236     1.0  0.77827  0.86289  0.40325  1.0000
  C   C5237     1.0  0.77738  0.84948  0.41334  1.0000
  H   H6273     1.0  0.80754  0.84436  0.42739  1.0000
  H   H6274     1.0  0.78737  0.83255  0.42981  1.0000
  H   H6275     1.0  0.76983  0.86804  0.39673  1.0000
  H   H6276     1.0  0.76836  0.84418  0.41456  1.0000
  C   C5238     1.0  0.95362  0.83195  0.38143  1.0000
  H   H6277     1.0  0.72222  0.92342  0.24987  1.0000
  H   H6278     1.0  0.49789  0.94897  0.30200  1.0000
  H   H6279     1.0  0.62021  0.84328  0.47418  1.0000
  C   C5239     1.0  0.67694  0.80332  0.11854  1.0000
  C   C5240     1.0  0.81315  0.80243  0.38908  1.0000
  Fe  Fe713     1.0  0.71902  0.79116  0.45008  1.0000
  C   C5241     1.0  0.65960  0.81597  0.22877  1.0000
  N   N347      1.0  0.73242  0.88968  0.17760  1.0000
  C   C5242     1.0  0.74847  0.88395  0.17802  1.0000
  C   C5243     1.0  0.72623  0.87759  0.17668  1.0000
  C   C5244     1.0  0.72539  0.88624  0.20537  1.0000
  C   C5245     1.0  0.97487  0.81251  0.38783  1.0000
  H   H6280     1.0  0.75043  0.87422  0.18716  1.0000
  H   H6281     1.0  0.75516  0.88012  0.16778  1.0000
  H   H6282     1.0  0.82975  0.85211  0.39856  1.0000
  H   H6283     1.0  0.72685  0.86832  0.18651  1.0000
  H   H6284     1.0  0.73236  0.87288  0.16680  1.0000
  H   H6285     1.0  0.71424  0.88157  0.17605  1.0000
  H   H6286     1.0  0.73257  0.87528  0.20671  1.0000
  H   H6287     1.0  0.71886  0.88444  0.22901  1.0000
  C   C5246     1.0  0.58810  0.78642  0.34790  1.0000
  S   S1414     1.0  0.78071  0.95479  0.39154  1.0000
  C   C5247     1.0  0.77999  0.93281  0.29283  1.0000
  C   C5248     1.0  0.66972  0.80930  0.13105  1.0000
  H   H6288     1.0  0.62525  0.80296  0.29215  1.0000
  H   H6289     1.0  0.83617  0.98031  0.44623  1.0000
  H   H6290     1.0  0.94628  0.79794  0.38789  1.0000
  H   H6291     1.0  0.82060  0.81027  0.38293  1.0000
  C   C5249     1.0  0.63232  0.80882  0.17200  1.0000
  H   H6292     1.0  0.72925  0.79328  0.24702  1.0000
  H   H6293     1.0  0.69942  0.81691  0.13797  1.0000
  C   C5250     1.0  0.78875  0.93708  0.31903  1.0000
  H   H6294     1.0  0.52863  0.85206  0.35365  1.0000
  S   S1415     1.0  0.61030  0.81573  0.24737  1.0000
  C   C5251     1.0  0.80468  0.91319  0.31609  1.0000
  N   N348      1.0  0.72205  0.79799  0.22645  1.0000
  H   H6295     1.0  0.50647  0.82263  0.29618  1.0000
  H   H6296     1.0  0.67141  0.81368  0.05644  1.0000
  H   H6297     1.0  0.77904  0.94586  0.31754  1.0000
  C   C5252     1.0  0.93712  0.83130  0.43585  1.0000
  H   H6298     1.0  0.81312  0.80068  0.40098  1.0000
  H   H6299     1.0  0.75504  0.80178  0.17986  1.0000
  C   C5253     1.0  0.68298  0.81328  0.28217  1.0000
  H   H6300     1.0  0.50647  0.85173  0.34642  1.0000
  H   H6301     1.0  0.62203  0.80782  0.47295  1.0000
  H   H6302     1.0  0.74331  0.90127  0.22225  1.0000
  S   S1416     1.0  0.49594  0.78504  0.35722  1.0000
  H   H6303     1.0  0.78116  0.88635  0.24758  1.0000
  H   H6304     1.0  0.69360  0.80210  0.06823  1.0000
  H   H6305     1.0  0.74478  0.80096  0.43358  1.0000
  C   C5254     1.0  0.49792  0.98259  0.22526  1.0000
  C   C5255     1.0  0.95232  0.80625  0.38688  1.0000
  S   S1417     1.0  0.75254  0.97974  0.36850  1.0000
  C   C5256     1.0  0.65205  0.80487  0.46529  1.0000
  H   H6306     1.0  0.75699  0.92136  0.31225  1.0000
  H   H6307     1.0  0.73097  0.97351  0.35672  1.0000
  C   C5257     1.0  0.50111  0.80306  0.28423  1.0000
  C   C5258     1.0  0.74296  0.81095  0.33777  1.0000
  H   H6308     1.0  0.76348  0.89495  0.23166  1.0000
  H   H6309     1.0  0.63169  0.81374  0.14900  1.0000
  C   C5259     1.0  0.74649  0.81115  0.32273  1.0000
  C   C5260     1.0  0.72388  0.89511  0.19114  1.0000
  C   C5261     1.0  0.73173  0.90128  0.16379  1.0000
  H   H6310     1.0  0.76097  0.92336  0.26806  1.0000
  C   C5262     1.0  0.68417  0.96609  0.34079  1.0000
  S   S1418     1.0  0.69531  0.78933  0.46029  1.0000
  C   C5263     1.0  0.75469  0.97212  0.32318  1.0000
  S   S1419     1.0  0.66837  0.82043  0.15459  1.0000
  C   C5264     1.0  0.68918  0.83736  0.27489  1.0000
  C   C5265     1.0  0.96050  0.80429  0.35238  1.0000
  H   H6311     1.0  0.67244  0.85474  0.28390  1.0000
  H   H6312     1.0  0.75840  0.83131  0.44112  1.0000
  S   S1420     1.0  0.69083  0.85001  0.15661  1.0000
  C   C5266     1.0  0.75329  0.84196  0.17388  1.0000
  C   C5267     1.0  0.66207  0.80341  0.39080  1.0000
  H   H6313     1.0  0.66032  0.97888  0.37020  1.0000
  C   C5268     1.0  0.77894  0.98124  0.43272  1.0000
  H   H6314     1.0  0.80280  0.80079  0.36620  1.0000
  Fe  Fe714     1.0  0.64763  0.79053  0.33634  1.0000
  C   C5269     1.0  0.79178  0.78443  0.40378  1.0000
  C   C5270     1.0  0.76594  0.84857  0.45575  1.0000
  C   C5271     1.0  0.76240  0.79325  0.39994  1.0000
  C   C5272     1.0  0.77544  0.85610  0.45791  1.0000
  C   C5273     1.0  0.52819  0.98022  0.22353  1.0000
  C   C5274     1.0  0.75357  0.97645  0.35115  1.0000
  C   C5275     1.0  0.63597  0.82994  0.45913  1.0000
  H   H6315     1.0  0.87344  0.79109  0.43736  1.0000
  C   C5276     1.0  0.72977  0.97158  0.40316  1.0000
  H   H6316     1.0  0.68250  0.97735  0.27006  1.0000
  H   H6317     1.0  0.76298  0.85200  0.44513  1.0000
  H   H6318     1.0  0.64194  0.84227  0.42140  1.0000
  H   H6319     1.0  0.77965  0.86466  0.44906  1.0000
  C   C5277     1.0  0.52002  0.86213  0.35228  1.0000
  N   N349      1.0  0.72508  0.92720  0.36416  1.0000
  C   C5278     1.0  0.73040  0.91497  0.37607  1.0000
  C   C5279     1.0  0.73707  0.93542  0.35642  1.0000
  C   C5280     1.0  0.71217  0.93755  0.37128  1.0000
  C   C5281     1.0  0.72147  0.92111  0.35345  1.0000
  C   C5282     1.0  0.73260  0.91082  0.34595  1.0000
  C   C5283     1.0  0.70727  0.92557  0.34962  1.0000
  C   C5284     1.0  0.72984  0.90568  0.33504  1.0000
  C   C5285     1.0  0.70460  0.92023  0.33878  1.0000
  C   C5286     1.0  0.71589  0.91045  0.33139  1.0000
  H   H6320     1.0  0.72199  0.90804  0.38163  1.0000
  H   H6321     1.0  0.74104  0.90751  0.37187  1.0000
  H   H6322     1.0  0.73271  0.91920  0.38461  1.0000
  H   H6323     1.0  0.74769  0.92814  0.35192  1.0000
  H   H6324     1.0  0.73980  0.94076  0.36386  1.0000
  H   H6325     1.0  0.73373  0.94423  0.34694  1.0000
  H   H6326     1.0  0.71516  0.94181  0.37940  1.0000
  H   H6327     1.0  0.70810  0.94746  0.36302  1.0000
  H   H6328     1.0  0.70271  0.93206  0.37738  1.0000
  H   H6329     1.0  0.74367  0.90698  0.34819  1.0000
  H   H6330     1.0  0.69811  0.93351  0.35448  1.0000
  H   H6331     1.0  0.73874  0.89832  0.32905  1.0000
  H   H6332     1.0  0.69384  0.92418  0.33570  1.0000
  H   H6333     1.0  0.71394  0.90691  0.32252  1.0000
  H   H6334     1.0  0.58856  0.83212  0.33399  1.0000
  H   H6335     1.0  0.77632  0.94436  0.29447  1.0000
  H   H6336     1.0  0.62330  0.79107  0.15096  1.0000
  C   C5287     1.0  0.79129  0.92387  0.31407  1.0000
  H   H6337     1.0  0.63483  0.83284  0.27750  1.0000
  C   C5288     1.0  0.84446  0.96276  0.41287  1.0000
  S   S1421     1.0  0.71577  0.97834  0.25563  1.0000
  C   C5289     1.0  0.50917  0.80201  0.25798  1.0000
  H   H6338     1.0  0.92637  0.81220  0.42819  1.0000
  S   S1422     1.0  0.64116  0.79329  0.35975  1.0000
  H   H6339     1.0  0.89266  0.80508  0.43708  1.0000
  H   H6340     1.0  0.56935  0.81922  0.33469  1.0000
  C   C5290     1.0  0.64719  0.80436  0.19702  1.0000
  H   H6341     1.0  0.86650  0.80625  0.42368  1.0000
  Fe  Fe715     1.0  0.50999  0.80206  0.34651  1.0000
  C   C5291     1.0  0.70725  0.96682  0.11538  1.0000
  H   H6342     1.0  0.77206  0.93142  0.28707  1.0000
  H   H6343     1.0  0.93739  0.82240  0.41257  1.0000
  C   C5292     1.0  0.79866  0.93922  0.32607  1.0000
  H   H6344     1.0  0.79462  0.90468  0.29558  1.0000
  S   S1423     1.0  0.67272  0.78861  0.04402  1.0000
  H   H6345     1.0  0.71219  0.80655  0.11562  1.0000
  H   H6346     1.0  0.79963  0.83023  0.38605  1.0000
  C   C5293     1.0  0.77251  0.80233  0.39242  1.0000
  H   H6347     1.0  0.75267  0.80522  0.46531  1.0000
  C   C5294     1.0  0.77246  0.90453  0.25851  1.0000
  C   C5295     1.0  0.69229  0.80220  0.11297  1.0000
  C   C5296     1.0  0.76062  0.80684  0.21106  1.0000
  H   H6348     1.0  0.94522  0.98191  0.36582  1.0000
  N   N350      1.0  0.81410  0.86985  0.40777  1.0000
  H   H6349     1.0  0.78838  0.81733  0.36687  1.0000
  N   N351      1.0  0.79780  0.80835  0.38634  1.0000
  H   H6350     1.0  0.83829  0.86354  0.40397  1.0000
  H   H6351     1.0  0.82632  0.88578  0.39228  1.0000
  S   S1424     1.0  0.73156  0.83548  0.16512  1.0000
  C   C5297     1.0  0.69626  0.97839  0.35123  1.0000
  C   C5298     1.0  0.57381  0.80646  0.36617  1.0000
  C   C5299     1.0  0.62122  0.81705  0.20142  1.0000
  S   S1425     1.0  0.67536  0.81063  0.36108  1.0000
  Fe  Fe716     1.0  0.69033  0.80381  0.43871  1.0000
  C   C5300     1.0  0.73927  0.83836  0.17833  1.0000
  N   N352      1.0  0.94529  0.81655  0.43269  1.0000
  H   H6352     1.0  0.73887  0.89713  0.15386  1.0000
  C   C5301     1.0  0.94577  0.82127  0.38269  1.0000
  H   H6353     1.0  0.86157  0.97921  0.37179  1.0000
  C   C5302     1.0  0.73166  0.83726  0.19313  1.0000
  Fe  Fe717     1.0  0.70677  0.83695  0.17145  1.0000
  H   H6354     1.0  0.93775  0.84025  0.42562  1.0000
  N   N353      1.0  0.67212  0.86223  0.23154  1.0000
  C   C5303     1.0  0.66716  0.86351  0.21790  1.0000
  C   C5304     1.0  0.68729  0.85245  0.23043  1.0000
  C   C5305     1.0  0.66175  0.85494  0.24419  1.0000
  C   C5306     1.0  0.67242  0.87669  0.23384  1.0000
  C   C5307     1.0  0.66831  0.89039  0.22390  1.0000
  C   C5308     1.0  0.67688  0.87737  0.24642  1.0000
  C   C5309     1.0  0.66840  0.90384  0.22665  1.0000
  C   C5310     1.0  0.67693  0.89089  0.24905  1.0000
  C   C5311     1.0  0.67256  0.90410  0.23926  1.0000
  H   H6355     1.0  0.67467  0.86865  0.20788  1.0000
  H   H6356     1.0  0.66724  0.85252  0.21629  1.0000
  H   H6357     1.0  0.65556  0.87024  0.21812  1.0000
  H   H6358     1.0  0.69559  0.85783  0.22150  1.0000
  H   H6359     1.0  0.68757  0.84175  0.22796  1.0000
  H   H6360     1.0  0.69120  0.84953  0.24090  1.0000
  H   H6361     1.0  0.65032  0.86217  0.24573  1.0000
  H   H6362     1.0  0.66090  0.84425  0.24254  1.0000
  H   H6363     1.0  0.66542  0.85229  0.25476  1.0000
  H   H6364     1.0  0.66494  0.89108  0.21389  1.0000
  H   H6365     1.0  0.68033  0.86746  0.25438  1.0000
  H   H6366     1.0  0.66524  0.91415  0.21893  1.0000
  H   H6367     1.0  0.68042  0.89111  0.25874  1.0000
  H   H6368     1.0  0.67261  0.91458  0.24133  1.0000
  N   N354      1.0  0.86363  0.92206  0.37404  1.0000
  C   C5312     1.0  0.86034  0.92066  0.36041  1.0000
  C   C5313     1.0  0.87837  0.91198  0.37553  1.0000
  C   C5314     1.0  0.85220  0.91684  0.38692  1.0000
  C   C5315     1.0  0.86321  0.93768  0.37348  1.0000
  C   C5316     1.0  0.85123  0.94924  0.36912  1.0000
  C   C5317     1.0  0.87411  0.94182  0.37799  1.0000
  C   C5318     1.0  0.85076  0.96405  0.36840  1.0000
  C   C5319     1.0  0.87341  0.95663  0.37746  1.0000
  C   C5320     1.0  0.57894  0.81505  0.31289  1.0000
  H   H6369     1.0  0.86782  0.92575  0.35035  1.0000
  H   H6370     1.0  0.86180  0.90886  0.36011  1.0000
  H   H6371     1.0  0.84857  0.92580  0.35954  1.0000
  H   H6372     1.0  0.88766  0.91592  0.36674  1.0000
  H   H6373     1.0  0.87882  0.90056  0.37473  1.0000
  H   H6374     1.0  0.88082  0.91068  0.38646  1.0000
  H   H6375     1.0  0.84078  0.92360  0.38619  1.0000
  H   H6376     1.0  0.85196  0.90516  0.38770  1.0000
  H   H6377     1.0  0.85442  0.91740  0.39742  1.0000
  H   H6378     1.0  0.84205  0.94694  0.36631  1.0000
  H   H6379     1.0  0.88330  0.93379  0.38202  1.0000
  H   H6380     1.0  0.77613  0.97923  0.34205  1.0000
  H   H6381     1.0  0.68594  0.80169  0.28180  1.0000
  S   S1426     1.0  0.49747  0.92924  0.34497  1.0000
  N   N355      1.0  0.68779  0.82483  0.05716  1.0000
  C   C5321     1.0  0.69894  0.81072  0.05992  1.0000
  C   C5322     1.0  0.67742  0.82247  0.04952  1.0000
  C   C5323     1.0  0.69562  0.83629  0.04693  1.0000
  C   C5324     1.0  0.68021  0.82951  0.07129  1.0000
  C   C5325     1.0  0.66448  0.83172  0.07685  1.0000
  C   C5326     1.0  0.68865  0.83202  0.07996  1.0000
  C   C5327     1.0  0.65777  0.83601  0.09031  1.0000
  C   C5328     1.0  0.68182  0.83639  0.09335  1.0000
  C   C5329     1.0  0.66642  0.83833  0.09854  1.0000
  H   H6382     1.0  0.77366  0.80826  0.18882  1.0000
  H   H6383     1.0  0.92979  0.81692  0.46220  1.0000
  H   H6384     1.0  0.74181  0.96819  0.40067  1.0000
  H   H6385     1.0  0.87234  0.78816  0.42002  1.0000
  C   C5330     1.0  0.91765  0.78510  0.41635  1.0000
  H   H6386     1.0  0.66906  0.83279  0.04646  1.0000
  H   H6387     1.0  0.70461  0.83774  0.05126  1.0000
  H   H6388     1.0  0.70104  0.83338  0.03599  1.0000
  H   H6389     1.0  0.68768  0.84723  0.04504  1.0000
  H   H6390     1.0  0.65710  0.82995  0.07117  1.0000
  H   H6391     1.0  0.70069  0.83023  0.07668  1.0000
  H   H6392     1.0  0.64580  0.83736  0.09450  1.0000
  H   H6393     1.0  0.68857  0.83780  0.09999  1.0000
  H   H6394     1.0  0.62140  0.81979  0.21181  1.0000
  H   H6395     1.0  0.78029  0.90042  0.26574  1.0000
  H   H6396     1.0  0.82102  0.88142  0.41987  1.0000
  C   C5331     1.0  0.71744  0.89124  0.21825  1.0000
  H   H6397     1.0  0.80738  0.81827  0.36393  1.0000
  C   C5332     1.0  0.50713  0.86211  0.34813  1.0000
  H   H6398     1.0  0.69674  0.79504  0.33752  1.0000
  H   H6399     1.0  0.88278  0.81420  0.40018  1.0000
  C   C5333     1.0  0.57280  0.78793  0.35410  1.0000
  C   C5334     1.0  0.58917  0.80493  0.35994  1.0000
  H   H6400     1.0  0.60182  0.84668  0.27578  1.0000
  H   H6401     1.0  0.62398  0.82654  0.19232  1.0000
  N   N356      1.0  0.89052  0.79810  0.41860  1.0000
  H   H6402     1.0  0.51792  0.94361  0.29629  1.0000
  H   H6403     1.0  0.67060  0.79971  0.11308  1.0000
  H   H6404     1.0  0.70683  0.96879  0.33221  1.0000
  H   H6405     1.0  0.72029  0.90504  0.16170  1.0000
  S   S1427     1.0  0.66438  0.83984  0.18484  1.0000
  H   H6406     1.0  0.54449  0.96309  0.32433  1.0000
  H   H6407     1.0  0.91618  0.96495  0.34730  1.0000
  H   H6408     1.0  0.69172  0.82131  0.32842  1.0000
  C   C5335     1.0  0.82411  0.95309  0.43050  1.0000
  S   S1428     1.0  0.59948  0.81531  0.36389  1.0000
  C   C5336     1.0  0.72140  0.80807  0.32423  1.0000
  C   C5337     1.0  0.67051  0.97661  0.36197  1.0000
  N   N357      1.0  0.64058  0.81720  0.47094  1.0000
  S   S1429     1.0  0.52025  0.79882  0.36570  1.0000
  H   H6409     1.0  0.61612  0.83681  0.26311  1.0000
  C   C5338     1.0  0.96823  0.82756  0.38380  1.0000
  N   N358      1.0  0.73357  0.85839  0.32203  1.0000
  C   C5339     1.0  0.73762  0.85409  0.30756  1.0000
  C   C5340     1.0  0.72890  0.87471  0.31953  1.0000
  C   C5341     1.0  0.74735  0.85371  0.32794  1.0000
  C   C5342     1.0  0.72102  0.85199  0.33215  1.0000
  C   C5343     1.0  0.70790  0.85331  0.32726  1.0000
  C   C5344     1.0  0.72079  0.84560  0.34738  1.0000
  C   C5345     1.0  0.69560  0.84808  0.33686  1.0000
  C   C5346     1.0  0.70835  0.84056  0.35692  1.0000
  C   C5347     1.0  0.69584  0.84167  0.35164  1.0000
  H   H6410     1.0  0.74748  0.85830  0.30017  1.0000
  H   H6411     1.0  0.74046  0.84186  0.30895  1.0000
  H   H6412     1.0  0.72869  0.85878  0.30120  1.0000
  H   H6413     1.0  0.71973  0.87922  0.31340  1.0000
  H   H6414     1.0  0.73833  0.88008  0.31297  1.0000
  H   H6415     1.0  0.72484  0.87831  0.33021  1.0000
  H   H6416     1.0  0.75101  0.84144  0.33087  1.0000
  H   H6417     1.0  0.75687  0.85794  0.31978  1.0000
  H   H6418     1.0  0.74586  0.85815  0.33784  1.0000
  H   H6419     1.0  0.70686  0.85876  0.31607  1.0000
  H   H6420     1.0  0.73004  0.84444  0.35227  1.0000
  H   H6421     1.0  0.68567  0.84922  0.33293  1.0000
  H   H6422     1.0  0.70839  0.83579  0.36851  1.0000
  H   H6423     1.0  0.68623  0.83770  0.35907  1.0000
  C   C5348     1.0  0.79009  0.86961  0.40129  1.0000
  C   C5349     1.0  0.98531  0.80809  0.34900  1.0000
  H   H6424     1.0  0.73185  0.83938  0.21472  1.0000
  C   C5350     1.0  0.64862  0.82817  0.22418  1.0000
  C   C5351     1.0  0.73962  0.79929  0.20104  1.0000
  C   C5352     1.0  0.87510  0.79571  0.42521  1.0000
  C   C5353     1.0  0.81159  0.87641  0.42063  1.0000
  C   C5354     1.0  0.69780  0.81970  0.31712  1.0000
  C   C5355     1.0  0.62137  0.81100  0.28249  1.0000
  H   H6425     1.0  0.80659  0.89165  0.39472  1.0000
  H   H6426     1.0  0.66166  0.81192  0.29708  1.0000
  C   C5356     1.0  0.56560  0.79801  0.36320  1.0000
  S   S1430     1.0  0.75604  0.96930  0.30560  1.0000
  C   C5357     1.0  0.52818  0.96431  0.31227  1.0000
  Fe  Fe718     1.0  0.70617  0.95713  0.31070  1.0000
  H   H6427     1.0  0.74023  0.96397  0.43093  1.0000
  H   H6428     1.0  0.88187  0.95949  0.38099  1.0000
  Fe  Fe719     1.0  0.64513  0.82346  0.32382  1.0000
  H   H6429     1.0  0.93384  0.97584  0.35231  1.0000
  H   H6430     1.0  0.70139  0.90885  0.22732  1.0000
  C   C5358     1.0  0.70032  0.80731  0.11992  1.0000
  S   S1431     1.0  0.66417  0.80490  0.32946  1.0000
  H   H6431     1.0  0.73538  0.91113  0.16415  1.0000
  H   H6432     1.0  0.65012  0.81348  0.18750  1.0000
  H   H6433     1.0  0.63713  0.79453  0.25397  1.0000
  C   C5359     1.0  0.75303  0.80200  0.19143  1.0000
  H   H6434     1.0  0.88033  0.92007  0.42490  1.0000
  H   H6435     1.0  0.79123  0.93180  0.28528  1.0000
  C   C5360     1.0  0.72875  0.80956  0.34610  1.0000
  H   H6436     1.0  0.70705  0.80769  0.34632  1.0000
  C   C5361     1.0  0.96674  0.80191  0.38963  1.0000
  H   H6437     1.0  0.81676  0.87764  0.38424  1.0000
  C   C5362     1.0  0.88895  0.92228  0.41509  1.0000
  C   C5363     1.0  0.67532  0.84321  0.28330  1.0000
  C   C5364     1.0  0.64027  0.80386  0.24557  1.0000
  H   H6438     1.0  0.62501  0.83768  0.22674  1.0000
  H   H6439     1.0  0.90683  0.94960  0.39420  1.0000
  C   C5365     1.0  0.50681  0.97136  0.28226  1.0000
  C   C5366     1.0  0.52187  0.87501  0.35471  1.0000
  C   C5367     1.0  0.71287  0.81253  0.22918  1.0000
  C   C5368     1.0  0.57821  0.82069  0.32491  1.0000
  H   H6440     1.0  0.70230  0.81136  0.23756  1.0000
  H   H6441     1.0  0.51227  0.89800  0.35488  1.0000
  C   C5369     1.0  0.76264  0.90176  0.23913  1.0000
  H   H6442     1.0  0.74260  0.93235  0.25277  1.0000
  C   C5370     1.0  0.67777  0.81413  0.13821  1.0000
  Fe  Fe720     1.0  0.62357  0.81236  0.35147  1.0000
  C   C5371     1.0  0.63348  0.82824  0.23036  1.0000
  C   C5372     1.0  0.76527  0.92387  0.31678  1.0000
  C   C5373     1.0  0.78388  0.90682  0.30376  1.0000
  H   H6443     1.0  0.73944  0.81023  0.30423  1.0000
  Fe  Fe721     1.0  0.80364  0.95268  0.37693  1.0000
  C   C5374     1.0  0.81450  0.91542  0.32320  1.0000
  H   H6444     1.0  0.71888  0.81830  0.23333  1.0000
  N   N359      1.0  0.78039  0.92176  0.30698  1.0000
  C   C5375     1.0  0.81595  0.88172  0.39419  1.0000
  H   H6445     1.0  0.74975  0.93942  0.21850  1.0000
  H   H6446     1.0  0.66389  0.79458  0.24342  1.0000
  H   H6447     1.0  0.96709  0.81907  0.43239  1.0000
  C   C5376     1.0  0.71803  0.80837  0.33943  1.0000
  C   C5377     1.0  0.60060  0.82982  0.31194  1.0000
  S   S1432     1.0  0.71448  0.80359  0.42790  1.0000
  H   H6448     1.0  0.88314  0.81947  0.42442  1.0000
  C   C5378     1.0  0.77291  0.89664  0.24828  1.0000
  H   H6449     1.0  0.73363  0.94353  0.23293  1.0000
  H   H6450     1.0  0.83797  0.95466  0.45029  1.0000
  C   C5379     1.0  0.62663  0.85466  0.43699  1.0000
  H   H6451     1.0  0.81054  0.86798  0.43119  1.0000
  H   H6452     1.0  0.70217  0.82979  0.31101  1.0000
  H   H6453     1.0  0.81574  0.95375  0.44111  1.0000
  H   H6454     1.0  0.51550  0.96510  0.27451  1.0000
  C   C5380     1.0  0.58902  0.82802  0.32445  1.0000
  Fe  Fe722     1.0  0.68236  0.82783  0.19716  1.0000
  H   H6455     1.0  0.71085  0.91612  0.18052  1.0000
  C   C5381     1.0  0.91140  0.92771  0.38993  1.0000
  S   S1433     1.0  0.88228  0.94990  0.42047  1.0000
  H   H6456     1.0  0.62121  0.84358  0.28942  1.0000
  H   H6457     1.0  0.78659  0.94278  0.36617  1.0000
  C   C5382     1.0  0.99165  0.79270  0.35032  1.0000
  S   S1434     1.0  0.81640  0.93085  0.37149  1.0000
  H   H6458     1.0  0.92006  0.92984  0.38013  1.0000
  C   C5383     1.0  0.73871  0.93676  0.22444  1.0000
  H   H6459     1.0  0.71664  0.92224  0.23412  1.0000
  N   N360      1.0  0.71002  0.80624  0.31756  1.0000
  H   H6460     1.0  0.68933  0.81915  0.31149  1.0000
  Fe  Fe723     1.0  0.83494  0.78716  0.46281  1.0000
  C   C5384     1.0  0.69880  0.98095  0.40699  1.0000
  H   H6461     1.0  0.81772  0.95634  0.42167  1.0000
  C   C5385     1.0  0.70523  0.91358  0.20365  1.0000
  H   H6462     1.0  0.76541  0.91647  0.32788  1.0000
  C   C5386     1.0  0.75158  0.91511  0.23998  1.0000
  H   H6463     1.0  0.73118  0.94089  0.21650  1.0000
  H   H6464     1.0  0.75090  0.79683  0.39875  1.0000
  C   C5387     1.0  0.91235  0.97560  0.35036  1.0000
  C   C5388     1.0  0.66179  0.80086  0.40594  1.0000
  C   C5389     1.0  0.89259  0.93621  0.41042  1.0000
  Fe  Fe724     1.0  0.67987  0.83045  0.16576  1.0000
  Fe  Fe725     1.0  0.65615  0.80941  0.35226  1.0000
  H   H6465     1.0  0.69543  0.80787  0.40350  1.0000
  H   H6466     1.0  0.75753  0.81231  0.31619  1.0000
  C   C5390     1.0  0.75927  0.81223  0.46701  1.0000
  H   H6467     1.0  0.66139  0.96506  0.35172  1.0000
  H   H6468     1.0  0.94188  0.83433  0.44357  1.0000
  C   C5391     1.0  0.70749  0.90494  0.21736  1.0000
  H   H6469     1.0  0.76841  0.81271  0.38542  1.0000
  H   H6470     1.0  0.76852  0.81036  0.21476  1.0000
  H   H6471     1.0  0.73192  0.96994  0.33190  1.0000
  H   H6472     1.0  0.51658  0.80922  0.30902  1.0000
  H   H6473     1.0  0.69612  0.81204  0.37678  1.0000
  H   H6474     1.0  0.75485  0.91422  0.21111  1.0000
  N   N361      1.0  0.74023  0.92062  0.23082  1.0000
  H   H6475     1.0  0.65994  0.97238  0.20798  1.0000
  C   C5392     1.0  0.96630  0.78912  0.35385  1.0000
  C   C5393     1.0  0.89243  0.80944  0.42518  1.0000
  C   C5394     1.0  0.90391  0.93891  0.39785  1.0000
  H   H6476     1.0  0.65172  0.83757  0.21590  1.0000
  S   S1435     1.0  0.67854  0.81544  0.22078  1.0000
  S   S1436     1.0  0.71073  0.81475  0.26485  1.0000
  C   C5395     1.0  0.69304  0.82237  0.27442  1.0000
  C   C5396     1.0  0.72218  0.96703  0.39539  1.0000
  H   H6477     1.0  0.62988  0.79475  0.22280  1.0000
  H   H6478     1.0  0.72596  0.80950  0.35780  1.0000
  H   H6479     1.0  0.69713  0.92405  0.20303  1.0000
  C   C5397     1.0  0.75120  0.92263  0.25082  1.0000
  H   H6480     1.0  0.83791  0.96684  0.40413  1.0000
  N   N362      1.0  0.83482  0.96258  0.42790  1.0000
  H   H6481     1.0  0.77519  0.90534  0.29898  1.0000
  C   C5398     1.0  0.66928  0.81906  0.29083  1.0000
  S   S1437     1.0  0.64893  0.84095  0.30313  1.0000
  H   H6482     1.0  0.76082  0.93543  0.31826  1.0000
  C   C5399     1.0  0.66551  0.83399  0.29148  1.0000
  C   C5400     1.0  0.68611  0.80665  0.40002  1.0000
  S   S1438     1.0  0.62933  0.80868  0.32845  1.0000
  C   C5401     1.0  0.72571  0.91800  0.24031  1.0000
  S   S1439     1.0  0.59074  0.78710  0.24489  1.0000
  H   H6483     1.0  0.52735  0.92504  0.34708  1.0000
  Fe  Fe726     1.0  0.78822  0.96896  0.40146  1.0000
  S   S1440     1.0  0.78469  0.96500  0.42601  1.0000
  S   S1441     1.0  0.63788  0.82898  0.34614  1.0000
  C   C5402     1.0  0.68646  0.80903  0.38488  1.0000
  C   C5403     1.0  0.76657  0.97687  0.34007  1.0000
  C   C5404     1.0  0.67378  0.80249  0.41062  1.0000
  H   H6484     1.0  0.56828  0.81417  0.37331  1.0000
  C   C5405     1.0  0.94539  0.80441  0.44609  1.0000
  S   S1442     1.0  0.53257  0.96990  0.35678  1.0000
  C   C5406     1.0  0.65542  0.80397  0.23970  1.0000
  C   C5407     1.0  0.67443  0.80747  0.38021  1.0000
  H   H6485     1.0  0.78444  0.89797  0.31399  1.0000
  C   C5408     1.0  0.96085  0.81772  0.42489  1.0000
  H   H6486     1.0  0.80777  0.90297  0.31238  1.0000
  N   N363      1.0  0.61389  0.82568  0.28609  1.0000
  S   S1443     1.0  0.81187  0.96494  0.38846  1.0000
  C   C5409     1.0  0.60178  0.82406  0.29952  1.0000
  H   H6487     1.0  0.79626  0.94926  0.33008  1.0000
  C   C5410     1.0  0.95397  0.78993  0.44509  1.0000
  H   H6488     1.0  0.79007  0.82071  0.40336  1.0000
  H   H6489     1.0  0.90275  0.81360  0.41946  1.0000
  C   C5411     1.0  0.62061  0.85479  0.45187  1.0000
  H   H6490     1.0  0.97154  0.79035  0.39295  1.0000
  H   H6491     1.0  0.63131  0.81166  0.27318  1.0000
  C   C5412     1.0  0.60743  0.83550  0.27354  1.0000
  C   C5413     1.0  0.52407  0.96832  0.29843  1.0000
  H   H6492     1.0  0.62310  0.86409  0.42852  1.0000
  H   H6493     1.0  0.75276  0.97281  0.41542  1.0000
  C   C5414     1.0  0.76351  0.80572  0.19643  1.0000
  H   H6494     1.0  0.96737  0.80788  0.42028  1.0000
  H   H6495     1.0  0.94857  0.80875  0.35347  1.0000
  Fe  Fe727     1.0  0.60579  0.79287  0.25544  1.0000
  H   H6496     1.0  0.81846  0.79183  0.38546  1.0000
  C   C5415     1.0  0.86190  0.96774  0.37244  1.0000
  H   H6497     1.0  0.65541  0.79402  0.19492  1.0000
  C   C5416     1.0  0.59046  0.81679  0.30032  1.0000
  S   S1444     1.0  0.99325  0.80729  0.39062  1.0000
  H   H6498     1.0  0.60949  0.81661  0.20221  1.0000
  H   H6499     1.0  0.66243  0.80854  0.45865  1.0000
  S   S1445     1.0  0.67298  0.79905  0.42977  1.0000
  H   H6500     1.0  0.77022  0.81070  0.45904  1.0000
  C   C5417     1.0  0.50637  0.94098  0.34877  1.0000
  H   H6501     1.0  0.74139  0.84414  0.44768  1.0000
  H   H6502     1.0  0.65008  0.82112  0.43990  1.0000
  H   H6503     1.0  0.55378  0.79916  0.36810  1.0000
  H   H6504     1.0  0.97442  0.83585  0.38247  1.0000
  H   H6505     1.0  0.96117  0.82731  0.41524  1.0000
  H   H6506     1.0  0.53993  0.97914  0.22282  1.0000
  H   H6507     1.0  0.63597  0.81889  0.17055  1.0000
  C   C5418     1.0  0.62517  0.84264  0.46280  1.0000
  H   H6508     1.0  0.85078  0.94413  0.43748  1.0000
  H   H6509     1.0  0.67452  0.78974  0.01343  1.0000
  N   N364      1.0  0.63166  0.80280  0.19923  1.0000
  C   C5419     1.0  0.84456  0.95553  0.43871  1.0000
  Fe  Fe728     1.0  0.77481  0.97550  0.37462  1.0000
  H   H6510     1.0  0.96533  0.82549  0.34932  1.0000
  H   H6511     1.0  0.49708  0.97080  0.31893  1.0000
  H   H6512     1.0  0.65274  0.80222  0.38731  1.0000
  H   H6513     1.0  0.85127  0.95152  0.41170  1.0000
  H   H6514     1.0  0.65667  0.82711  0.47413  1.0000
  C   C5420     1.0  0.72473  0.78813  0.24078  1.0000
  H   H6515     1.0  0.53217  0.97793  0.27495  1.0000
  H   H6516     1.0  0.70131  0.95798  0.11820  1.0000
  C   C5421     1.0  0.82655  0.97785  0.42906  1.0000
  C   C5422     1.0  0.49790  0.88807  0.34889  1.0000
  H   H6517     1.0  0.70809  0.81175  0.06432  1.0000
  S   S1446     1.0  0.79737  0.97238  0.35928  1.0000
  C   C5423     1.0  0.51084  0.88795  0.35301  1.0000
  H   H6518     1.0  0.75121  0.81196  0.34297  1.0000
  C   C5424     1.0  0.50878  0.97623  0.21428  1.0000
  C   C5425     1.0  0.62566  0.83211  0.28758  1.0000
  H   H6519     1.0  0.49591  0.96966  0.28186  1.0000
  C   C5426     1.0  0.75472  0.79524  0.43779  1.0000
  H   H6520     1.0  0.72566  0.79418  0.30174  1.0000
  H   H6521     1.0  0.82985  0.94127  0.43090  1.0000
  H   H6522     1.0  0.64899  0.80690  0.20686  1.0000
  H   H6523     1.0  0.78730  0.85818  0.47290  1.0000
  H   H6524     1.0  0.92495  0.83178  0.44051  1.0000
  S   S1447     1.0  0.52891  0.78646  0.33524  1.0000
  H   H6525     1.0  0.55549  0.98087  0.27765  1.0000
  H   H6526     1.0  0.70084  0.96833  0.39115  1.0000
  S   S1448     1.0  0.68443  0.95752  0.32709  1.0000
  C   C5427     1.0  0.67113  0.96876  0.35159  1.0000
  C   C5428     1.0  0.89173  0.80413  0.40250  1.0000
  H   H6527     1.0  0.65221  0.79766  0.41408  1.0000
  H   H6528     1.0  0.96048  0.78738  0.43461  1.0000
  C   C5429     1.0  0.53434  0.97440  0.28594  1.0000
  H   H6529     1.0  0.84165  0.97274  0.36472  1.0000
  C   C5430     1.0  0.72298  0.97871  0.12160  1.0000
  H   H6530     1.0  0.61239  0.86438  0.45494  1.0000
  H   H6531     1.0  0.85331  0.96176  0.43702  1.0000
  C   C5431     1.0  0.78750  0.79826  0.39414  1.0000
  C   C5432     1.0  0.93801  0.81334  0.42265  1.0000
  C   C5433     1.0  0.79912  0.81129  0.37016  1.0000
  H   H6532     1.0  0.56387  0.98110  0.34301  1.0000
  H   H6533     1.0  0.69622  0.79067  0.32109  1.0000
  C   C5434     1.0  0.74160  0.97175  0.33421  1.0000
  S   S1449     1.0  0.70147  0.79463  0.09729  1.0000
  Fe  Fe729     1.0  0.70400  0.97697  0.16842  1.0000
  C   C5435     1.0  0.55157  0.97202  0.30110  1.0000
  C   C5436     1.0  0.63721  0.84238  0.43299  1.0000
  H   H6534     1.0  0.53187  0.87498  0.35793  1.0000
  S   S1450     1.0  0.71537  0.97689  0.29694  1.0000
  H   H6535     1.0  0.99213  0.81588  0.34735  1.0000
  C   C5437     1.0  0.90232  0.78445  0.42100  1.0000
  S   S1451     1.0  0.66572  0.79305  0.08552  1.0000
  C   C5438     1.0  0.54786  0.97619  0.28734  1.0000
  C   C5439     1.0  0.78244  0.98112  0.44586  1.0000
  C   C5440     1.0  0.51247  0.79982  0.27174  1.0000
  C   C5441     1.0  0.74106  0.97389  0.34820  1.0000
  C   C5442     1.0  0.74723  0.80422  0.22075  1.0000
  H   H6536     1.0  0.92098  0.79547  0.41081  1.0000
  C   C5443     1.0  0.69679  0.97079  0.34064  1.0000
  H   H6537     1.0  0.71417  0.78556  0.24838  1.0000
  H   H6538     1.0  0.89083  0.79582  0.39697  1.0000
  H   H6539     1.0  0.72846  0.96032  0.38741  1.0000
  H   H6540     1.0  0.70589  0.98232  0.35094  1.0000
  H   H6541     1.0  0.65382  0.97404  0.23406  1.0000
  Fe  Fe730     1.0  0.67136  0.97639  0.17929  1.0000
  C   C5444     1.0  0.71157  0.97391  0.23043  1.0000
  H   H6542     1.0  0.53234  0.97021  0.20506  1.0000
  C   C5445     1.0  0.71319  0.79126  0.22078  1.0000
  H   H6543     1.0  0.72961  0.82317  0.47445  1.0000
  S   S1452     1.0  0.82642  0.80355  0.47733  1.0000
  S   S1453     1.0  0.89741  0.98020  0.42960  1.0000
  S   S1454     1.0  0.68719  0.97504  0.15731  1.0000
  H   H6544     1.0  0.81394  0.98082  0.41239  1.0000
  C   C5446     1.0  0.74340  0.97471  0.42506  1.0000
  H   H6545     1.0  0.65749  0.97910  0.26610  1.0000
  C   C5447     1.0  0.72203  0.98077  0.41337  1.0000
  C   C5448     1.0  0.62536  0.78598  0.18673  1.0000
  H   H6546     1.0  0.63214  0.78486  0.31381  1.0000
  H   H6547     1.0  0.70030  0.97659  0.09509  1.0000
  H   H6548     1.0  0.74841  0.97787  0.43252  1.0000
  H   H6549     1.0  0.61675  0.79022  0.21581  1.0000
  H   H6550     1.0  0.72920  0.97917  0.12924  1.0000
  C   C5449     1.0  0.49892  0.95513  0.35125  1.0000
  H   H6551     1.0  0.71545  0.98183  0.44223  1.0000
  C   C5450     1.0  0.70668  0.97758  0.10224  1.0000
  H   H6552     1.0  0.65720  0.98291  0.32556  1.0000
  S   S1455     1.0  0.68773  0.98048  0.18949  1.0000
  C   C5451     1.0  0.65107  0.98122  0.21160  1.0000
  C   C5452     1.0  0.92236  0.98189  0.35342  1.0000
  S   S1456     1.0  0.59426  0.78413  0.27869  1.0000
  C   C5453     1.0  0.51428  0.78508  0.30223  1.0000
  C   C5454     1.0  0.49564  0.87516  0.34631  1.0000
  C   C5455     1.0  0.64753  0.98210  0.22644  1.0000
  C   C5456     1.0  0.67257  0.98283  0.27688  1.0000
  C   C5457     1.0  0.89745  0.98299  0.35119  1.0000
  H   H6553     1.0  0.50639  0.98338  0.27783  1.0000
  H   H6554     1.0  0.77608  0.91862  0.67410  1.0000
  H   H6555     1.0  0.74691  0.97242  0.78737  1.0000
  C   C5458     1.0  0.69598  0.81261  0.76630  1.0000
  H   H6556     1.0  0.67503  0.94892  0.86274  1.0000
  S   S1457     1.0  0.90797  0.94299  0.64189  1.0000
  H   H6557     1.0  0.63371  0.94608  0.92790  1.0000
  H   H6558     1.0  0.60827  0.83919  0.89862  1.0000
  S   S1458     1.0  0.66427  0.94535  0.89983  1.0000
  C   C5459     1.0  0.72307  0.97645  0.72672  1.0000
  Fe  Fe731     1.0  0.64448  0.87252  0.74639  1.0000
  S   S1459     1.0  0.65750  0.85108  0.75719  1.0000
  S   S1460     1.0  0.62239  0.87158  0.74297  1.0000
  Fe  Fe732     1.0  0.66739  0.88898  0.74611  1.0000
  S   S1461     1.0  0.68252  0.86868  0.75644  1.0000
  S   S1462     1.0  0.67472  0.91043  0.73985  1.0000
  Fe  Fe733     1.0  0.67753  0.85796  0.74112  1.0000
  S   S1463     1.0  0.69326  0.84152  0.72827  1.0000
  Fe  Fe734     1.0  0.66108  0.86393  0.77138  1.0000
  S   S1464     1.0  0.65745  0.85350  0.79547  1.0000
  S   S1465     1.0  0.66435  0.87871  0.72923  1.0000
  S   S1466     1.0  0.64611  0.88489  0.76221  1.0000
  H   H6559     1.0  0.74963  0.80555  0.61202  1.0000
  S   S1467     1.0  0.61034  0.80496  0.81308  1.0000
  S   S1468     1.0  0.61799  0.81408  0.76998  1.0000
  H   H6560     1.0  0.81537  0.93686  0.62991  1.0000
  H   H6561     1.0  0.76185  0.78471  0.50842  1.0000
  H   H6562     1.0  0.76952  0.82353  0.64194  1.0000
  Fe  Fe735     1.0  0.65864  0.97030  0.89392  1.0000
  S   S1469     1.0  0.51168  0.78906  0.75334  1.0000
  S   S1470     1.0  0.64680  0.80002  0.82911  1.0000
  C   C5460     1.0  0.62401  0.79292  0.92778  1.0000
  H   H6563     1.0  0.49929  0.85305  0.64195  1.0000
  C   C5461     1.0  0.70188  0.80579  0.75428  1.0000
  H   H6564     1.0  0.73842  0.82522  0.48740  1.0000
  Fe  Fe736     1.0  0.64014  0.88569  0.87839  1.0000
  S   S1471     1.0  0.66301  0.87421  0.88222  1.0000
  S   S1472     1.0  0.63058  0.90998  0.87837  1.0000
  Fe  Fe737     1.0  0.63481  0.85775  0.87294  1.0000
  S   S1473     1.0  0.65737  0.84436  0.87647  1.0000
  S   S1474     1.0  0.61817  0.84831  0.86777  1.0000
  Fe  Fe738     1.0  0.65239  0.85516  0.89559  1.0000
  S   S1475     1.0  0.65391  0.84422  0.91924  1.0000
  Fe  Fe739     1.0  0.66540  0.86481  0.86269  1.0000
  S   S1476     1.0  0.68363  0.86695  0.84215  1.0000
  S   S1477     1.0  0.62919  0.86731  0.89300  1.0000
  S   S1478     1.0  0.64310  0.87749  0.85800  1.0000
  Fe  Fe740     1.0  0.70916  0.84525  0.57584  1.0000
  S   S1479     1.0  0.70091  0.82648  0.59291  1.0000
  S   S1480     1.0  0.71719  0.86276  0.58085  1.0000
  Fe  Fe741     1.0  0.70198  0.83679  0.55051  1.0000
  S   S1481     1.0  0.69268  0.81764  0.56577  1.0000
  S   S1482     1.0  0.70624  0.84250  0.52550  1.0000
  Fe  Fe742     1.0  0.68175  0.83295  0.58160  1.0000
  C   C5462     1.0  0.60579  0.82801  0.90368  1.0000
  Fe  Fe743     1.0  0.71269  0.81322  0.57559  1.0000
  H   H6565     1.0  0.65095  0.81277  0.48939  1.0000
  S   S1483     1.0  0.68947  0.85253  0.56534  1.0000
  S   S1484     1.0  0.72256  0.83149  0.55948  1.0000
  Fe  Fe744     1.0  0.60607  0.84017  0.68579  1.0000
  S   S1485     1.0  0.61722  0.81620  0.68941  1.0000
  S   S1486     1.0  0.62175  0.85434  0.68460  1.0000
  Fe  Fe745     1.0  0.57779  0.83390  0.68179  1.0000
  S   S1487     1.0  0.58761  0.80952  0.68442  1.0000
  S   S1488     1.0  0.55291  0.84306  0.68315  1.0000
  Fe  Fe746     1.0  0.59523  0.81215  0.70323  1.0000
  H   H6566     1.0  0.63059  0.80120  0.48866  1.0000
  Fe  Fe747     1.0  0.60876  0.81617  0.67007  1.0000
  S   S1489     1.0  0.62637  0.80345  0.65424  1.0000
  S   S1490     1.0  0.58459  0.83615  0.70143  1.0000
  S   S1491     1.0  0.59839  0.84054  0.66569  1.0000
  Fe  Fe748     1.0  0.75049  0.89215  0.64910  1.0000
  S   S1492     1.0  0.77105  0.88127  0.65815  1.0000
  S   S1493     1.0  0.74167  0.91688  0.64582  1.0000
  Fe  Fe749     1.0  0.74555  0.86275  0.64752  1.0000
  S   S1494     1.0  0.76548  0.84971  0.65691  1.0000
  S   S1495     1.0  0.73324  0.84823  0.64315  1.0000
  Fe  Fe750     1.0  0.75746  0.86493  0.67257  1.0000
  S   S1496     1.0  0.75549  0.85871  0.69706  1.0000
  Fe  Fe751     1.0  0.77688  0.86734  0.64153  1.0000
  S   S1497     1.0  0.79932  0.86232  0.62636  1.0000
  S   S1498     1.0  0.73647  0.87661  0.66457  1.0000
  S   S1499     1.0  0.75743  0.87953  0.63100  1.0000
  Fe  Fe752     1.0  0.80351  0.79354  0.59055  1.0000
  S   S1500     1.0  0.80701  0.81660  0.58261  1.0000
  S   S1501     1.0  0.70787  0.96806  0.73542  1.0000
  Fe  Fe753     1.0  0.51896  0.79648  0.79875  1.0000
  C   C5463     1.0  0.85067  0.92910  0.65883  1.0000
  Fe  Fe754     1.0  0.82951  0.80709  0.58789  1.0000
  S   S1502     1.0  0.83643  0.81627  0.60314  1.0000
  Fe  Fe755     1.0  0.81756  0.81032  0.56084  1.0000
  S   S1503     1.0  0.81297  0.82548  0.53951  1.0000
  N   N365      1.0  0.50236  0.86813  0.65319  1.0000
  H   H6567     1.0  0.84629  0.97485  0.64906  1.0000
  C   C5464     1.0  0.77759  0.81369  0.63830  1.0000
  Fe  Fe756     1.0  0.91032  0.85332  0.62507  1.0000
  S   S1504     1.0  0.91078  0.86624  0.60175  1.0000
  S   S1505     1.0  0.93302  0.84433  0.63074  1.0000
  Fe  Fe757     1.0  0.87622  0.86064  0.63320  1.0000
  S   S1506     1.0  0.87437  0.87412  0.61051  1.0000
  S   S1507     1.0  0.85511  0.85919  0.65090  1.0000
  Fe  Fe758     1.0  0.89244  0.85545  0.60294  1.0000
  S   S1508     1.0  0.89221  0.84540  0.58458  1.0000
  Fe  Fe759     1.0  0.89280  0.88353  0.61185  1.0000
  S   S1509     1.0  0.89242  0.90808  0.60358  1.0000
  S   S1510     1.0  0.89322  0.84121  0.62564  1.0000
  S   S1511     1.0  0.89347  0.87135  0.63515  1.0000
  S   S1512     1.0  0.53400  0.81084  0.79796  1.0000
  H   H6568     1.0  0.87948  0.95166  0.66110  1.0000
  S   S1513     1.0  0.78832  0.79664  0.50287  1.0000
  H   H6569     1.0  0.71737  0.95975  0.69992  1.0000
  C   C5465     1.0  0.95498  0.79496  0.63687  1.0000
  C   C5466     1.0  0.96350  0.80551  0.63381  1.0000
  C   C5467     1.0  0.95658  0.82060  0.63206  1.0000
  C   C5468     1.0  0.94112  0.82527  0.63311  1.0000
  C   C5469     1.0  0.93253  0.81474  0.63620  1.0000
  C   C5470     1.0  0.93945  0.79958  0.63827  1.0000
  H   H6570     1.0  0.97540  0.80204  0.63316  1.0000
  H   H6571     1.0  0.96325  0.82867  0.62988  1.0000
  H   H6572     1.0  0.92055  0.81824  0.63733  1.0000
  N   N366      1.0  0.65620  0.81955  0.73341  1.0000
  C   C5471     1.0  0.80460  0.81841  0.52976  1.0000
  C   C5472     1.0  0.80662  0.82349  0.51444  1.0000
  C   C5473     1.0  0.80107  0.81721  0.50625  1.0000
  C   C5474     1.0  0.79342  0.80585  0.51334  1.0000
  C   C5475     1.0  0.79065  0.80131  0.52876  1.0000
  C   C5476     1.0  0.79625  0.80759  0.53697  1.0000
  C   C5477     1.0  0.55261  0.80456  0.70946  1.0000
  C   C5478     1.0  0.64396  0.83281  0.73478  1.0000
  H   H6573     1.0  0.90348  0.80931  0.61637  1.0000
  H   H6574     1.0  0.79402  0.80408  0.54884  1.0000
  C   C5479     1.0  0.85122  0.82542  0.59712  1.0000
  C   C5480     1.0  0.85563  0.82957  0.60770  1.0000
  C   C5481     1.0  0.86803  0.83595  0.60372  1.0000
  C   C5482     1.0  0.87619  0.83815  0.58914  1.0000
  C   C5483     1.0  0.87172  0.83413  0.57843  1.0000
  C   C5484     1.0  0.85913  0.82785  0.58240  1.0000
  H   H6575     1.0  0.84951  0.82776  0.61909  1.0000
  H   H6576     1.0  0.87140  0.83894  0.61202  1.0000
  H   H6577     1.0  0.87798  0.83591  0.56710  1.0000
  H   H6578     1.0  0.85572  0.82470  0.57417  1.0000
  C   C5485     1.0  0.81480  0.86005  0.63380  1.0000
  C   C5486     1.0  0.82908  0.85844  0.62458  1.0000
  C   C5487     1.0  0.84150  0.85787  0.62989  1.0000
  C   C5488     1.0  0.83979  0.85863  0.64450  1.0000
  C   C5489     1.0  0.82558  0.85959  0.65394  1.0000
  C   C5490     1.0  0.81306  0.86049  0.64856  1.0000
  H   H6579     1.0  0.83053  0.85797  0.61319  1.0000
  H   H6580     1.0  0.85239  0.85694  0.62260  1.0000
  H   H6581     1.0  0.82421  0.85998  0.66533  1.0000
  H   H6582     1.0  0.80209  0.86146  0.65582  1.0000
  C   C5491     1.0  0.54179  0.83364  0.67893  1.0000
  C   C5492     1.0  0.52673  0.83499  0.68633  1.0000
  C   C5493     1.0  0.51713  0.82893  0.68223  1.0000
  C   C5494     1.0  0.52249  0.82158  0.67058  1.0000
  C   C5495     1.0  0.53770  0.81972  0.66356  1.0000
  C   C5496     1.0  0.54735  0.82565  0.66777  1.0000
  H   H6583     1.0  0.52236  0.84098  0.69511  1.0000
  H   H6584     1.0  0.50556  0.83015  0.68798  1.0000
  H   H6585     1.0  0.54197  0.81395  0.65459  1.0000
  H   H6586     1.0  0.55895  0.82454  0.66197  1.0000
  C   C5497     1.0  0.69849  0.83436  0.51604  1.0000
  C   C5498     1.0  0.68853  0.82511  0.52354  1.0000
  C   C5499     1.0  0.68305  0.81840  0.51559  1.0000
  C   C5500     1.0  0.68763  0.82074  0.50014  1.0000
  Fe  Fe760     1.0  0.50779  0.78584  0.77801  1.0000
  C   C5501     1.0  0.70279  0.83695  0.50058  1.0000
  H   H6587     1.0  0.68500  0.82316  0.53544  1.0000
  H   H6588     1.0  0.61727  0.83309  0.63711  1.0000
  H   H6589     1.0  0.50186  0.89105  0.64277  1.0000
  H   H6590     1.0  0.71012  0.84444  0.49477  1.0000
  C   C5502     1.0  0.72266  0.85834  0.59773  1.0000
  C   C5503     1.0  0.72348  0.84412  0.60670  1.0000
  C   C5504     1.0  0.72716  0.84102  0.62046  1.0000
  C   C5505     1.0  0.73008  0.85211  0.62530  1.0000
  C   C5506     1.0  0.72975  0.86621  0.61613  1.0000
  C   C5507     1.0  0.72603  0.86932  0.60236  1.0000
  H   H6591     1.0  0.72143  0.83545  0.60301  1.0000
  H   H6592     1.0  0.72779  0.82997  0.62735  1.0000
  H   H6593     1.0  0.73197  0.87482  0.61981  1.0000
  H   H6594     1.0  0.72551  0.88033  0.59539  1.0000
  N   N367      1.0  0.61804  0.81768  0.91053  1.0000
  C   C5508     1.0  0.74392  0.94459  0.74768  1.0000
  H   H6595     1.0  0.87286  0.79110  0.57952  1.0000
  C   C5509     1.0  0.88231  0.79155  0.58388  1.0000
  C   C5510     1.0  0.68440  0.80132  0.80652  1.0000
  C   C5511     1.0  0.66700  0.82295  0.71915  1.0000
  H   H6596     1.0  0.95834  0.81548  0.60283  1.0000
  S   S1514     1.0  0.79198  0.97937  0.67096  1.0000
  H   H6597     1.0  0.70266  0.91971  0.72148  1.0000
  C   C5512     1.0  0.64930  0.82942  0.61031  1.0000
  C   C5513     1.0  0.63522  0.83587  0.61792  1.0000
  C   C5514     1.0  0.62809  0.82799  0.63135  1.0000
  C   C5515     1.0  0.63480  0.81340  0.63707  1.0000
  C   C5516     1.0  0.64873  0.80680  0.62928  1.0000
  C   C5517     1.0  0.65610  0.81487  0.61605  1.0000
  H   H6598     1.0  0.62974  0.84699  0.61333  1.0000
  C   C5518     1.0  0.72411  0.80103  0.53885  1.0000
  H   H6599     1.0  0.50138  0.87993  0.63079  1.0000
  H   H6600     1.0  0.66687  0.80974  0.61015  1.0000
  C   C5519     1.0  0.51881  0.86306  0.64837  1.0000
  C   C5520     1.0  0.66659  0.80136  0.91595  1.0000
  C   C5521     1.0  0.66417  0.81683  0.91243  1.0000
  C   C5522     1.0  0.65816  0.82475  0.92360  1.0000
  C   C5523     1.0  0.65478  0.81708  0.93837  1.0000
  C   C5524     1.0  0.65702  0.80155  0.94188  1.0000
  C   C5525     1.0  0.54044  0.78826  0.69556  1.0000
  H   H6601     1.0  0.66713  0.82259  0.90108  1.0000
  H   H6602     1.0  0.65014  0.82316  0.94708  1.0000
  N   N368      1.0  0.73880  0.79818  0.52839  1.0000
  C   C5526     1.0  0.64379  0.80702  0.72207  1.0000
  H   H6603     1.0  0.66442  0.92976  0.86051  1.0000
  C   C5527     1.0  0.64692  0.82215  0.48061  1.0000
  C   C5528     1.0  0.54798  0.80129  0.80776  1.0000
  C   C5529     1.0  0.55857  0.80855  0.80819  1.0000
  C   C5530     1.0  0.56956  0.80115  0.81637  1.0000
  H   H6604     1.0  0.80282  0.82113  0.49441  1.0000
  H   H6605     1.0  0.82423  0.79182  0.51526  1.0000
  H   H6606     1.0  0.55818  0.81995  0.80235  1.0000
  H   H6607     1.0  0.57759  0.80687  0.81684  1.0000
  C   C5531     1.0  0.63833  0.81295  0.84032  1.0000
  C   C5532     1.0  0.62290  0.81878  0.84315  1.0000
  C   C5533     1.0  0.61668  0.82940  0.85190  1.0000
  C   C5534     1.0  0.62590  0.83431  0.85766  1.0000
  C   C5535     1.0  0.64121  0.82811  0.85512  1.0000
  C   C5536     1.0  0.64740  0.81744  0.84655  1.0000
  H   H6608     1.0  0.61580  0.81533  0.83842  1.0000
  H   H6609     1.0  0.60479  0.83413  0.85384  1.0000
  H   H6610     1.0  0.64841  0.83169  0.85951  1.0000
  H   H6611     1.0  0.65933  0.81295  0.84443  1.0000
  C   C5537     1.0  0.61064  0.80905  0.75778  1.0000
  C   C5538     1.0  0.60987  0.81838  0.74388  1.0000
  C   C5539     1.0  0.60466  0.81435  0.73372  1.0000
  C   C5540     1.0  0.59971  0.80116  0.73760  1.0000
  H   H6612     1.0  0.66479  0.80995  0.68291  1.0000
  C   C5541     1.0  0.55277  0.78469  0.73082  1.0000
  H   H6613     1.0  0.61336  0.82874  0.74092  1.0000
  H   H6614     1.0  0.60440  0.82151  0.72292  1.0000
  H   H6615     1.0  0.65249  0.92753  0.94039  1.0000
  C   C5542     1.0  0.60570  0.79586  0.76162  1.0000
  C   C5543     1.0  0.71049  0.84645  0.71966  1.0000
  C   C5544     1.0  0.71693  0.85320  0.72661  1.0000
  C   C5545     1.0  0.73096  0.85660  0.71980  1.0000
  C   C5546     1.0  0.73834  0.85369  0.70585  1.0000
  C   C5547     1.0  0.73173  0.84726  0.69876  1.0000
  C   C5548     1.0  0.71795  0.84339  0.70578  1.0000
  H   H6616     1.0  0.71129  0.85548  0.73736  1.0000
  H   H6617     1.0  0.73603  0.86164  0.72527  1.0000
  H   H6618     1.0  0.73737  0.84502  0.68797  1.0000
  H   H6619     1.0  0.71300  0.83820  0.70036  1.0000
  C   C5549     1.0  0.66583  0.85719  0.80760  1.0000
  C   C5550     1.0  0.66237  0.85008  0.82245  1.0000
  C   C5551     1.0  0.66801  0.85305  0.83290  1.0000
  C   C5552     1.0  0.67753  0.86284  0.82854  1.0000
  C   C5553     1.0  0.68146  0.86968  0.81355  1.0000
  C   C5554     1.0  0.67546  0.86696  0.80305  1.0000
  H   H6620     1.0  0.65503  0.84246  0.82592  1.0000
  H   H6621     1.0  0.66506  0.84766  0.84437  1.0000
  H   H6622     1.0  0.68882  0.87730  0.81012  1.0000
  H   H6623     1.0  0.67819  0.87249  0.79154  1.0000
  C   C5555     1.0  0.62239  0.86670  0.72674  1.0000
  C   C5556     1.0  0.61070  0.86076  0.72643  1.0000
  C   C5557     1.0  0.61055  0.85661  0.71366  1.0000
  C   C5558     1.0  0.62192  0.85873  0.70102  1.0000
  C   C5559     1.0  0.63364  0.86463  0.70134  1.0000
  C   C5560     1.0  0.63395  0.86848  0.71420  1.0000
  H   H6624     1.0  0.60179  0.85929  0.73614  1.0000
  H   H6625     1.0  0.60148  0.85207  0.71350  1.0000
  H   H6626     1.0  0.64241  0.86638  0.69157  1.0000
  H   H6627     1.0  0.64295  0.87313  0.71433  1.0000
  C   C5561     1.0  0.65527  0.93602  0.89290  1.0000
  C   C5562     1.0  0.66060  0.92078  0.89382  1.0000
  C   C5563     1.0  0.65327  0.91284  0.88907  1.0000
  C   C5564     1.0  0.64038  0.91998  0.88364  1.0000
  C   C5565     1.0  0.63517  0.93530  0.88247  1.0000
  C   C5566     1.0  0.64268  0.94335  0.88696  1.0000
  H   H6628     1.0  0.67041  0.91510  0.89828  1.0000
  H   H6629     1.0  0.65759  0.90119  0.88969  1.0000
  H   H6630     1.0  0.62526  0.94097  0.87816  1.0000
  H   H6631     1.0  0.63850  0.95513  0.88618  1.0000
  C   C5567     1.0  0.66869  0.93102  0.77894  1.0000
  C   C5568     1.0  0.66279  0.91863  0.78111  1.0000
  C   C5569     1.0  0.66494  0.91194  0.76925  1.0000
  C   C5570     1.0  0.67274  0.91781  0.75517  1.0000
  C   C5571     1.0  0.67897  0.92990  0.75316  1.0000
  C   C5572     1.0  0.67716  0.93631  0.76505  1.0000
  H   H6632     1.0  0.65643  0.91432  0.79187  1.0000
  H   H6633     1.0  0.66035  0.90244  0.77099  1.0000
  H   H6634     1.0  0.68520  0.93434  0.74239  1.0000
  H   H6635     1.0  0.68238  0.94536  0.76338  1.0000
  H   H6636     1.0  0.77202  0.96965  0.73862  1.0000
  C   C5573     1.0  0.89581  0.91811  0.61455  1.0000
  C   C5574     1.0  0.89679  0.91177  0.62922  1.0000
  C   C5575     1.0  0.90053  0.91956  0.63745  1.0000
  C   C5576     1.0  0.90294  0.93390  0.63118  1.0000
  C   C5577     1.0  0.90125  0.94058  0.61673  1.0000
  C   C5578     1.0  0.89777  0.93264  0.60841  1.0000
  H   H6637     1.0  0.89487  0.90079  0.63419  1.0000
  H   H6638     1.0  0.90164  0.91443  0.64869  1.0000
  H   H6639     1.0  0.90299  0.95168  0.61185  1.0000
  H   H6640     1.0  0.89687  0.93768  0.59709  1.0000
  H   H6641     1.0  0.78458  0.79265  0.53434  1.0000
  C   C5579     1.0  0.69061  0.78513  0.76797  1.0000
  C   C5580     1.0  0.93148  0.80873  0.58178  1.0000
  S   S1515     1.0  0.65902  0.98183  0.87027  1.0000
  C   C5581     1.0  0.75161  0.94099  0.64586  1.0000
  C   C5582     1.0  0.75193  0.92588  0.65166  1.0000
  C   C5583     1.0  0.76039  0.91804  0.66221  1.0000
  C   C5584     1.0  0.76926  0.92491  0.66621  1.0000
  S   S1516     1.0  0.64296  0.78787  0.79618  1.0000
  H   H6642     1.0  0.74488  0.94719  0.63787  1.0000
  H   H6643     1.0  0.75999  0.90673  0.66749  1.0000
  S   S1517     1.0  0.67352  0.98299  0.89734  1.0000
  C   C5585     1.0  0.71556  0.92000  0.69864  1.0000
  S   S1518     1.0  0.51047  0.81509  0.66410  1.0000
  H   H6644     1.0  0.67803  0.79249  0.80962  1.0000
  H   H6645     1.0  0.66617  0.78634  0.86657  1.0000
  C   C5586     1.0  0.72313  0.92922  0.68633  1.0000
  C   C5587     1.0  0.89371  0.79671  0.60795  1.0000
  C   C5588     1.0  0.50783  0.86970  0.67704  1.0000
  H   H6646     1.0  0.71371  0.80191  0.51680  1.0000
  H   H6647     1.0  0.62441  0.78670  0.85307  1.0000
  C   C5589     1.0  0.49773  0.80212  0.73025  1.0000
  H   H6648     1.0  0.77642  0.80368  0.64729  1.0000
  C   C5590     1.0  0.96262  0.78848  0.59958  1.0000
  H   H6649     1.0  0.81284  0.83204  0.50883  1.0000
  C   C5591     1.0  0.70941  0.94003  0.71190  1.0000
  H   H6650     1.0  0.76157  0.82506  0.48973  1.0000
  C   C5592     1.0  0.49746  0.88170  0.64229  1.0000
  C   C5593     1.0  0.49586  0.79701  0.74560  1.0000
  H   H6651     1.0  0.61140  0.82656  0.93010  1.0000
  C   C5594     1.0  0.68755  0.80561  0.77978  1.0000
  H   H6652     1.0  0.65290  0.79394  0.75594  1.0000
  C   C5595     1.0  0.66759  0.81111  0.65347  1.0000
  H   H6653     1.0  0.65933  0.80458  0.65427  1.0000
  H   H6654     1.0  0.67533  0.81128  0.52145  1.0000
  N   N369      1.0  0.79318  0.81584  0.63377  1.0000
  C   C5596     1.0  0.80301  0.80238  0.62894  1.0000
  C   C5597     1.0  0.79849  0.81842  0.64564  1.0000
  C   C5598     1.0  0.78999  0.81747  0.66041  1.0000
  C   C5599     1.0  0.81277  0.82172  0.64265  1.0000
  C   C5600     1.0  0.79528  0.82028  0.67125  1.0000
  C   C5601     1.0  0.81803  0.82428  0.65361  1.0000
  C   C5602     1.0  0.80923  0.82373  0.66784  1.0000
  H   H6655     1.0  0.77396  0.81199  0.62899  1.0000
  H   H6656     1.0  0.80525  0.83028  0.61574  1.0000
  S   S1519     1.0  0.59242  0.79636  0.72528  1.0000
  H   H6657     1.0  0.79964  0.80019  0.61979  1.0000
  H   H6658     1.0  0.81483  0.80334  0.62481  1.0000
  H   H6659     1.0  0.77905  0.81499  0.66379  1.0000
  H   H6660     1.0  0.81993  0.82258  0.63172  1.0000
  H   H6661     1.0  0.78838  0.82004  0.68232  1.0000
  H   H6662     1.0  0.82882  0.82716  0.65089  1.0000
  H   H6663     1.0  0.81319  0.82615  0.67618  1.0000
  C   C5603     1.0  0.85273  0.92374  0.62368  1.0000
  H   H6664     1.0  0.72867  0.92550  0.67621  1.0000
  H   H6665     1.0  0.63589  0.83109  0.74561  1.0000
  H   H6666     1.0  0.72936  0.80540  0.60076  1.0000
  H   H6667     1.0  0.71621  0.81091  0.53413  1.0000
  C   C5604     1.0  0.59902  0.78476  0.92576  1.0000
  N   N370      1.0  0.64200  0.88805  0.92901  1.0000
  C   C5605     1.0  0.63736  0.87977  0.94435  1.0000
  C   C5606     1.0  0.63365  0.88503  0.91972  1.0000
  C   C5607     1.0  0.65816  0.88208  0.92351  1.0000
  C   C5608     1.0  0.63927  0.90398  0.92889  1.0000
  C   C5609     1.0  0.62829  0.91498  0.92209  1.0000
  C   C5610     1.0  0.64761  0.90890  0.93590  1.0000
  C   C5611     1.0  0.62618  0.92993  0.92203  1.0000
  C   C5612     1.0  0.64553  0.92391  0.93558  1.0000
  C   C5613     1.0  0.63488  0.93441  0.92861  1.0000
  H   H6668     1.0  0.62530  0.88395  0.94895  1.0000
  H   H6669     1.0  0.63918  0.86771  0.94485  1.0000
  H   H6670     1.0  0.64377  0.88080  0.95185  1.0000
  H   H6671     1.0  0.62135  0.88823  0.92382  1.0000
  H   H6672     1.0  0.63619  0.87306  0.91973  1.0000
  H   H6673     1.0  0.63658  0.89099  0.90801  1.0000
  H   H6674     1.0  0.66511  0.88162  0.93115  1.0000
  H   H6675     1.0  0.66038  0.87053  0.92208  1.0000
  H   H6676     1.0  0.66253  0.88892  0.91265  1.0000
  H   H6677     1.0  0.62151  0.91246  0.91627  1.0000
  H   H6678     1.0  0.65601  0.90122  0.94145  1.0000
  H   H6679     1.0  0.61819  0.93821  0.91627  1.0000
  H   H6680     1.0  0.72518  0.80353  0.54900  1.0000
  C   C5614     1.0  0.60017  0.79195  0.75159  1.0000
  N   N371      1.0  0.93924  0.88691  0.62422  1.0000
  C   C5615     1.0  0.93002  0.88187  0.63904  1.0000
  C   C5616     1.0  0.93222  0.88528  0.61303  1.0000
  C   C5617     1.0  0.95428  0.87689  0.62286  1.0000
  C   C5618     1.0  0.94063  0.90225  0.62246  1.0000
  C   C5619     1.0  0.93653  0.91401  0.61060  1.0000
  C   C5620     1.0  0.94633  0.90580  0.63281  1.0000
  C   C5621     1.0  0.93799  0.92836  0.60934  1.0000
  C   C5622     1.0  0.94753  0.92024  0.63155  1.0000
  C   C5623     1.0  0.94334  0.93149  0.61985  1.0000
  H   H6681     1.0  0.93548  0.88072  0.64815  1.0000
  H   H6682     1.0  0.91904  0.88972  0.64099  1.0000
  H   H6683     1.0  0.92775  0.87082  0.64031  1.0000
  H   H6684     1.0  0.92069  0.89222  0.61367  1.0000
  H   H6685     1.0  0.93129  0.87369  0.61469  1.0000
  H   H6686     1.0  0.93890  0.88819  0.60161  1.0000
  H   H6687     1.0  0.96164  0.88039  0.61194  1.0000
  H   H6688     1.0  0.95992  0.87663  0.63155  1.0000
  H   H6689     1.0  0.95364  0.86525  0.62393  1.0000
  H   H6690     1.0  0.93179  0.91255  0.60232  1.0000
  H   H6691     1.0  0.94972  0.89747  0.64208  1.0000
  H   H6692     1.0  0.93443  0.93724  0.60044  1.0000
  H   H6693     1.0  0.95143  0.92283  0.63983  1.0000
  H   H6694     1.0  0.94388  0.94276  0.61915  1.0000
  H   H6695     1.0  0.73581  0.93796  0.74962  1.0000
  H   H6696     1.0  0.70080  0.83222  0.48072  1.0000
  H   H6697     1.0  0.51461  0.81748  0.75354  1.0000
  H   H6698     1.0  0.56040  0.80837  0.71351  1.0000
  C   C5624     1.0  0.66286  0.79369  0.93062  1.0000
  S   S1520     1.0  0.50070  0.80659  0.78644  1.0000
  H   H6699     1.0  0.73831  0.96017  0.78385  1.0000
  C   C5625     1.0  0.72379  0.94335  0.68681  1.0000
  N   N372      1.0  0.55806  0.82993  0.75456  1.0000
  C   C5626     1.0  0.56451  0.81442  0.76136  1.0000
  C   C5627     1.0  0.57064  0.83650  0.74464  1.0000
  C   C5628     1.0  0.55116  0.83838  0.76635  1.0000
  C   C5629     1.0  0.54654  0.83020  0.74688  1.0000
  C   C5630     1.0  0.54681  0.83739  0.73180  1.0000
  C   C5631     1.0  0.53444  0.82324  0.75456  1.0000
  C   C5632     1.0  0.53577  0.83732  0.72490  1.0000
  C   C5633     1.0  0.52354  0.82317  0.74751  1.0000
  C   C5634     1.0  0.52421  0.83015  0.73271  1.0000
  H   H6700     1.0  0.56872  0.80741  0.75302  1.0000
  H   H6701     1.0  0.57400  0.81368  0.76628  1.0000
  H   H6702     1.0  0.55631  0.80923  0.77055  1.0000
  H   H6703     1.0  0.57618  0.83070  0.73541  1.0000
  H   H6704     1.0  0.57942  0.83560  0.75059  1.0000
  H   H6705     1.0  0.56691  0.84850  0.73993  1.0000
  H   H6706     1.0  0.54639  0.85016  0.76170  1.0000
  H   H6707     1.0  0.54194  0.83381  0.77459  1.0000
  H   H6708     1.0  0.55943  0.83812  0.77263  1.0000
  H   H6709     1.0  0.55545  0.84310  0.72501  1.0000
  H   H6710     1.0  0.53334  0.81772  0.76610  1.0000
  H   H6711     1.0  0.53633  0.84275  0.71335  1.0000
  H   H6712     1.0  0.66222  0.82636  0.78471  1.0000
  H   H6713     1.0  0.74521  0.81596  0.53270  1.0000
  C   C5635     1.0  0.75869  0.78555  0.57988  1.0000
  C   C5636     1.0  0.76038  0.94799  0.65003  1.0000
  H   H6714     1.0  0.68077  0.80649  0.81629  1.0000
  H   H6715     1.0  0.89282  0.78895  0.57558  1.0000
  H   H6716     1.0  0.64288  0.81647  0.71293  1.0000
  C   C5637     1.0  0.86642  0.95293  0.63863  1.0000
  N   N373      1.0  0.66081  0.82308  0.66179  1.0000
  C   C5638     1.0  0.65533  0.81602  0.67743  1.0000
  C   C5639     1.0  0.64785  0.83259  0.65562  1.0000
  H   H6717     1.0  0.54791  0.79429  0.68697  1.0000
  C   C5640     1.0  0.67125  0.83217  0.66112  1.0000
  C   C5641     1.0  0.66636  0.84396  0.66867  1.0000
  C   C5642     1.0  0.68653  0.82925  0.65370  1.0000
  C   C5643     1.0  0.67616  0.85227  0.66880  1.0000
  C   C5644     1.0  0.69624  0.83755  0.65403  1.0000
  C   C5645     1.0  0.69110  0.84904  0.66151  1.0000
  H   H6718     1.0  0.64789  0.82427  0.68390  1.0000
  H   H6719     1.0  0.64868  0.80788  0.67832  1.0000
  Fe  Fe761     1.0  0.63255  0.79304  0.81853  1.0000
  H   H6720     1.0  0.64184  0.84177  0.66130  1.0000
  H   H6721     1.0  0.63936  0.82622  0.65688  1.0000
  H   H6722     1.0  0.65133  0.83750  0.64365  1.0000
  H   H6723     1.0  0.70412  0.78670  0.74586  1.0000
  S   S1521     1.0  0.72949  0.79162  0.57780  1.0000
  H   H6724     1.0  0.51084  0.87115  0.69781  1.0000
  H   H6725     1.0  0.65492  0.84674  0.67467  1.0000
  H   H6726     1.0  0.69136  0.82049  0.64770  1.0000
  H   H6727     1.0  0.67221  0.86113  0.67476  1.0000
  H   H6728     1.0  0.70795  0.83492  0.64866  1.0000
  H   H6729     1.0  0.69884  0.85528  0.66177  1.0000
  N   N374      1.0  0.85938  0.95257  0.65444  1.0000
  C   C5646     1.0  0.85417  0.96811  0.65627  1.0000
  C   C5647     1.0  0.87088  0.94507  0.66335  1.0000
  C   C5648     1.0  0.83195  0.95120  0.66336  1.0000
  C   C5649     1.0  0.93953  0.78378  0.56961  1.0000
  C   C5650     1.0  0.50282  0.87250  0.69127  1.0000
  H   H6730     1.0  0.52802  0.78834  0.68001  1.0000
  H   H6731     1.0  0.80270  0.79245  0.63818  1.0000
  S   S1522     1.0  0.92429  0.97950  0.61830  1.0000
  H   H6732     1.0  0.65635  0.81589  0.75648  1.0000
  H   H6733     1.0  0.82820  0.96280  0.66366  1.0000
  N   N375      1.0  0.67382  0.86917  0.61205  1.0000
  C   C5651     1.0  0.67107  0.87492  0.59682  1.0000
  C   C5652     1.0  0.68402  0.87755  0.61355  1.0000
  C   C5653     1.0  0.68160  0.85342  0.61358  1.0000
  C   C5654     1.0  0.65965  0.87026  0.62338  1.0000
  C   C5655     1.0  0.65836  0.87375  0.63712  1.0000
  C   C5656     1.0  0.64698  0.86672  0.62143  1.0000
  C   C5657     1.0  0.64493  0.87445  0.64778  1.0000
  C   C5658     1.0  0.63361  0.86749  0.63215  1.0000
  C   C5659     1.0  0.63255  0.87148  0.64523  1.0000
  H   H6734     1.0  0.66370  0.88620  0.59562  1.0000
  H   H6735     1.0  0.68167  0.87549  0.58829  1.0000
  H   H6736     1.0  0.66597  0.86763  0.59356  1.0000
  H   H6737     1.0  0.69382  0.87798  0.60403  1.0000
  H   H6738     1.0  0.68896  0.87227  0.62343  1.0000
  H   H6739     1.0  0.67818  0.88920  0.61402  1.0000
  H   H6740     1.0  0.67475  0.84665  0.61189  1.0000
  H   H6741     1.0  0.69234  0.85210  0.60527  1.0000
  H   H6742     1.0  0.68420  0.84863  0.62469  1.0000
  H   H6743     1.0  0.66759  0.87592  0.63989  1.0000
  H   H6744     1.0  0.64728  0.86314  0.61169  1.0000
  H   H6745     1.0  0.64407  0.87721  0.65817  1.0000
  H   H6746     1.0  0.62405  0.86482  0.63036  1.0000
  H   H6747     1.0  0.62219  0.87198  0.65356  1.0000
  N   N376      1.0  0.76816  0.84462  0.57178  1.0000
  C   C5660     1.0  0.76149  0.83333  0.58379  1.0000
  C   C5661     1.0  0.75601  0.85695  0.56699  1.0000
  C   C5662     1.0  0.77606  0.83746  0.55911  1.0000
  C   C5663     1.0  0.77794  0.85047  0.57715  1.0000
  C   C5664     1.0  0.79289  0.85118  0.56951  1.0000
  C   C5665     1.0  0.77248  0.85598  0.59031  1.0000
  C   C5666     1.0  0.80200  0.85618  0.57527  1.0000
  C   C5667     1.0  0.78166  0.86106  0.59587  1.0000
  C   C5668     1.0  0.79645  0.86097  0.58849  1.0000
  H   H6748     1.0  0.75381  0.83800  0.59314  1.0000
  H   H6749     1.0  0.75469  0.82813  0.57990  1.0000
  H   H6750     1.0  0.77033  0.82430  0.58830  1.0000
  H   H6751     1.0  0.74927  0.86260  0.57606  1.0000
  H   H6752     1.0  0.74808  0.85303  0.56323  1.0000
  H   H6753     1.0  0.76055  0.86550  0.55774  1.0000
  H   H6754     1.0  0.76852  0.83277  0.55565  1.0000
  H   H6755     1.0  0.78059  0.84540  0.54916  1.0000
  H   H6756     1.0  0.78543  0.82811  0.56202  1.0000
  H   H6757     1.0  0.79799  0.84753  0.55928  1.0000
  H   H6758     1.0  0.76105  0.85641  0.59642  1.0000
  H   H6759     1.0  0.81353  0.85615  0.56953  1.0000
  H   H6760     1.0  0.77737  0.86502  0.60604  1.0000
  H   H6761     1.0  0.80360  0.86463  0.59304  1.0000
  N   N377      1.0  0.61827  0.87794  0.81398  1.0000
  C   C5669     1.0  0.62200  0.87223  0.82879  1.0000
  C   C5670     1.0  0.62883  0.88740  0.80474  1.0000
  C   C5671     1.0  0.60290  0.88727  0.81602  1.0000
  C   C5672     1.0  0.61908  0.86611  0.80657  1.0000
  C   C5673     1.0  0.62323  0.85078  0.81300  1.0000
  C   C5674     1.0  0.61567  0.86980  0.79240  1.0000
  C   C5675     1.0  0.62402  0.83994  0.80560  1.0000
  C   C5676     1.0  0.61636  0.85886  0.78518  1.0000
  C   C5677     1.0  0.62055  0.84396  0.79175  1.0000
  H   H6762     1.0  0.61431  0.86524  0.83650  1.0000
  H   H6763     1.0  0.63365  0.86559  0.82805  1.0000
  H   H6764     1.0  0.62122  0.88132  0.83415  1.0000
  H   H6765     1.0  0.64047  0.88072  0.80267  1.0000
  H   H6766     1.0  0.62881  0.89621  0.81011  1.0000
  H   H6767     1.0  0.62621  0.89302  0.79375  1.0000
  H   H6768     1.0  0.59459  0.88041  0.82239  1.0000
  H   H6769     1.0  0.60168  0.89593  0.82211  1.0000
  H   H6770     1.0  0.59972  0.89319  0.80532  1.0000
  H   H6771     1.0  0.62655  0.84688  0.82345  1.0000
  H   H6772     1.0  0.61264  0.88118  0.78667  1.0000
  H   H6773     1.0  0.62767  0.82835  0.81052  1.0000
  H   H6774     1.0  0.61383  0.86194  0.77432  1.0000
  H   H6775     1.0  0.62123  0.83553  0.78600  1.0000
  H   H6776     1.0  0.50882  0.80167  0.72331  1.0000
  H   H6777     1.0  0.59507  0.82961  0.91199  1.0000
  C   C5678     1.0  0.96912  0.80632  0.57711  1.0000
  C   C5679     1.0  0.56983  0.78656  0.82428  1.0000
  C   C5680     1.0  0.49538  0.85637  0.65279  1.0000
  H   H6778     1.0  0.65410  0.79569  0.95324  1.0000
  H   H6779     1.0  0.63873  0.83051  0.48642  1.0000
  C   C5681     1.0  0.76947  0.93981  0.65997  1.0000
  C   C5682     1.0  0.72352  0.79183  0.49859  1.0000
  C   C5683     1.0  0.76125  0.98203  0.76055  1.0000
  H   H6780     1.0  0.75628  0.97078  0.70207  1.0000
  H   H6781     1.0  0.72532  0.97963  0.76596  1.0000
  H   H6782     1.0  0.94027  0.81167  0.60630  1.0000
  H   H6783     1.0  0.67705  0.80306  0.65789  1.0000
  C   C5684     1.0  0.92573  0.79347  0.56896  1.0000
  S   S1523     1.0  0.50449  0.78568  0.81913  1.0000
  H   H6784     1.0  0.61197  0.79490  0.86778  1.0000
  H   H6785     1.0  0.51583  0.82987  0.72726  1.0000
  S   S1524     1.0  0.81252  0.78776  0.56833  1.0000
  H   H6786     1.0  0.69448  0.90301  0.71348  1.0000
  H   H6787     1.0  0.70427  0.94423  0.72188  1.0000
  H   H6788     1.0  0.87596  0.95852  0.63489  1.0000
  C   C5685     1.0  0.71687  0.94878  0.69956  1.0000
  H   H6789     1.0  0.86299  0.92772  0.62001  1.0000
  H   H6790     1.0  0.93276  0.79142  0.64106  1.0000
  H   H6791     1.0  0.52483  0.87158  0.64788  1.0000
  C   C5686     1.0  0.75221  0.80010  0.60295  1.0000
  C   C5687     1.0  0.63155  0.81529  0.89860  1.0000
  H   H6792     1.0  0.62985  0.80964  0.89080  1.0000
  H   H6793     1.0  0.63449  0.82596  0.89198  1.0000
  H   H6794     1.0  0.64145  0.80839  0.90303  1.0000
  H   H6795     1.0  0.60419  0.82420  0.89448  1.0000
  H   H6796     1.0  0.67134  0.79531  0.90724  1.0000
  N   N378      1.0  0.81227  0.90729  0.63628  1.0000
  C   C5688     1.0  0.81340  0.89788  0.62604  1.0000
  C   C5689     1.0  0.81058  0.89821  0.65157  1.0000
  C   C5690     1.0  0.79837  0.91898  0.63554  1.0000
  C   C5691     1.0  0.82598  0.91315  0.63231  1.0000
  C   C5692     1.0  0.82567  0.92855  0.62917  1.0000
  C   C5693     1.0  0.84026  0.90333  0.63150  1.0000
  C   C5694     1.0  0.85339  0.90860  0.62717  1.0000
  H   H6797     1.0  0.82275  0.88802  0.62683  1.0000
  H   H6798     1.0  0.80313  0.89351  0.62845  1.0000
  H   H6799     1.0  0.81522  0.90414  0.61435  1.0000
  H   H6800     1.0  0.82050  0.88903  0.65301  1.0000
  H   H6801     1.0  0.80075  0.89304  0.65473  1.0000
  H   H6802     1.0  0.80902  0.90502  0.65967  1.0000
  H   H6803     1.0  0.79873  0.92613  0.62425  1.0000
  H   H6804     1.0  0.78830  0.91418  0.63845  1.0000
  H   H6805     1.0  0.79634  0.92609  0.64350  1.0000
  H   H6806     1.0  0.85526  0.78772  0.52047  1.0000
  H   H6807     1.0  0.84145  0.89144  0.63407  1.0000
  H   H6808     1.0  0.86418  0.90089  0.62629  1.0000
  N   N379      1.0  0.67076  0.91637  0.83704  1.0000
  C   C5695     1.0  0.67113  0.90432  0.85055  1.0000
  C   C5696     1.0  0.65505  0.92236  0.83560  1.0000
  C   C5697     1.0  0.67920  0.90946  0.82429  1.0000
  C   C5698     1.0  0.67686  0.92850  0.83801  1.0000
  C   C5699     1.0  0.67250  0.93397  0.85114  1.0000
  C   C5700     1.0  0.68654  0.93580  0.82585  1.0000
  C   C5701     1.0  0.94567  0.79903  0.58268  1.0000
  C   C5702     1.0  0.69225  0.94711  0.82721  1.0000
  C   C5703     1.0  0.69751  0.83006  0.49264  1.0000
  H   H6809     1.0  0.66313  0.90764  0.86044  1.0000
  H   H6810     1.0  0.66783  0.89459  0.84946  1.0000
  H   H6811     1.0  0.68254  0.90043  0.85287  1.0000
  H   H6812     1.0  0.65426  0.93149  0.82560  1.0000
  H   H6813     1.0  0.64796  0.92689  0.84534  1.0000
  H   H6814     1.0  0.65000  0.91368  0.83466  1.0000
  H   H6815     1.0  0.69129  0.90552  0.82440  1.0000
  H   H6816     1.0  0.67510  0.89969  0.82440  1.0000
  H   H6817     1.0  0.67794  0.91714  0.81354  1.0000
  H   H6818     1.0  0.69759  0.91343  0.68598  1.0000
  H   H6819     1.0  0.68973  0.93306  0.81513  1.0000
  C   C5704     1.0  0.74169  0.95442  0.75671  1.0000
  H   H6820     1.0  0.69968  0.95251  0.81785  1.0000
  H   H6821     1.0  0.69295  0.96018  0.84168  1.0000
  N   N380      1.0  0.68143  0.81236  0.79285  1.0000
  C   C5705     1.0  0.68792  0.82504  0.79176  1.0000
  H   H6822     1.0  0.75834  0.95621  0.78074  1.0000
  H   H6823     1.0  0.54106  0.81077  0.71328  1.0000
  H   H6824     1.0  0.71888  0.79130  0.54242  1.0000
  Fe  Fe762     1.0  0.77728  0.97190  0.66131  1.0000
  C   C5706     1.0  0.84580  0.78399  0.52913  1.0000
  H   H6825     1.0  0.68462  0.83465  0.78285  1.0000
  H   H6826     1.0  0.73678  0.82104  0.51708  1.0000
  H   H6827     1.0  0.70032  0.82185  0.78979  1.0000
  C   C5707     1.0  0.75177  0.96368  0.75420  1.0000
  H   H6828     1.0  0.92595  0.78936  0.61960  1.0000
  H   H6829     1.0  0.96522  0.81669  0.56926  1.0000
  H   H6830     1.0  0.67596  0.81300  0.71722  1.0000
  Fe  Fe763     1.0  0.67423  0.96072  0.78444  1.0000
  N   N381      1.0  0.95658  0.80198  0.58916  1.0000
  H   H6831     1.0  0.55548  0.80807  0.69724  1.0000
  H   H6832     1.0  0.73185  0.95487  0.76557  1.0000
  H   H6833     1.0  0.75575  0.81034  0.51589  1.0000
  C   C5708     1.0  0.70867  0.92585  0.71152  1.0000
  H   H6834     1.0  0.70779  0.89487  0.68471  1.0000
  C   C5709     1.0  0.69941  0.79197  0.75518  1.0000
  H   H6835     1.0  0.85827  0.95894  0.63151  1.0000
  C   C5710     1.0  0.74441  0.81198  0.52325  1.0000
  C   C5711     1.0  0.68836  0.95159  0.84056  1.0000
  H   H6836     1.0  0.88077  0.80317  0.58455  1.0000
  S   S1525     1.0  0.84068  0.80319  0.56522  1.0000
  H   H6837     1.0  0.75779  0.93623  0.72875  1.0000
  C   C5712     1.0  0.92170  0.80591  0.57504  1.0000
  H   H6838     1.0  0.86482  0.79617  0.60974  1.0000
  C   C5713     1.0  0.79371  0.82864  0.62095  1.0000
  C   C5714     1.0  0.94943  0.78653  0.57625  1.0000
  H   H6839     1.0  0.62327  0.83635  0.91474  1.0000
  H   H6840     1.0  0.78701  0.83907  0.62437  1.0000
  H   H6841     1.0  0.78930  0.82728  0.61203  1.0000
  H   H6842     1.0  0.51978  0.86623  0.67329  1.0000
  C   C5715     1.0  0.84728  0.94438  0.65900  1.0000
  H   H6843     1.0  0.60608  0.78866  0.77230  1.0000
  H   H6844     1.0  0.80922  0.94843  0.67090  1.0000
  H   H6845     1.0  0.63408  0.79528  0.92865  1.0000
  C   C5716     1.0  0.54857  0.78652  0.81524  1.0000
  H   H6846     1.0  0.84231  0.90947  0.66270  1.0000
  C   C5717     1.0  0.62101  0.82520  0.92054  1.0000
  C   C5718     1.0  0.61452  0.80316  0.91875  1.0000
  H   H6847     1.0  0.74874  0.78932  0.54753  1.0000
  H   H6848     1.0  0.63105  0.81910  0.92502  1.0000
  N   N382      1.0  0.71531  0.90497  0.69780  1.0000
  C   C5719     1.0  0.82085  0.94308  0.66751  1.0000
  H   H6849     1.0  0.87101  0.94167  0.63637  1.0000
  H   H6850     1.0  0.63306  0.79554  0.71326  1.0000
  C   C5720     1.0  0.74074  0.80008  0.59654  1.0000
  H   H6851     1.0  0.72981  0.95006  0.67726  1.0000
  H   H6852     1.0  0.86577  0.94337  0.67539  1.0000
  C   C5721     1.0  0.74392  0.79255  0.58520  1.0000
  C   C5722     1.0  0.73467  0.96993  0.71644  1.0000
  C   C5723     1.0  0.67835  0.94517  0.85245  1.0000
  H   H6853     1.0  0.67301  0.80635  0.74544  1.0000
  H   H6854     1.0  0.97797  0.80806  0.58148  1.0000
  S   S1526     1.0  0.65789  0.84007  0.59376  1.0000
  H   H6855     1.0  0.67253  0.83179  0.71891  1.0000
  C   C5724     1.0  0.95014  0.81404  0.59741  1.0000
  C   C5725     1.0  0.73786  0.79351  0.51537  1.0000
  H   H6856     1.0  0.59438  0.80540  0.91088  1.0000
  C   C5726     1.0  0.73078  0.89592  0.69549  1.0000
  C   C5727     1.0  0.77026  0.78606  0.58591  1.0000
  H   H6857     1.0  0.71597  0.91007  0.67430  1.0000
  Fe  Fe764     1.0  0.90763  0.96749  0.63513  1.0000
  Fe  Fe765     1.0  0.62014  0.79777  0.79150  1.0000
  C   C5728     1.0  0.60204  0.79853  0.91772  1.0000
  H   H6858     1.0  0.73796  0.90049  0.68492  1.0000
  H   H6859     1.0  0.67151  0.81563  0.64146  1.0000
  H   H6860     1.0  0.69820  0.82340  0.76470  1.0000
  C   C5729     1.0  0.75626  0.94364  0.73591  1.0000
  C   C5730     1.0  0.83891  0.93368  0.62487  1.0000
  H   H6861     1.0  0.52316  0.85261  0.65589  1.0000
  C   C5731     1.0  0.72416  0.79633  0.51090  1.0000
  C   C5732     1.0  0.82455  0.92811  0.66734  1.0000
  H   H6862     1.0  0.86205  0.92323  0.65537  1.0000
  C   C5733     1.0  0.70638  0.89696  0.71130  1.0000
  H   H6863     1.0  0.94677  0.82497  0.59004  1.0000
  H   H6864     1.0  0.70641  0.88571  0.71031  1.0000
  C   C5734     1.0  0.63804  0.79516  0.72218  1.0000
  S   S1527     1.0  0.67005  0.97963  0.79551  1.0000
  Fe  Fe766     1.0  0.69463  0.97851  0.78685  1.0000
  C   C5735     1.0  0.83944  0.92111  0.66297  1.0000
  H   H6865     1.0  0.91828  0.79139  0.56352  1.0000
  H   H6866     1.0  0.81580  0.92199  0.67058  1.0000
  C   C5736     1.0  0.74917  0.78667  0.53688  1.0000
  S   S1528     1.0  0.90788  0.97761  0.65335  1.0000
  H   H6867     1.0  0.83843  0.94546  0.62234  1.0000
  S   S1529     1.0  0.66513  0.94015  0.79340  1.0000
  H   H6868     1.0  0.77762  0.83880  0.49326  1.0000
  H   H6869     1.0  0.92764  0.81867  0.58610  1.0000
  H   H6870     1.0  0.64824  0.84267  0.73397  1.0000
  H   H6871     1.0  0.61882  0.81925  0.48584  1.0000
  H   H6872     1.0  0.86627  0.78389  0.55544  1.0000
  H   H6873     1.0  0.65993  0.82266  0.80439  1.0000
  S   S1530     1.0  0.69903  0.95822  0.77799  1.0000
  C   C5737     1.0  0.74822  0.96524  0.77964  1.0000
  C   C5738     1.0  0.70888  0.90592  0.68516  1.0000
  H   H6874     1.0  0.84869  0.96871  0.66795  1.0000
  C   C5739     1.0  0.64994  0.80697  0.73387  1.0000
  C   C5740     1.0  0.67278  0.97773  0.71864  1.0000
  H   H6875     1.0  0.52202  0.86060  0.63717  1.0000
  N   N383      1.0  0.74923  0.97380  0.76413  1.0000
  C   C5741     1.0  0.75090  0.78661  0.50626  1.0000
  H   H6876     1.0  0.65390  0.79544  0.63356  1.0000
  H   H6877     1.0  0.91098  0.81356  0.57443  1.0000
  H   H6878     1.0  0.93119  0.79659  0.48362  1.0000
  H   H6879     1.0  0.83691  0.79406  0.53105  1.0000
  H   H6880     1.0  0.73621  0.89507  0.70458  1.0000
  C   C5742     1.0  0.66507  0.81773  0.79450  1.0000
  H   H6881     1.0  0.66157  0.82726  0.70957  1.0000
  C   C5743     1.0  0.66417  0.81666  0.74544  1.0000
  C   C5744     1.0  0.68462  0.79189  0.78005  1.0000
  H   H6882     1.0  0.77230  0.97434  0.76120  1.0000
  H   H6883     1.0  0.73440  0.95963  0.71426  1.0000
  H   H6884     1.0  0.65942  0.80868  0.79596  1.0000
  H   H6885     1.0  0.71091  0.89524  0.72123  1.0000
  H   H6886     1.0  0.76050  0.95953  0.64517  1.0000
  H   H6887     1.0  0.56158  0.78830  0.73357  1.0000
  C   C5745     1.0  0.76627  0.95270  0.73298  1.0000
  H   H6888     1.0  0.87721  0.93417  0.66085  1.0000
  H   H6889     1.0  0.66983  0.82570  0.74416  1.0000
  H   H6890     1.0  0.63751  0.83576  0.72603  1.0000
  C   C5746     1.0  0.76407  0.96267  0.74187  1.0000
  H   H6891     1.0  0.71288  0.79392  0.49553  1.0000
  S   S1531     1.0  0.68073  0.81198  0.49051  1.0000
  H   H6892     1.0  0.73102  0.88446  0.69505  1.0000
  H   H6893     1.0  0.97467  0.79767  0.57056  1.0000
  C   C5747     1.0  0.74704  0.97628  0.70946  1.0000
  C   C5748     1.0  0.76502  0.83379  0.48068  1.0000
  C   C5749     1.0  0.64933  0.79462  0.74607  1.0000
  S   S1532     1.0  0.78236  0.94726  0.66374  1.0000
  H   H6894     1.0  0.84076  0.78566  0.50227  1.0000
  H   H6895     1.0  0.86360  0.97381  0.65319  1.0000
  S   S1533     1.0  0.67005  0.97510  0.76271  1.0000
  Fe  Fe767     1.0  0.69463  0.97390  0.75695  1.0000
  H   H6896     1.0  0.68381  0.82936  0.80206  1.0000
  H   H6897     1.0  0.76106  0.78560  0.53091  1.0000
  C   C5750     1.0  0.52914  0.78483  0.69142  1.0000
  H   H6898     1.0  0.67215  0.97231  0.71014  1.0000
  H   H6899     1.0  0.88422  0.80584  0.60657  1.0000
  H   H6900     1.0  0.66449  0.97437  0.72893  1.0000
  H   H6901     1.0  0.49817  0.84626  0.66136  1.0000
  C   C5751     1.0  0.54194  0.78414  0.71047  1.0000
  H   H6902     1.0  0.54179  0.79029  0.73678  1.0000
  Fe  Fe768     1.0  0.80412  0.79850  0.48057  1.0000
  H   H6903     1.0  0.70836  0.81135  0.74414  1.0000
  H   H6904     1.0  0.96975  0.79078  0.60563  1.0000
  H   H6905     1.0  0.68392  0.97287  0.72140  1.0000
  H   H6906     1.0  0.69651  0.79604  0.80532  1.0000
  C   C5752     1.0  0.77431  0.84155  0.48279  1.0000
  C   C5753     1.0  0.49760  0.87125  0.66819  1.0000
  H   H6907     1.0  0.89286  0.78477  0.55002  1.0000
  C   C5754     1.0  0.73643  0.78449  0.49031  1.0000
  C   C5755     1.0  0.86828  0.78444  0.60872  1.0000
  H   H6908     1.0  0.77554  0.95234  0.72345  1.0000
  C   C5756     1.0  0.76698  0.79310  0.59763  1.0000
  S   S1534     1.0  0.71136  0.98102  0.79783  1.0000
  S   S1535     1.0  0.78109  0.79310  0.60599  1.0000
  N   N384      1.0  0.55371  0.78835  0.71463  1.0000
  C   C5757     1.0  0.90476  0.79885  0.61350  1.0000
  C   C5758     1.0  0.62742  0.81114  0.47998  1.0000
  S   S1536     1.0  0.82537  0.78426  0.59752  1.0000
  H   H6909     1.0  0.67765  0.78626  0.78960  1.0000
  C   C5759     1.0  0.91744  0.78767  0.61525  1.0000
  H   H6910     1.0  0.52049  0.78465  0.86183  1.0000
  H   H6911     1.0  0.95350  0.78394  0.60808  1.0000
  C   C5760     1.0  0.61580  0.78464  0.86339  1.0000
  H   H6912     1.0  0.76152  0.80758  0.47825  1.0000
