data_image0
_chemical_formula_structural       H2FeCSH2S3CFeSH2CHC2SC8H3CH5SH2C2H8CHC4FeSNFeS2Fe2S3H2FeSHFeS2FeHFeS4C6H4C2N2CHCHC6H4C2HC3H6C3SHCH14NC5FeCH13CH3C6HCSHC2H2SC3HCHC3HCHFeHCSNH3CH2CFeC2HCH2C2H2C2NCH4CH2CH2CHC5H2C3H4C2H3C2HC3HCSNC3SFeC2HSC2FeHC2H2C3FeH4CHCHCHC3S2H3CH3CHS2HNCH5FeHFeC3HCH3CHC3H2C2SNS2HCH2SH3CH2C2H3CHC2SH2CFeSH2SCHCFeH2SH6CH2C3HC2HSFeSCHSHCH2CH2C2H2CH3SH2CFeCSH2CHSCHFeHSCSHC2HCHC2H2FeH2C2SH2C2HSCSFeSC2FeSHCH2NC2SH3CFeHNCHC3HFeHC3HCSNCNH5CH2C3SHC3HC2HFeS2CH2C2HCH2CHC4H3C3H2CH3NCH5NC2HC2H2CHFeH4C2HSC5HC2HC2SH2SCSHCH2CSC2H4CHSH3CH3CHCHCHCH2FeC4H3CH3CHCHC2HCH4C2HCHC2H4CHSHCHC5HC2H4NH5CH4SCHNCHFeHSH3CFeCH2SCH2CSH3C2H2NH2CH3CSHSHFeSNCH3SHFeNHFe2S2CHFeCS2FeH2CHCHFeHCFe2HC2HCS2HSCHFeSH2NSC3SC2FeHCH2Fe2HC4HSH2CH4SC2HC2H2CHC2SHCFeC2HSHNSCSHCNHC2HC3SHCSHCSC2H2CH2SH3CS2H2FeC2H4CHC2HC2NH3C3HC3HCHC4NHCHCSCSHSHFeHFeH5CHC3H2CHC2NH2FeS2FeS2FeSFeS3FeS2FeSFeSFeS3H2CH2FeSHS2FeSFeS2FeSFeS3FeS2FeS2FeSFeS3HC7H4C2HFeC7H3C6H4C6H3C6H4C6H4C6H6C3HNC7H4C2H2CHCNC2H5CH3CH4C3HC3HNC7H13C2H2CHC2H7CHCHCHC3HFeHC2H3SNC6H14SHCH2CHCH2SFeHCH2CNC9H14NC9H14NC2NCHCH3CHCH2CHCH4C2H2CNC2HCSH2C2HFeHC4SHC2HCH2SH2CHCH2CH2C3HCHC2HCH2C2NHC2HCH8C2HCHC2H2CH2CH2CHSCSCHCHC2H2CH2C2H3FeCH4SFeSFeS2FeS5C6H3C6H4SC2HNH2CFeCSFe2SHCHCHCHCH4C2H2SHC2H2C2H4CSH2FeC2HCSH3NCH2FeH2C2H5NHC2HCHCSCFeCH2C2H2CHCHCNHC2HCHFe2HC2HCSH2SH2CH2FeHFeS2FeS2FeSFeS3H3C2H3CHC2HC6H4CH2C3H4C6H4C2H2C3HC2H2CNCH3CH2C2SH2CHCH3C2SNCHCH2NC2HC2H3CH3CH7C3H4CHCFeS2FeS2FeSFeS3CHCH2S2FeS2FeS2FeSFeS4C6H5C5H4C6H4CH3C2HCH3C7H4C6H5C2H9C2H4CH2CNC9H16NSNCHCNHC2H2C5H2C2H2C2H2CH4CHSHC2H2NC9H11C2H4CH2C4H2CH2CSH2CHC4H2C3HCNH4CH2CHCHC2H2C3H2NCH4CH2C3H2CHCHCHCHSHFeS2FeSHFeS2Fe2S3HSFeSCFeSFeS2HSHFeS2H2FeHS2CHFeNCHFeSHS2CFe2CHC6H4C6H4C6H4C6H5NCHCSH2CHC4H2CNCSH3FeCHCH2C2H5CFeCHCHC2HCHCH4CSCSHCH3CH5SC2HCHC2H3C2H2CH4SCH2C2NC2HCSC2H4CH4SH2CH4CNHCHC2HCHCHC3H2CHC2H2C6HFeCH4CHFeNCH2CSHFeS2FeS2FeSFeHS2FeCSFeHSCH2S2HNSH3CH2C2HCHC6H2CSC6H4C2HC5H4CH2CH5C3HCHC3H4NC3HCSH2CHSHCH3CHCNCHNHCH5CH4NC2H5C2HC5H2C2HCH2C3H6FeHC3HSH3SH2C7H4CSFeS2FeS2FeSFeS3C2HFeSCHCFeSHFeS2FeSFeS4C6H4CHC8H2C2HCH7CSC6H4C6H4C6HCHCH3C2NC9H11NCHC4HCNH2C2NHCH2NH3CH3C3HNH7CH4C2H4CHCH2CH3CH2C3H6CH6S2H2CH2C3FeHCH8CHSH3C5H2CH2CH3C2HSCFeS2FeS2FeHFeS3C3H2CH3CHCH3FeHC6H5FeCH3C6H4C2H4CH5CH2CSCH2CH3SCSCH6CH2CS2NC2HCSC3HCHC2HCHCSH2NCSCH3CHCH2CH3CH2SFeSFe2SFeS2HCH2C2FeS2H2CNH5SH3CSCHCSC6FeH3CHC2H2C2HCH2C2HC3HSHC4HCH2CSC4HSNCHC2H2CH4CH7CH2CSCH4SHC2HC2HS2FeS2FeS2FeSFeS3CHSHC2HFeS2FeSFeSFeS3FeS2FeSFeSFeS3FeS2FeS2FeSFeHS2HCHC3H2CHCSHC6H4C6H4C6H4CHCHC3HCH3C6H5C8H4C7H3C3H2C2H5C4H5NC9H14CNC2HC2H2NCH2C2FeH2CH5C2HCHNCNCHCHNFeCH3CHC2H3C4NC8H12SCHC2HCH5CH3C2H3CHNC9H15C2SH2C2H2CSC2HC3HC5NCNC2H4C2NHCHC2HNH2S2HC2HCHCH4C2HCHCH2C3H3C2H4CHCHCHC5HCH6C3HC2H2FeH6CH2CHC3H2SC2H4C2H2SCHCH2C2H4CH3CHFeSFeS2FeSFeHS2HFeS2FeS2FeSFeHS2FeSH2SFeSFeSHSFeS2FeSFeS3FeSFeS2FeS2FeS2FeS2HFeS3H3C3SHC6H3C7H4C2H2C4H9C2H2C6H4C6H4C2HC4H3C3HCH4CHC7H4C6H7CHC2HCHCHCNC3H4NH3NC9H13NH2FeCHNC6H2CH3CH2CFeHC2H3NH2NC9H14CHN2H2C2HNHFeHCH5CHC4HCHCHCHC3HSHCSH3CHSC3S2H2C2HCSH2S2HCH3CHC2HCHCHC2H4NC7HCHCHSH2C3H5SH2C2H2CFeCHCH7CH4C2H3FeH4NHSC3H2C5H4CH5CSFeSHSNFeSFeS2FeSFeS3HCFeS2FeSFeHS2FeS2FeS2HCFeS3FeS2Fe2S3CFeC4H4C6H4C6H4C6H4C6H4C2HC2H2NCH8CSC2SHC3SHCHC2HFeH3CSHC2SHC2HCNHCH2FeH3C4HNC2H4C2H11C2HCH3CH2FeC2H2CH3FeCHCHCSH2CHCHC3H2C2H4CH2CHNCH2C3HC2HCH3CHCHCSCH3C2HCH2CHFeH3CH2FeS2FeS2FeHFeS3HCH2FeS2FeS2FeSFeS3C6H4C3HCH2C4HC2HC6H4CHNHCHC6HCSHC2H4C2H2CHNC9H12CH2CSHCH2CH2CHC3HC2HC2HCHNC5HCHCH4CH4CH3CNHCH2C2H3C3H2CH3C2H6C4NH3NSH5CSH3CH5C2H2C2HCHC2H3CH2CNCH2CHCHCSHCH2FeNH2CH3CH6S
_chemical_formula_sum              "H1944 Fe216 C1620 S432 N108"
_cell_length_a       73.8945
_cell_length_b       76.5038
_cell_length_c       44.952
_cell_angle_alpha    84.3018
_cell_angle_beta     87.6709
_cell_angle_gamma    111.771

_space_group_name_H-M_alt    "P 1"
_space_group_IT_number       1

loop_
  _space_group_symop_operation_xyz
  'x, y, z'

loop_
  _atom_site_type_symbol
  _atom_site_label
  _atom_site_symmetry_multiplicity
  _atom_site_fract_x
  _atom_site_fract_y
  _atom_site_fract_z
  _atom_site_occupancy
  H   H1        1.0  0.29050  0.12698  0.46346  1.0000
  H   H2        1.0  0.13995  0.23816  0.07226  1.0000
  Fe  Fe1       1.0  0.27884  0.22677  0.06784  1.0000
  C   C1        1.0  0.14781  0.23827  0.02437  1.0000
  S   S1        1.0  0.29366  0.20648  0.05804  1.0000
  H   H3        1.0  0.42073  0.09830  0.37362  1.0000
  H   H4        1.0  0.35572  0.04022  0.26088  1.0000
  S   S2        1.0  0.25653  0.22291  0.10654  1.0000
  S   S3        1.0  0.26499  0.24063  0.03454  1.0000
  S   S4        1.0  0.29480  0.15857  0.36824  1.0000
  C   C2        1.0  0.34386  0.10248  0.26363  1.0000
  Fe  Fe2       1.0  0.25275  0.25563  0.32766  1.0000
  S   S5        1.0  0.30046  0.24016  0.39363  1.0000
  H   H5        1.0  0.46546  0.03499  0.11113  1.0000
  H   H6        1.0  0.48663  0.14800  0.31129  1.0000
  C   C3        1.0  0.41497  0.10278  0.04450  1.0000
  H   H7        1.0  0.10192  0.21425  0.45642  1.0000
  C   C4        1.0  0.25957  0.25306  0.47718  1.0000
  C   C5        1.0  0.34978  0.09201  0.24450  1.0000
  S   S6        1.0  0.24683  0.23963  0.37424  1.0000
  C   C6        1.0  0.47273  0.11267  0.29384  1.0000
  C   C7        1.0  0.16514  0.21289  0.04771  1.0000
  C   C8        1.0  0.29844  0.21769  0.38480  1.0000
  C   C9        1.0  0.31469  0.21262  0.38735  1.0000
  C   C10       1.0  0.31367  0.19464  0.38172  1.0000
  C   C11       1.0  0.29627  0.18146  0.37374  1.0000
  C   C12       1.0  0.27999  0.18657  0.37057  1.0000
  C   C13       1.0  0.28109  0.20475  0.37596  1.0000
  H   H8        1.0  0.32816  0.22260  0.39384  1.0000
  H   H9        1.0  0.32645  0.19105  0.38346  1.0000
  H   H10       1.0  0.26845  0.20859  0.37395  1.0000
  C   C14       1.0  0.29319  0.19708  0.02352  1.0000
  H   H11       1.0  0.17248  0.20383  0.05669  1.0000
  H   H12       1.0  0.34891  0.05273  0.33653  1.0000
  H   H13       1.0  0.15525  0.21680  0.09113  1.0000
  H   H14       1.0  0.31785  0.18924  0.03190  1.0000
  H   H15       1.0  0.28080  0.18127  0.43990  1.0000
  S   S7        1.0  0.23942  0.24147  0.28734  1.0000
  H   H16       1.0  0.46120  0.02235  0.26819  1.0000
  H   H17       1.0  0.34629  0.11718  0.25646  1.0000
  C   C15       1.0  0.30562  0.19514  0.46260  1.0000
  C   C16       1.0  0.04784  0.20577  0.48375  1.0000
  H   H18       1.0  0.42436  0.02311  0.17086  1.0000
  H   H19       1.0  0.24604  0.13326  0.43922  1.0000
  H   H20       1.0  0.48602  0.03298  0.18894  1.0000
  H   H21       1.0  0.33186  0.25012  0.34851  1.0000
  H   H22       1.0  0.32806  0.07048  0.32559  1.0000
  H   H23       1.0  0.47898  0.11275  0.31595  1.0000
  H   H24       1.0  0.41314  0.01408  0.12318  1.0000
  H   H25       1.0  0.41434  0.09202  0.06265  1.0000
  C   C17       1.0  0.35068  0.21902  0.27892  1.0000
  H   H26       1.0  0.41950  0.15001  0.32971  1.0000
  C   C18       1.0  0.48883  0.03864  0.21009  1.0000
  C   C19       1.0  0.28760  0.16058  0.47039  1.0000
  C   C20       1.0  0.42592  0.13933  0.33136  1.0000
  C   C21       1.0  0.44136  0.11100  0.33479  1.0000
  Fe  Fe3       1.0  0.33180  0.13566  0.44327  1.0000
  S   S8        1.0  0.31863  0.12340  0.40249  1.0000
  N   N1        1.0  0.13952  0.25199  0.01152  1.0000
  Fe  Fe4       1.0  0.36092  0.17194  0.40542  1.0000
  S   S9        1.0  0.35008  0.16156  0.36180  1.0000
  S   S10       1.0  0.38588  0.20059  0.40391  1.0000
  Fe  Fe5       1.0  0.32038  0.15277  0.38643  1.0000
  Fe  Fe6       1.0  0.34966  0.13326  0.38228  1.0000
  S   S11       1.0  0.35808  0.11014  0.36516  1.0000
  S   S12       1.0  0.33126  0.16447  0.42891  1.0000
  S   S13       1.0  0.36287  0.14428  0.42409  1.0000
  H   H27       1.0  0.37267  0.10587  0.47537  1.0000
  H   H28       1.0  0.44605  0.01627  0.30315  1.0000
  Fe  Fe7       1.0  0.44436  0.07115  0.23920  1.0000
  S   S14       1.0  0.42387  0.04398  0.22530  1.0000
  H   H29       1.0  0.44479  0.11346  0.25766  1.0000
  Fe  Fe8       1.0  0.41423  0.08946  0.23673  1.0000
  S   S15       1.0  0.39124  0.06380  0.22253  1.0000
  S   S16       1.0  0.40832  0.11576  0.24412  1.0000
  Fe  Fe9       1.0  0.40160  0.04732  0.25696  1.0000
  H   H30       1.0  0.27248  0.06191  0.46114  1.0000
  Fe  Fe10      1.0  0.41527  0.06251  0.19150  1.0000
  S   S17       1.0  0.40513  0.05105  0.14804  1.0000
  S   S18       1.0  0.42265  0.07298  0.27387  1.0000
  S   S19       1.0  0.43775  0.08982  0.20273  1.0000
  S   S20       1.0  0.45183  0.07001  0.01985  1.0000
  C   C22       1.0  0.41825  0.05803  0.11242  1.0000
  C   C23       1.0  0.40875  0.05018  0.08773  1.0000
  C   C24       1.0  0.41893  0.05396  0.05930  1.0000
  C   C25       1.0  0.43876  0.06560  0.05530  1.0000
  C   C26       1.0  0.44826  0.07373  0.07988  1.0000
  C   C27       1.0  0.43802  0.07002  0.10840  1.0000
  H   H31       1.0  0.39347  0.04088  0.09067  1.0000
  H   H32       1.0  0.41145  0.04763  0.04054  1.0000
  H   H33       1.0  0.46360  0.08284  0.07686  1.0000
  H   H34       1.0  0.44546  0.07619  0.12728  1.0000
  C   C28       1.0  0.07145  0.19997  0.44990  1.0000
  C   C29       1.0  0.19827  0.24696  0.10827  1.0000
  N   N2        1.0  0.27182  0.14303  0.46370  1.0000
  N   N3        1.0  0.33686  0.04485  0.29460  1.0000
  C   C30       1.0  0.45745  0.12694  0.25829  1.0000
  H   H35       1.0  0.36646  0.05395  0.30685  1.0000
  C   C31       1.0  0.33799  0.21529  0.30456  1.0000
  H   H36       1.0  0.31080  0.04978  0.48038  1.0000
  C   C32       1.0  0.39468  0.11451  0.27796  1.0000
  C   C33       1.0  0.38887  0.09835  0.29903  1.0000
  C   C34       1.0  0.37798  0.09747  0.32584  1.0000
  C   C35       1.0  0.37266  0.11266  0.33177  1.0000
  C   C36       1.0  0.37855  0.12894  0.31084  1.0000
  C   C37       1.0  0.38957  0.12985  0.28396  1.0000
  H   H37       1.0  0.39273  0.08651  0.29465  1.0000
  H   H38       1.0  0.37361  0.08495  0.34208  1.0000
  H   H39       1.0  0.37447  0.14070  0.31522  1.0000
  H   H40       1.0  0.39402  0.14240  0.26772  1.0000
  C   C38       1.0  0.38177  0.22125  0.41106  1.0000
  C   C39       1.0  0.39740  0.23898  0.40628  1.0000
  H   H41       1.0  0.39000  0.10718  0.06327  1.0000
  C   C40       1.0  0.42655  0.11014  0.35599  1.0000
  C   C41       1.0  0.36057  0.23703  0.42702  1.0000
  C   C42       1.0  0.36332  0.22037  0.42145  1.0000
  H   H42       1.0  0.46130  0.09840  0.29275  1.0000
  H   H43       1.0  0.37430  0.02083  0.22733  1.0000
  H   H44       1.0  0.34626  0.23619  0.43520  1.0000
  H   H45       1.0  0.35120  0.20684  0.42536  1.0000
  H   H46       1.0  0.26649  0.17640  0.36431  1.0000
  H   H47       1.0  0.46272  0.01070  0.11020  1.0000
  C   C43       1.0  0.33341  0.07566  0.30241  1.0000
  C   C44       1.0  0.25227  0.24871  0.25135  1.0000
  C   C45       1.0  0.28011  0.06883  0.47935  1.0000
  S   S21       1.0  0.38185  0.02286  0.28963  1.0000
  H   H48       1.0  0.30750  0.20898  0.45127  1.0000
  C   C46       1.0  0.33890  0.06441  0.28332  1.0000
  H   H49       1.0  0.44900  0.02711  0.17941  1.0000
  H   H50       1.0  0.25082  0.15566  0.45289  1.0000
  H   H51       1.0  0.35242  0.06609  0.23807  1.0000
  H   H52       1.0  0.01278  0.17535  0.48064  1.0000
  H   H53       1.0  0.34256  0.21195  0.32636  1.0000
  H   H54       1.0  0.30979  0.21201  0.32268  1.0000
  H   H55       1.0  0.43413  0.03030  0.10114  1.0000
  H   H56       1.0  0.30558  0.03431  0.29377  1.0000
  H   H57       1.0  0.33047  0.03357  0.25238  1.0000
  H   H58       1.0  0.40719  0.12344  0.37050  1.0000
  H   H59       1.0  0.33180  0.10274  0.30779  1.0000
  H   H60       1.0  0.44435  0.04216  0.15002  1.0000
  H   H61       1.0  0.26535  0.15368  0.42083  1.0000
  H   H62       1.0  0.31395  0.03927  0.33017  1.0000
  N   N4        1.0  0.29223  0.21833  0.27237  1.0000
  C   C47       1.0  0.27809  0.19903  0.28397  1.0000
  C   C48       1.0  0.28913  0.23208  0.29101  1.0000
  C   C49       1.0  0.28752  0.22297  0.24146  1.0000
  C   C50       1.0  0.31244  0.21899  0.27407  1.0000
  C   C51       1.0  0.32579  0.22283  0.24831  1.0000
  Fe  Fe11      1.0  0.27644  0.25185  0.11638  1.0000
  C   C52       1.0  0.34462  0.22283  0.25088  1.0000
  H   H63       1.0  0.44644  0.09945  0.33729  1.0000
  H   H64       1.0  0.36514  0.21869  0.28079  1.0000
  H   H65       1.0  0.27952  0.19501  0.30794  1.0000
  H   H66       1.0  0.26267  0.19791  0.28253  1.0000
  H   H67       1.0  0.28026  0.18815  0.27111  1.0000
  H   H68       1.0  0.29066  0.22879  0.31520  1.0000
  H   H69       1.0  0.27412  0.23214  0.28991  1.0000
  H   H70       1.0  0.29967  0.24677  0.28338  1.0000
  H   H71       1.0  0.27227  0.22248  0.24114  1.0000
  H   H72       1.0  0.29720  0.23757  0.23153  1.0000
  H   H73       1.0  0.28858  0.21267  0.22631  1.0000
  H   H74       1.0  0.32200  0.22571  0.22589  1.0000
  H   H75       1.0  0.47089  0.01775  0.30220  1.0000
  C   C53       1.0  0.44897  0.12626  0.31113  1.0000
  H   H76       1.0  0.46842  0.12503  0.99975  1.0000
  H   H77       1.0  0.35686  0.09868  0.22243  1.0000
  H   H78       1.0  0.35645  0.25187  0.33957  1.0000
  C   C54       1.0  0.35126  0.04575  0.31699  1.0000
  C   C55       1.0  0.34029  0.03406  0.27068  1.0000
  C   C56       1.0  0.44057  0.14025  0.30987  1.0000
  C   C57       1.0  0.48437  0.05904  0.24533  1.0000
  C   C58       1.0  0.48139  0.14630  0.28847  1.0000
  C   C59       1.0  0.33025  0.07485  0.45474  1.0000
  H   H79       1.0  0.39140  0.13168  0.02181  1.0000
  C   C60       1.0  0.28055  0.13114  0.44908  1.0000
  S   S22       1.0  0.29958  0.25442  0.08024  1.0000
  H   H80       1.0  0.07444  0.19306  0.43143  1.0000
  C   C61       1.0  0.30699  0.18917  0.01643  1.0000
  C   C62       1.0  0.29020  0.17897  0.45633  1.0000
  H   H81       1.0  0.26850  0.20295  0.00863  1.0000
  H   H82       1.0  0.46878  0.12766  0.24059  1.0000
  S   S23       1.0  0.47363  0.07469  0.25631  1.0000
  C   C63       1.0  0.25791  0.14667  0.44336  1.0000
  C   C64       1.0  0.42946  0.10794  0.02073  1.0000
  C   C65       1.0  0.01231  0.18979  0.47825  1.0000
  H   H83       1.0  0.22979  0.22787  0.23042  1.0000
  C   C66       1.0  0.29370  0.08766  0.47366  1.0000
  H   H84       1.0  0.41174  0.23977  0.39838  1.0000
  C   C67       1.0  0.25458  0.24373  0.19859  1.0000
  C   C68       1.0  0.24413  0.23911  0.22707  1.0000
  C   C69       1.0  0.31919  0.21530  0.30223  1.0000
  H   H85       1.0  0.18194  0.25353  0.14335  1.0000
  C   C70       1.0  0.43961  0.02723  0.16076  1.0000
  H   H86       1.0  0.47044  0.05486  0.20412  1.0000
  Fe  Fe12      1.0  0.27921  0.25285  0.37678  1.0000
  H   H87       1.0  0.01365  0.19522  0.45404  1.0000
  C   C71       1.0  0.31687  0.03388  0.30918  1.0000
  S   S24       1.0  0.21369  0.23430  0.06239  1.0000
  N   N5        1.0  0.44061  0.01432  0.13884  1.0000
  H   H88       1.0  0.24831  0.23605  0.18018  1.0000
  H   H89       1.0  0.29640  0.09505  0.45123  1.0000
  H   H90       1.0  0.48458  0.11418  0.27644  1.0000
  C   C72       1.0  0.15543  0.22024  0.06709  1.0000
  H   H91       1.0  0.44501  0.15186  0.29194  1.0000
  H   H92       1.0  0.26667  0.23267  0.45459  1.0000
  C   C73       1.0  0.26041  0.13204  0.49195  1.0000
  Fe  Fe13      1.0  0.24443  0.23926  0.07369  1.0000
  C   C74       1.0  0.46102  0.02092  0.12504  1.0000
  C   C75       1.0  0.27919  0.19692  0.00340  1.0000
  H   H93       1.0  0.20283  0.23769  0.12327  1.0000
  C   C76       1.0  0.20301  0.24891  0.07738  1.0000
  H   H94       1.0  0.35448  0.22552  0.23093  1.0000
  H   H95       1.0  0.33780  0.01915  0.27951  1.0000
  C   C77       1.0  0.41893  0.12432  0.35438  1.0000
  C   C78       1.0  0.34728  0.07323  0.25398  1.0000
  H   H96       1.0  0.28924  0.13887  0.42776  1.0000
  H   H97       1.0  0.30191  0.25001  0.45221  1.0000
  C   C79       1.0  0.33560  0.09429  0.29247  1.0000
  C   C80       1.0  0.14678  0.23269  0.05577  1.0000
  N   N6        1.0  0.46485  0.12788  0.28849  1.0000
  C   C81       1.0  0.40129  0.11130  0.04489  1.0000
  H   H98       1.0  0.47196  0.02294  0.14188  1.0000
  H   H99       1.0  0.17385  0.21209  0.00197  1.0000
  H   H100      1.0  0.35062  0.03136  0.32572  1.0000
  H   H101      1.0  0.04085  0.18748  0.44766  1.0000
  C   C82       1.0  0.16604  0.21771  0.01685  1.0000
  H   H102      1.0  0.47733  0.15858  0.28121  1.0000
  H   H103      1.0  0.26924  0.11776  0.44363  1.0000
  C   C83       1.0  0.05213  0.19688  0.45953  1.0000
  H   H104      1.0  0.11153  0.23040  0.00650  1.0000
  H   H105      1.0  0.24388  0.24551  0.47748  1.0000
  C   C84       1.0  0.48006  0.05103  0.21860  1.0000
  H   H106      1.0  0.45227  0.13856  0.25154  1.0000
  C   C85       1.0  0.08697  0.21189  0.46394  1.0000
  C   C86       1.0  0.31896  0.19354  0.48267  1.0000
  C   C87       1.0  0.30135  0.15953  0.49098  1.0000
  C   C88       1.0  0.08326  0.22079  0.48769  1.0000
  C   C89       1.0  0.42816  0.01598  0.11437  1.0000
  H   H107      1.0  0.31451  0.01871  0.31582  1.0000
  H   H108      1.0  0.43013  0.01356  0.25783  1.0000
  C   C90       1.0  0.15739  0.23010  0.00524  1.0000
  C   C91       1.0  0.36754  0.00677  0.23949  1.0000
  C   C92       1.0  0.45737  0.01315  0.29003  1.0000
  H   H109      1.0  0.43980  0.10102  0.02161  1.0000
  H   H110      1.0  0.99732  0.18800  0.48717  1.0000
  H   H111      1.0  0.32408  0.23561  0.00732  1.0000
  H   H112      1.0  0.24769  0.11935  0.48759  1.0000
  C   C93       1.0  0.40215  0.12511  0.02161  1.0000
  C   C94       1.0  0.37612  0.25475  0.42195  1.0000
  H   H113      1.0  0.02879  0.22830  0.46778  1.0000
  H   H114      1.0  0.35154  0.10124  0.43330  1.0000
  H   H115      1.0  0.11872  0.24941  0.04853  1.0000
  C   C95       1.0  0.35941  0.09327  0.47670  1.0000
  C   C96       1.0  0.39460  0.25570  0.41159  1.0000
  H   H116      1.0  0.32084  0.07322  0.43647  1.0000
  C   C97       1.0  0.32468  0.06142  0.48029  1.0000
  C   C98       1.0  0.29258  0.25602  0.46279  1.0000
  C   C99       1.0  0.27239  0.24589  0.46428  1.0000
  H   H117      1.0  0.33124  0.20605  0.48673  1.0000
  C   C100      1.0  0.34751  0.09075  0.45299  1.0000
  S   S25       1.0  0.32136  0.12032  0.49054  1.0000
  N   N7        1.0  0.02765  0.20296  0.49464  1.0000
  C   C101      1.0  0.02524  0.22145  0.49141  1.0000
  C   C102      1.0  0.41656  0.13034  0.99767  1.0000
  C   C103      1.0  0.18634  0.25584  0.11958  1.0000
  S   S26       1.0  0.00685  0.20964  0.59109  1.0000
  Fe  Fe14      1.0  0.02723  0.23985  0.57616  1.0000
  C   C104      1.0  0.02567  0.23290  0.75094  1.0000
  C   C105      1.0  0.02175  0.22922  0.69787  1.0000
  H   H118      1.0  0.02817  0.23090  0.67519  1.0000
  S   S27       1.0  0.02566  0.21670  0.86651  1.0000
  C   C106      1.0  0.00491  0.18167  0.77514  1.0000
  C   C107      1.0  0.03379  0.23558  0.72122  1.0000
  Fe  Fe15      1.0  0.02813  0.23865  0.82736  1.0000
  H   H119      1.0  0.45593  0.14361  0.92798  1.0000
  C   C108      1.0  0.40273  0.23760  0.71574  1.0000
  C   C109      1.0  0.32342  0.23280  0.96000  1.0000
  H   H120      1.0  0.30847  0.02367  0.55285  1.0000
  H   H121      1.0  0.30002  0.03926  0.53096  1.0000
  C   C110      1.0  0.31202  0.03384  0.53204  1.0000
  C   C111      1.0  0.23688  0.05199  0.89771  1.0000
  C   C112      1.0  0.41567  0.00901  0.79898  1.0000
  Fe  Fe16      1.0  0.03676  0.24130  0.89388  1.0000
  H   H122      1.0  0.29272  0.20775  0.91253  1.0000
  H   H123      1.0  0.03481  0.23158  0.50562  1.0000
  H   H124      1.0  0.29269  0.22805  0.88883  1.0000
  H   H125      1.0  0.31149  0.02555  0.51293  1.0000
  C   C113      1.0  0.12348  0.24240  0.99291  1.0000
  H   H126      1.0  0.00850  0.19180  0.53534  1.0000
  C   C114      1.0  0.30139  0.21923  0.89440  1.0000
  H   H127      1.0  0.06683  0.24578  0.61497  1.0000
  C   C115      1.0  0.32038  0.24055  0.98578  1.0000
  H   H128      1.0  0.34704  0.03342  0.51464  1.0000
  C   C116      1.0  0.33080  0.05879  0.55936  1.0000
  C   C117      1.0  0.44513  0.10954  0.95798  1.0000
  C   C118      1.0  0.46889  0.02370  0.81269  1.0000
  S   S28       1.0  0.36207  0.01607  0.98785  1.0000
  S   S29       1.0  0.43650  0.01337  0.90594  1.0000
  H   H129      1.0  0.34457  0.08088  0.99556  1.0000
  H   H130      1.0  0.24228  0.04413  0.94255  1.0000
  H   H131      1.0  0.41784  0.23345  0.75504  1.0000
  C   C119      1.0  0.00151  0.21998  0.70422  1.0000
  H   H132      1.0  0.43043  0.10223  0.95028  1.0000
  H   H133      1.0  0.33963  0.06412  0.83957  1.0000
  H   H134      1.0  0.41485  0.02287  0.83829  1.0000
  C   C120      1.0  0.44450  0.14053  0.94680  1.0000
  H   H135      1.0  0.32743  0.17447  0.51201  1.0000
  S   S30       1.0  0.48312  0.02813  0.77821  1.0000
  S   S31       1.0  0.99740  0.23716  0.83528  1.0000
  H   H136      1.0  0.32065  0.06647  0.55758  1.0000
  N   N8        1.0  0.32085  0.23050  0.90395  1.0000
  C   C121      1.0  0.38399  0.23111  0.70433  1.0000
  H   H137      1.0  0.99330  0.18142  0.84902  1.0000
  H   H138      1.0  0.38963  0.20794  0.78234  1.0000
  H   H139      1.0  0.11698  0.25236  0.98268  1.0000
  H   H140      1.0  0.30270  0.21227  0.87421  1.0000
  H   H141      1.0  0.33505  0.23998  0.85896  1.0000
  Fe  Fe17      1.0  0.34562  0.18102  0.86113  1.0000
  H   H142      1.0  0.38842  0.22679  0.84456  1.0000
  Fe  Fe18      1.0  0.99561  0.21703  0.87611  1.0000
  C   C122      1.0  0.33653  0.06351  0.50491  1.0000
  C   C123      1.0  0.28642  0.06795  0.53167  1.0000
  C   C124      1.0  0.40655  0.01217  0.82467  1.0000
  H   H143      1.0  0.35144  0.05209  0.98864  1.0000
  C   C125      1.0  0.00750  0.18391  0.80524  1.0000
  H   H144      1.0  0.23366  0.06383  0.85391  1.0000
  H   H145      1.0  0.32953  0.22199  0.96313  1.0000
  H   H146      1.0  0.33407  0.21233  0.88641  1.0000
  C   C126      1.0  0.27663  0.05876  0.50824  1.0000
  H   H147      1.0  0.32347  0.25473  0.87203  1.0000
  C   C127      1.0  0.27864  0.18835  0.97695  1.0000
  C   C128      1.0  0.26532  0.11210  0.94889  1.0000
  C   C129      1.0  0.23753  0.06675  0.87641  1.0000
  H   H148      1.0  0.23384  0.11566  0.89792  1.0000
  H   H149      1.0  0.41122  0.24887  0.65445  1.0000
  C   C130      1.0  0.38825  0.21420  0.76021  1.0000
  C   C131      1.0  0.31822  0.23865  0.93164  1.0000
  S   S32       1.0  0.05792  0.25127  0.55298  1.0000
  N   N9        1.0  0.33135  0.04943  0.53212  1.0000
  S   S33       1.0  0.35364  0.15519  0.86072  1.0000
  S   S34       1.0  0.26910  0.02648  0.90688  1.0000
  H   H150      1.0  0.09533  0.23009  0.49867  1.0000
  C   C132      1.0  0.06403  0.21780  0.49750  1.0000
  H   H151      1.0  0.22819  0.10673  0.93704  1.0000
  H   H152      1.0  0.38650  0.14218  0.88056  1.0000
  S   S35       1.0  0.34753  0.18208  0.91087  1.0000
  H   H153      1.0  0.36104  0.05130  0.53670  1.0000
  H   H154      1.0  0.29036  0.07685  0.82094  1.0000
  H   H155      1.0  0.32378  0.20502  0.92417  1.0000
  C   C133      1.0  0.43610  0.24603  0.69478  1.0000
  H   H156      1.0  0.27623  0.04321  0.84410  1.0000
  H   H157      1.0  0.25480  0.14094  0.50485  1.0000
  C   C134      1.0  0.27205  0.12218  0.89622  1.0000
  C   C135      1.0  0.31205  0.25418  0.98425  1.0000
  H   H158      1.0  0.34535  0.06918  0.56338  1.0000
  H   H159      1.0  0.31383  0.03796  0.89518  1.0000
  H   H160      1.0  0.00997  0.21978  0.49831  1.0000
  C   C136      1.0  0.36301  0.05641  0.87764  1.0000
  H   H161      1.0  0.04947  0.24226  0.71634  1.0000
  C   C137      1.0  0.30950  0.25239  0.93101  1.0000
  C   C138      1.0  0.40429  0.22882  0.74436  1.0000
  S   S36       1.0  0.27219  0.01748  0.59634  1.0000
  H   H162      1.0  0.25427  0.10443  0.96799  1.0000
  H   H163      1.0  0.39481  0.09330  0.95366  1.0000
  C   C139      1.0  0.99340  0.21788  0.73371  1.0000
  Fe  Fe19      1.0  0.99482  0.25460  0.58413  1.0000
  S   S37       1.0  0.00649  0.23972  0.90611  1.0000
  H   H164      1.0  0.43123  0.23326  0.68269  1.0000
  H   H165      1.0  0.02211  0.18900  0.81280  1.0000
  S   S38       1.0  0.26014  0.03475  0.51368  1.0000
  C   C140      1.0  0.02393  0.19507  0.52680  1.0000
  H   H166      1.0  0.35000  0.23514  0.78038  1.0000
  C   C141      1.0  0.34425  0.07617  0.97359  1.0000
  Fe  Fe20      1.0  0.31576  0.16304  0.91585  1.0000
  H   H167      1.0  0.43017  0.13484  0.93689  1.0000
  H   H168      1.0  0.34661  0.22523  0.91540  1.0000
  S   S39       1.0  0.41316  0.09238  0.89526  1.0000
  H   H169      1.0  0.31731  0.17480  0.98463  1.0000
  H   H170      1.0  0.43705  0.01819  0.74231  1.0000
  H   H171      1.0  0.44624  0.15435  0.95471  1.0000
  H   H172      1.0  0.45585  0.11287  0.93809  1.0000
  H   H173      1.0  0.28417  0.11704  0.89370  1.0000
  H   H174      1.0  0.27834  0.13697  0.90189  1.0000
  C   C142      1.0  0.34405  0.06417  0.91578  1.0000
  H   H175      1.0  0.44138  0.24216  0.71630  1.0000
  H   H176      1.0  0.28352  0.06049  0.55416  1.0000
  C   C143      1.0  0.33979  0.06964  0.86161  1.0000
  C   C144      1.0  0.00539  0.22420  0.75699  1.0000
  C   C145      1.0  0.24226  0.05568  0.92645  1.0000
  H   H177      1.0  0.26925  0.12647  0.50681  1.0000
  C   C146      1.0  0.29233  0.18030  0.97004  1.0000
  C   C147      1.0  0.24368  0.08530  0.88372  1.0000
  H   H178      1.0  0.36368  0.05210  0.85482  1.0000
  S   S40       1.0  0.05302  0.24180  0.93630  1.0000
  Fe  Fe21      1.0  0.43322  0.05765  0.98256  1.0000
  S   S41       1.0  0.00642  0.24521  0.54488  1.0000
  C   C148      1.0  0.38465  0.11623  0.94726  1.0000
  H   H179      1.0  0.26660  0.12325  0.87374  1.0000
  S   S42       1.0  0.04119  0.24058  0.77989  1.0000
  H   H180      1.0  0.26743  0.18783  0.96194  1.0000
  C   C149      1.0  0.24866  0.07422  0.93394  1.0000
  H   H181      1.0  0.27121  0.12730  0.95286  1.0000
  H   H182      1.0  0.30749  0.09385  0.54421  1.0000
  C   C150      1.0  0.28101  0.05003  0.88916  1.0000
  H   H183      1.0  0.35376  0.21198  0.71174  1.0000
  H   H184      1.0  0.35763  0.19714  0.76126  1.0000
  C   C151      1.0  0.39322  0.10396  0.93761  1.0000
  C   C152      1.0  0.29667  0.08385  0.89389  1.0000
  H   H185      1.0  0.34265  0.02989  0.55479  1.0000
  H   H186      1.0  0.01761  0.18520  0.75935  1.0000
  C   C153      1.0  0.29995  0.08686  0.52600  1.0000
  H   H187      1.0  0.23279  0.03770  0.89173  1.0000
  H   H188      1.0  0.35111  0.08430  0.85883  1.0000
  H   H189      1.0  0.37506  0.07046  0.87785  1.0000
  S   S43       1.0  0.01706  0.25146  0.61455  1.0000
  H   H190      1.0  0.28787  0.06148  0.93104  1.0000
  H   H191      1.0  0.12856  0.23659  0.97398  1.0000
  C   C154      1.0  0.37014  0.20810  0.74837  1.0000
  Fe  Fe22      1.0  0.32165  0.13731  0.87059  1.0000
  C   C155      1.0  0.38221  0.13008  0.92684  1.0000
  S   S44       1.0  0.37305  0.14632  0.94028  1.0000
  H   H192      1.0  0.33139  0.02749  0.90315  1.0000
  H   H193      1.0  0.40243  0.12104  0.86358  1.0000
  C   C156      1.0  0.40003  0.10586  0.90752  1.0000
  H   H194      1.0  0.33774  0.09927  0.95200  1.0000
  S   S45       1.0  0.40602  0.06353  0.97625  1.0000
  C   C157      1.0  0.28205  0.05445  0.85804  1.0000
  H   H195      1.0  0.32571  0.04830  0.58000  1.0000
  Fe  Fe23      1.0  0.99497  0.22199  0.62723  1.0000
  H   H196      1.0  0.24387  0.09620  0.86636  1.0000
  S   S46       1.0  0.41897  0.02653  0.97906  1.0000
  C   C158      1.0  0.46791  0.03909  0.82638  1.0000
  S   S47       1.0  0.32116  0.13587  0.92061  1.0000
  H   H197      1.0  0.30235  0.09503  0.90789  1.0000
  C   C159      1.0  0.38818  0.13144  0.89649  1.0000
  C   C160      1.0  0.34817  0.06005  0.96967  1.0000
  H   H198      1.0  0.36632  0.04598  0.89317  1.0000
  C   C161      1.0  0.29720  0.08832  0.86284  1.0000
  H   H199      1.0  0.47753  0.13981  0.96489  1.0000
  C   C162      1.0  0.24985  0.08970  0.91253  1.0000
  C   C163      1.0  0.34028  0.08643  0.94907  1.0000
  H   H200      1.0  0.35115  0.04149  0.93944  1.0000
  H   H201      1.0  0.33748  0.08952  0.90248  1.0000
  Fe  Fe24      1.0  0.42781  0.03449  0.92938  1.0000
  H   H202      1.0  0.32710  0.03267  0.86523  1.0000
  H   H203      1.0  0.24477  0.13083  0.92552  1.0000
  C   C164      1.0  0.33184  0.21778  0.90783  1.0000
  C   C165      1.0  0.39724  0.11948  0.88693  1.0000
  S   S48       1.0  0.29052  0.16891  0.93726  1.0000
  H   H204      1.0  0.38120  0.23717  0.68312  1.0000
  H   H205      1.0  0.25304  0.07604  0.95638  1.0000
  C   C166      1.0  0.38535  0.23553  0.82660  1.0000
  C   C167      1.0  0.44827  0.01777  0.86944  1.0000
  H   H206      1.0  0.15851  0.23341  0.98115  1.0000
  S   S49       1.0  0.44446  0.06534  0.93368  1.0000
  C   C168      1.0  0.45758  0.03615  0.85462  1.0000
  S   S50       1.0  0.30660  0.11211  0.84549  1.0000
  Fe  Fe25      1.0  0.39270  0.03312  0.96857  1.0000
  S   S51       1.0  0.34934  0.20582  0.82533  1.0000
  C   C169      1.0  0.34620  0.04070  0.53461  1.0000
  C   C170      1.0  0.34029  0.08068  0.92049  1.0000
  Fe  Fe26      1.0  0.41583  0.06886  0.92727  1.0000
  S   S52       1.0  0.31360  0.16287  0.86635  1.0000
  H   H207      1.0  0.46654  0.14786  0.99447  1.0000
  C   C171      1.0  0.28996  0.07353  0.84499  1.0000
  H   H208      1.0  0.32518  0.07036  0.86594  1.0000
  H   H209      1.0  0.47539  0.05338  0.81528  1.0000
  N   N10       1.0  0.34379  0.05733  0.88604  1.0000
  C   C172      1.0  0.34804  0.05409  0.94127  1.0000
  C   C173      1.0  0.28855  0.06480  0.90695  1.0000
  S   S53       1.0  0.40017  0.03874  0.91887  1.0000
  H   H210      1.0  0.34599  0.25526  0.88651  1.0000
  H   H211      1.0  0.03330  0.20513  0.54132  1.0000
  H   H212      1.0  0.37965  0.11484  0.97062  1.0000
  C   C174      1.0  0.30673  0.18101  0.98964  1.0000
  Fe  Fe27      1.0  0.35288  0.15481  0.91091  1.0000
  H   H213      1.0  0.27779  0.10724  0.94994  1.0000
  N   N11       1.0  0.25674  0.10955  0.91950  1.0000
  C   C175      1.0  0.36376  0.24028  0.79048  1.0000
  H   H214      1.0  0.45715  0.04811  0.86520  1.0000
  C   C176      1.0  0.32840  0.03806  0.88746  1.0000
  C   C177      1.0  0.24014  0.11596  0.92000  1.0000
  C   C178      1.0  0.36744  0.22875  0.81391  1.0000
  H   H215      1.0  0.44822  0.09912  0.97392  1.0000
  Fe  Fe28      1.0  0.25820  0.01257  0.55284  1.0000
  H   H216      1.0  0.02669  0.18171  0.53052  1.0000
  C   C179      1.0  0.33175  0.24581  0.87942  1.0000
  C   C180      1.0  0.39947  0.25360  0.81565  1.0000
  C   C181      1.0  0.36800  0.21657  0.72055  1.0000
  H   H217      1.0  0.43093  0.01786  0.79381  1.0000
  C   C182      1.0  0.46548  0.13526  0.98313  1.0000
  S   S54       1.0  0.48996  0.00809  0.70403  1.0000
  N   N12       1.0  0.44606  0.12677  0.97138  1.0000
  C   C183      1.0  0.43057  0.12169  0.99633  1.0000
  N   N13       1.0  0.42004  0.25297  0.69935  1.0000
  H   H218      1.0  0.06196  0.22503  0.51603  1.0000
  H   H219      1.0  0.41610  0.14093  0.98024  1.0000
  H   H220      1.0  0.36389  0.08239  0.51996  1.0000
  H   H221      1.0  0.30075  0.14604  0.50185  1.0000
  H   H222      1.0  0.06627  0.24627  0.99505  1.0000
  C   C184      1.0  0.35414  0.07983  0.50222  1.0000
  H   H223      1.0  0.99894  0.22189  0.77972  1.0000
  H   H224      1.0  0.99260  0.25037  0.68010  1.0000
  C   C185      1.0  0.07990  0.25577  0.60211  1.0000
  C   C186      1.0  0.30388  0.09671  0.49689  1.0000
  C   C187      1.0  0.31678  0.17578  0.49693  1.0000
  S   S55       1.0  0.02907  0.33197  0.31799  1.0000
  H   H225      1.0  0.01858  0.32507  0.21204  1.0000
  C   C188      1.0  0.01198  0.32179  0.23482  1.0000
  C   C189      1.0  0.01509  0.32345  0.28812  1.0000
  C   C190      1.0  0.02363  0.32751  0.25863  1.0000
  H   H226      1.0  0.03921  0.33484  0.25415  1.0000
  C   C191      1.0  0.04086  0.45711  0.27572  1.0000
  C   C192      1.0  0.04183  0.44243  0.29620  1.0000
  H   H227      1.0  0.03491  0.44001  0.31872  1.0000
  Fe  Fe29      1.0  0.01669  0.48536  0.25054  1.0000
  S   S56       1.0  0.01688  0.47835  0.20325  1.0000
  S   S57       1.0  0.02929  0.47203  0.28722  1.0000
  C   C193      1.0  0.01113  0.40965  0.23470  1.0000
  H   H228      1.0  0.05006  0.39242  0.43550  1.0000
  H   H229      1.0  0.01956  0.41482  0.25323  1.0000
  C   C194      1.0  0.01049  0.42316  0.21187  1.0000
  C   C195      1.0  0.01998  0.30616  0.45712  1.0000
  H   H230      1.0  0.01818  0.43814  0.21334  1.0000
  C   C196      1.0  0.04988  0.46024  0.24670  1.0000
  H   H231      1.0  0.02005  0.36759  0.17988  1.0000
  H   H232      1.0  0.03399  0.40231  0.18162  1.0000
  C   C197      1.0  0.01706  0.30069  0.42834  1.0000
  H   H233      1.0  0.04957  0.47175  0.23097  1.0000
  C   C198      1.0  0.03031  0.32537  0.46146  1.0000
  C   C199      1.0  0.02445  0.31411  0.40309  1.0000
  C   C200      1.0  0.03782  0.33868  0.43519  1.0000
  C   C201      1.0  0.02136  0.37750  0.26266  1.0000
  H   H234      1.0  0.03098  0.39165  0.26814  1.0000
  H   H235      1.0  0.02204  0.36685  0.28098  1.0000
  H   H236      1.0  0.02801  0.37495  0.24172  1.0000
  C   C202      1.0  0.05172  0.43091  0.28762  1.0000
  C   C203      1.0  0.03577  0.37512  0.17857  1.0000
  C   C204      1.0  0.04364  0.39465  0.17945  1.0000
  H   H237      1.0  0.02220  0.30990  0.38073  1.0000
  H   H238      1.0  0.05212  0.41945  0.30330  1.0000
  C   C205      1.0  0.04816  0.36524  0.17643  1.0000
  H   H239      1.0  0.04204  0.35001  0.17611  1.0000
  H   H240      1.0  0.00907  0.28596  0.42553  1.0000
  H   H241      1.0  0.01414  0.29522  0.47603  1.0000
  N   N14       1.0  0.03326  0.33075  0.49219  1.0000
  C   C206      1.0  0.03485  0.33303  0.40652  1.0000
  H   H242      1.0  0.04608  0.35354  0.43610  1.0000
  H   H243      1.0  0.04066  0.34336  0.38669  1.0000
  H   H244      1.0  0.03498  0.35957  0.48214  1.0000
  H   H245      1.0  0.05114  0.28267  0.00362  1.0000
  H   H246      1.0  0.99834  0.42810  0.17071  1.0000
  N   N15       1.0  0.00097  0.37605  0.25926  1.0000
  C   C207      1.0  0.99943  0.41751  0.18774  1.0000
  C   C208      1.0  0.00061  0.38996  0.23411  1.0000
  H   H247      1.0  0.00170  0.39435  0.29343  1.0000
  C   C209      1.0  0.04329  0.35148  0.49292  1.0000
  C   C210      1.0  0.99302  0.38001  0.28754  1.0000
  H   H248      1.0  0.99461  0.35176  0.23489  1.0000
  H   H249      1.0  0.99280  0.36963  0.30692  1.0000
  C   C211      1.0  0.99497  0.31300  0.29381  1.0000
  H   H250      1.0  0.07310  0.49759  0.29581  1.0000
  Fe  Fe30      1.0  0.05805  0.35572  0.30434  1.0000
  H   H251      1.0  0.05838  0.35698  0.48171  1.0000
  H   H252      1.0  0.14300  0.27368  0.21841  1.0000
  H   H253      1.0  0.33118  0.26128  0.47115  1.0000
  H   H254      1.0  0.09098  0.48292  0.26576  1.0000
  C   C212      1.0  0.08905  0.47952  0.28998  1.0000
  C   C213      1.0  0.48855  0.38289  0.45395  1.0000
  H   H255      1.0  0.12084  0.26672  0.19968  1.0000
  S   S58       1.0  0.28515  0.26665  0.32945  1.0000
  C   C214      1.0  0.14367  0.31834  0.22768  1.0000
  C   C215      1.0  0.07897  0.48782  0.30689  1.0000
  C   C216      1.0  0.06003  0.44897  0.23830  1.0000
  C   C217      1.0  0.06110  0.43439  0.25875  1.0000
  C   C218      1.0  0.26693  0.27022  0.48907  1.0000
  H   H256      1.0  0.34407  0.31127  0.47865  1.0000
  C   C219      1.0  0.13146  0.26033  0.03467  1.0000
  C   C220      1.0  0.35223  0.27104  0.28541  1.0000
  H   H257      1.0  0.06729  0.48905  0.35069  1.0000
  C   C221      1.0  0.07563  0.48289  0.33784  1.0000
  C   C222      1.0  0.27081  0.26325  0.24677  1.0000
  S   S59       1.0  0.28765  0.26348  0.15970  1.0000
  H   H258      1.0  0.47969  0.42037  0.39694  1.0000
  H   H259      1.0  0.40304  0.49898  0.05010  1.0000
  S   S60       1.0  0.24929  0.28140  0.34313  1.0000
  C   C223      1.0  0.06508  0.39347  0.43542  1.0000
  S   S61       1.0  0.06239  0.38309  0.32280  1.0000
  H   H260      1.0  0.26256  0.34403  0.13014  1.0000
  C   C224      1.0  0.08240  0.46966  0.35211  1.0000
  H   H261      1.0  0.08632  0.33428  0.16165  1.0000
  H   H262      1.0  0.42350  0.49158  0.05580  1.0000
  C   C225      1.0  0.13206  0.30338  0.21198  1.0000
  S   S62       1.0  0.22237  0.26378  0.42640  1.0000
  C   C226      1.0  0.28125  0.26783  0.21837  1.0000
  C   C227      1.0  0.48991  0.41451  0.38889  1.0000
  H   H263      1.0  0.08111  0.43814  0.39167  1.0000
  H   H264      1.0  0.31582  0.33453  0.00063  1.0000
  H   H265      1.0  0.19465  0.26330  0.47336  1.0000
  H   H266      1.0  0.16782  0.36328  0.48110  1.0000
  C   C228      1.0  0.13705  0.35776  0.19144  1.0000
  H   H267      1.0  0.15223  0.40352  0.48197  1.0000
  S   S63       1.0  0.06204  0.39877  0.49449  1.0000
  H   H268      1.0  0.29407  0.32166  0.39071  1.0000
  H   H269      1.0  0.10249  0.45940  0.28951  1.0000
  H   H270      1.0  0.08155  0.30145  0.02290  1.0000
  C   C229      1.0  0.07734  0.30672  0.00207  1.0000
  H   H271      1.0  0.36188  0.26358  0.29007  1.0000
  H   H272      1.0  0.32896  0.28169  0.22659  1.0000
  H   H273      1.0  0.23245  0.29671  0.00583  1.0000
  C   C230      1.0  0.09568  0.46613  0.30391  1.0000
  H   H274      1.0  0.38215  0.28249  0.32303  1.0000
  C   C231      1.0  0.12021  0.35656  0.20865  1.0000
  H   H275      1.0  0.27712  0.27093  0.26513  1.0000
  C   C232      1.0  0.22427  0.27898  0.45457  1.0000
  H   H276      1.0  0.26878  0.28964  0.14758  1.0000
  C   C233      1.0  0.22849  0.29941  0.13660  1.0000
  H   H277      1.0  0.12137  0.43274  0.16559  1.0000
  H   H278      1.0  0.14275  0.26752  0.04977  1.0000
  Fe  Fe31      1.0  0.24624  0.26657  0.39025  1.0000
  C   C234      1.0  0.33366  0.28115  0.24909  1.0000
  C   C235      1.0  0.29918  0.34077  0.11052  1.0000
  C   C236      1.0  0.37649  0.38500  0.31474  1.0000
  C   C237      1.0  0.18527  0.26995  0.06944  1.0000
  H   H279      1.0  0.32552  0.27677  0.42532  1.0000
  H   H280      1.0  0.47873  0.37471  0.47429  1.0000
  H   H281      1.0  0.29669  0.30793  0.16867  1.0000
  C   C238      1.0  0.10190  0.34789  0.19789  1.0000
  H   H282      1.0  0.30033  0.30689  0.12902  1.0000
  H   H283      1.0  0.06893  0.41945  0.17934  1.0000
  H   H284      1.0  0.17379  0.38790  0.46885  1.0000
  C   C239      1.0  0.06392  0.40442  0.17780  1.0000
  H   H285      1.0  0.23220  0.32845  0.06273  1.0000
  C   C240      1.0  0.24154  0.29438  0.45729  1.0000
  H   H286      1.0  0.31504  0.34932  0.11099  1.0000
  C   C241      1.0  0.39628  0.38896  0.31754  1.0000
  C   C242      1.0  0.17954  0.26709  0.10013  1.0000
  H   H287      1.0  0.47149  0.40818  0.44737  1.0000
  C   C243      1.0  0.16573  0.37624  0.48703  1.0000
  H   H288      1.0  0.23835  0.28532  0.03866  1.0000
  H   H289      1.0  0.44969  0.42639  0.36261  1.0000
  H   H290      1.0  0.37959  0.28802  0.36020  1.0000
  H   H291      1.0  0.09440  0.27043  0.01500  1.0000
  C   C244      1.0  0.34610  0.27174  0.25642  1.0000
  C   C245      1.0  0.11738  0.34213  0.15263  1.0000
  H   H292      1.0  0.09149  0.41605  0.34900  1.0000
  C   C246      1.0  0.24275  0.30540  0.48107  1.0000
  H   H293      1.0  0.10171  0.38394  0.20620  1.0000
  C   C247      1.0  0.46350  0.39413  0.43985  1.0000
  C   C248      1.0  0.33906  0.34038  0.06497  1.0000
  H   H294      1.0  0.09945  0.43054  0.14778  1.0000
  H   H295      1.0  0.12623  0.27124  0.02440  1.0000
  H   H296      1.0  0.45021  0.43281  0.23002  1.0000
  H   H297      1.0  0.12266  0.44997  0.31594  1.0000
  C   C249      1.0  0.30986  0.32764  0.38700  1.0000
  H   H298      1.0  0.25630  0.31705  0.48326  1.0000
  S   S64       1.0  0.26243  0.26762  0.08661  1.0000
  H   H299      1.0  0.22404  0.30304  0.07113  1.0000
  C   C250      1.0  0.13105  0.29773  0.15982  1.0000
  H   H300      1.0  0.25529  0.30338  0.07751  1.0000
  C   C251      1.0  0.33360  0.28955  0.29963  1.0000
  C   C252      1.0  0.32788  0.28973  0.43637  1.0000
  C   C253      1.0  0.42374  0.46562  0.16197  1.0000
  C   C254      1.0  0.43981  0.42370  0.24911  1.0000
  C   C255      1.0  0.24038  0.28914  0.14197  1.0000
  H   H301      1.0  0.29230  0.35113  0.10416  1.0000
  C   C256      1.0  0.13645  0.36925  0.46164  1.0000
  C   C257      1.0  0.07701  0.39483  0.17488  1.0000
  H   H302      1.0  0.42269  0.46150  0.03905  1.0000
  H   H303      1.0  0.25408  0.29756  0.44143  1.0000
  H   H304      1.0  0.37869  0.30401  0.32862  1.0000
  H   H305      1.0  0.17003  0.30471  0.20081  1.0000
  N   N16       1.0  0.29074  0.32919  0.13982  1.0000
  H   H306      1.0  0.18006  0.27849  0.05432  1.0000
  H   H307      1.0  0.41524  0.39637  0.21880  1.0000
  H   H308      1.0  0.07736  0.36649  0.17369  1.0000
  H   H309      1.0  0.07134  0.42367  0.34618  1.0000
  H   H310      1.0  0.10858  0.32313  0.27380  1.0000
  C   C258      1.0  0.38448  0.40348  0.26571  1.0000
  H   H311      1.0  0.12933  0.46466  0.34573  1.0000
  H   H312      1.0  0.21286  0.29205  0.13585  1.0000
  H   H313      1.0  0.21764  0.31307  0.03795  1.0000
  H   H314      1.0  0.40081  0.47968  0.07770  1.0000
  S   S65       1.0  0.38724  0.32609  0.39154  1.0000
  C   C259      1.0  0.41731  0.43886  0.23822  1.0000
  H   H315      1.0  0.40671  0.26926  0.40766  1.0000
  N   N17       1.0  0.09858  0.40471  0.17297  1.0000
  C   C260      1.0  0.31890  0.32876  0.35854  1.0000
  H   H316      1.0  0.15127  0.36440  0.19965  1.0000
  Fe  Fe32      1.0  0.28384  0.26787  0.04995  1.0000
  H   H317      1.0  0.34369  0.29892  0.43188  1.0000
  S   S66       1.0  0.46555  0.47926  0.24683  1.0000
  H   H318      1.0  0.28853  0.35359  0.15806  1.0000
  H   H319      1.0  0.40306  0.43786  0.22982  1.0000
  H   H320      1.0  0.09998  0.40424  0.22067  1.0000
  C   C261      1.0  0.31324  0.31199  0.03530  1.0000
  Fe  Fe33      1.0  0.13748  0.32717  0.08883  1.0000
  C   C262      1.0  0.41532  0.41101  0.21528  1.0000
  H   H321      1.0  0.11503  0.28956  0.16199  1.0000
  H   H322      1.0  0.31419  0.33358  0.43259  1.0000
  S   S67       1.0  0.30492  0.31902  0.32952  1.0000
  C   C263      1.0  0.06844  0.37487  0.17479  1.0000
  H   H323      1.0  0.42668  0.41906  0.19668  1.0000
  H   H324      1.0  0.45374  0.39570  0.42243  1.0000
  C   C264      1.0  0.40738  0.48657  0.05467  1.0000
  S   S68       1.0  0.37129  0.27520  0.42769  1.0000
  H   H325      1.0  0.40077  0.45024  0.06379  1.0000
  H   H326      1.0  0.13646  0.35546  0.45566  1.0000
  H   H327      1.0  0.45661  0.36816  0.40107  1.0000
  C   C265      1.0  0.19669  0.26061  0.05801  1.0000
  C   C266      1.0  0.29416  0.34210  0.16337  1.0000
  H   H328      1.0  0.45363  0.38505  0.45949  1.0000
  H   H329      1.0  0.40084  0.44561  0.02564  1.0000
  N   N18       1.0  0.24804  0.31578  0.03672  1.0000
  H   H330      1.0  0.14416  0.33696  0.26101  1.0000
  H   H331      1.0  0.37235  0.45430  0.02056  1.0000
  C   C267      1.0  0.40649  0.45695  0.04040  1.0000
  H   H332      1.0  0.36569  0.37637  0.33268  1.0000
  H   H333      1.0  0.25719  0.29846  0.00954  1.0000
  H   H334      1.0  0.37388  0.47776  0.02547  1.0000
  C   C268      1.0  0.13566  0.35050  0.16364  1.0000
  S   S69       1.0  0.27843  0.27850  0.39616  1.0000
  H   H335      1.0  0.34769  0.30284  0.35315  1.0000
  S   S70       1.0  0.16697  0.32757  0.10059  1.0000
  H   H336      1.0  0.22744  0.32716  0.12825  1.0000
  Fe  Fe34      1.0  0.48632  0.46692  0.26650  1.0000
  S   S71       1.0  0.08637  0.35417  0.31801  1.0000
  N   N19       1.0  0.09904  0.44596  0.34949  1.0000
  C   C269      1.0  0.23672  0.31916  0.13233  1.0000
  H   H337      1.0  0.07898  0.46628  0.37607  1.0000
  H   H338      1.0  0.31006  0.34944  0.16590  1.0000
  H   H339      1.0  0.23396  0.27374  0.14539  1.0000
  S   S72       1.0  0.45581  0.45508  0.16933  1.0000
  H   H340      1.0  0.31770  0.29737  0.26507  1.0000
  Fe  Fe35      1.0  0.13907  0.31034  0.02970  1.0000
  N   N20       1.0  0.47716  0.38560  0.42868  1.0000
  H   H341      1.0  0.42874  0.44882  0.22112  1.0000
  Fe  Fe36      1.0  0.15692  0.29876  0.08504  1.0000
  Fe  Fe37      1.0  0.09168  0.38261  0.33341  1.0000
  S   S73       1.0  0.12276  0.36604  0.24341  1.0000
  S   S74       1.0  0.07453  0.42109  0.24728  1.0000
  C   C270      1.0  0.34610  0.27987  0.30798  1.0000
  H   H342      1.0  0.31937  0.29733  0.42490  1.0000
  Fe  Fe38      1.0  0.07685  0.39663  0.27701  1.0000
  C   C271      1.0  0.41030  0.40030  0.29461  1.0000
  S   S75       1.0  0.10677  0.39090  0.37590  1.0000
  S   S76       1.0  0.11479  0.33343  0.11726  1.0000
  Fe  Fe39      1.0  0.34382  0.41414  0.02901  1.0000
  H   H343      1.0  0.40083  0.38319  0.33764  1.0000
  H   H344      1.0  0.16760  0.30042  0.16262  1.0000
  C   C272      1.0  0.30176  0.31666  0.14638  1.0000
  H   H345      1.0  0.21182  0.35373  0.09545  1.0000
  C   C273      1.0  0.30056  0.27397  0.47342  1.0000
  H   H346      1.0  0.44398  0.43125  0.26922  1.0000
  Fe  Fe40      1.0  0.31320  0.39758  0.08250  1.0000
  H   H347      1.0  0.37236  0.46094  0.05726  1.0000
  C   C274      1.0  0.26054  0.29854  0.14315  1.0000
  Fe  Fe41      1.0  0.47515  0.47298  0.20235  1.0000
  Fe  Fe42      1.0  0.09877  0.36999  0.27215  1.0000
  H   H348      1.0  0.28698  0.33417  0.18554  1.0000
  C   C275      1.0  0.37893  0.46629  0.03382  1.0000
  C   C276      1.0  0.34372  0.28741  0.36005  1.0000
  H   H349      1.0  0.34899  0.28627  0.38269  1.0000
  C   C277      1.0  0.46517  0.36674  0.42030  1.0000
  S   S77       1.0  0.35360  0.35815  0.08499  1.0000
  S   S78       1.0  0.32285  0.38454  0.04554  1.0000
  H   H350      1.0  0.12220  0.40589  0.20058  1.0000
  S   S79       1.0  0.20683  0.35788  0.03138  1.0000
  C   C278      1.0  0.26309  0.38046  0.05256  1.0000
  H   H351      1.0  0.40111  0.41014  0.20686  1.0000
  Fe  Fe43      1.0  0.34624  0.38384  0.07532  1.0000
  S   S80       1.0  0.41352  0.36064  0.42840  1.0000
  H   H352      1.0  0.45470  0.35775  0.43929  1.0000
  H   H353      1.0  0.33885  0.35959  0.02685  1.0000
  N   N21       1.0  0.40061  0.47320  0.03195  1.0000
  S   S81       1.0  0.06989  0.36927  0.25736  1.0000
  C   C279      1.0  0.34166  0.34163  0.40610  1.0000
  C   C280      1.0  0.32030  0.33087  0.02220  1.0000
  C   C281      1.0  0.37419  0.28874  0.33745  1.0000
  S   S82       1.0  0.16852  0.30912  0.03722  1.0000
  C   C282      1.0  0.26148  0.37690  0.08384  1.0000
  C   C283      1.0  0.26944  0.31870  0.13884  1.0000
  Fe  Fe44      1.0  0.41782  0.33801  0.46002  1.0000
  H   H354      1.0  0.44250  0.41027  0.25219  1.0000
  C   C284      1.0  0.33221  0.32150  0.07783  1.0000
  H   H355      1.0  0.32822  0.29683  0.31507  1.0000
  H   H356      1.0  0.15929  0.32535  0.22288  1.0000
  Fe  Fe45      1.0  0.41894  0.34480  0.39196  1.0000
  Fe  Fe46      1.0  0.39263  0.30573  0.42615  1.0000
  H   H357      1.0  0.27529  0.31437  0.04990  1.0000
  C   C285      1.0  0.26183  0.31567  0.05976  1.0000
  C   C286      1.0  0.11506  0.31733  0.25721  1.0000
  C   C287      1.0  0.35066  0.34319  0.37745  1.0000
  C   C288      1.0  0.33928  0.33695  0.35358  1.0000
  H   H358      1.0  0.39860  0.47314  0.15543  1.0000
  S   S83       1.0  0.33534  0.39480  0.11358  1.0000
  H   H359      1.0  0.31348  0.29296  0.07374  1.0000
  H   H360      1.0  0.24743  0.37801  0.01273  1.0000
  C   C289      1.0  0.25686  0.32869  0.13347  1.0000
  H   H361      1.0  0.28597  0.34456  0.02702  1.0000
  H   H362      1.0  0.06722  0.45172  0.21592  1.0000
  H   H363      1.0  0.24155  0.36469  0.12343  1.0000
  H   H364      1.0  0.14876  0.35169  0.15051  1.0000
  S   S84       1.0  0.10660  0.39845  0.28878  1.0000
  C   C290      1.0  0.32741  0.29001  0.27067  1.0000
  C   C291      1.0  0.44399  0.39722  0.35660  1.0000
  H   H365      1.0  0.26596  0.32875  0.07101  1.0000
  C   C292      1.0  0.22762  0.36491  0.05214  1.0000
  C   C293      1.0  0.25583  0.33264  0.01375  1.0000
  H   H366      1.0  0.43058  0.47688  0.17546  1.0000
  H   H367      1.0  0.33674  0.31782  0.09937  1.0000
  C   C294      1.0  0.07480  0.39678  0.46174  1.0000
  H   H368      1.0  0.27728  0.38807  0.04052  1.0000
  C   C295      1.0  0.44761  0.38488  0.33837  1.0000
  C   C296      1.0  0.09271  0.46088  0.33548  1.0000
  S   S85       1.0  0.35579  0.34742  0.43665  1.0000
  H   H369      1.0  0.36640  0.34941  0.37363  1.0000
  C   C297      1.0  0.20809  0.27514  0.47533  1.0000
  Fe  Fe47      1.0  0.17682  0.33800  0.05189  1.0000
  C   C298      1.0  0.24617  0.37469  0.03685  1.0000
  C   C299      1.0  0.33315  0.34506  0.03714  1.0000
  H   H370      1.0  0.08881  0.34651  0.21120  1.0000
  S   S86       1.0  0.43759  0.35987  0.34839  1.0000
  H   H371      1.0  0.11902  0.39803  0.43459  1.0000
  N   N22       1.0  0.32188  0.28512  0.46897  1.0000
  S   S87       1.0  0.36809  0.41217  0.05618  1.0000
  C   C300      1.0  0.40479  0.40799  0.26794  1.0000
  S   S88       1.0  0.12661  0.29727  0.07670  1.0000
  H   H372      1.0  0.47405  0.35858  0.41373  1.0000
  C   C301      1.0  0.37059  0.39218  0.28883  1.0000
  N   N23       1.0  0.14041  0.29598  0.18793  1.0000
  H   H373      1.0  0.35514  0.38892  0.28670  1.0000
  C   C302      1.0  0.46448  0.42470  0.32130  1.0000
  C   C303      1.0  0.10384  0.39639  0.43495  1.0000
  H   H374      1.0  0.08760  0.29674  0.24796  1.0000
  C   C304      1.0  0.11161  0.29558  0.22032  1.0000
  C   C305      1.0  0.42394  0.43883  0.13787  1.0000
  C   C306      1.0  0.32124  0.33443  0.41064  1.0000
  S   S89       1.0  0.38613  0.31930  0.46523  1.0000
  H   H375      1.0  0.10185  0.28417  0.20948  1.0000
  C   C307      1.0  0.46789  0.41237  0.30282  1.0000
  S   S90       1.0  0.33238  0.42769  0.06379  1.0000
  H   H376      1.0  0.29559  0.27903  0.21507  1.0000
  C   C308      1.0  0.27548  0.34600  0.01190  1.0000
  S   S91       1.0  0.14815  0.34027  0.04098  1.0000
  C   C309      1.0  0.09400  0.39271  0.40879  1.0000
  C   C310      1.0  0.22973  0.31507  0.05275  1.0000
  H   H377      1.0  0.13712  0.29245  0.14120  1.0000
  H   H378      1.0  0.32748  0.28021  0.36268  1.0000
  C   C311      1.0  0.45952  0.39258  0.31137  1.0000
  H   H379      1.0  0.14499  0.38047  0.44311  1.0000
  H   H380      1.0  0.10666  0.38394  0.15192  1.0000
  S   S92       1.0  0.28221  0.38437  0.10467  1.0000
  H   H381      1.0  0.29773  0.33168  0.09224  1.0000
  H   H382      1.0  0.08872  0.42811  0.31448  1.0000
  H   H383      1.0  0.13337  0.31277  0.15257  1.0000
  C   C312      1.0  0.45247  0.41700  0.34818  1.0000
  S   S93       1.0  0.37399  0.44719  0.11828  1.0000
  S   S94       1.0  0.47578  0.44977  0.31281  1.0000
  H   H384      1.0  0.47729  0.41808  0.28225  1.0000
  H   H385      1.0  0.39892  0.42529  0.11325  1.0000
  Fe  Fe48      1.0  0.35547  0.42361  0.09212  1.0000
  C   C313      1.0  0.22605  0.36103  0.08341  1.0000
  C   C314      1.0  0.43305  0.45334  0.15555  1.0000
  H   H386      1.0  0.42532  0.40281  0.29837  1.0000
  H   H387      1.0  0.46243  0.38317  0.29710  1.0000
  H   H388      1.0  0.12390  0.40741  0.14405  1.0000
  H   H389      1.0  0.43460  0.39154  0.37713  1.0000
  C   C315      1.0  0.09421  0.39817  0.46147  1.0000
  H   H390      1.0  0.10492  0.45693  0.39201  1.0000
  C   C316      1.0  0.40561  0.46347  0.15056  1.0000
  C   C317      1.0  0.13519  0.32510  0.24996  1.0000
  H   H391      1.0  0.37919  0.40871  0.24602  1.0000
  C   C318      1.0  0.10789  0.39894  0.14776  1.0000
  C   C319      1.0  0.09675  0.44346  0.38285  1.0000
  N   N24       1.0  0.35267  0.27876  0.33856  1.0000
  H   H392      1.0  0.10126  0.40071  0.12643  1.0000
  H   H393      1.0  0.16562  0.32150  0.17346  1.0000
  H   H394      1.0  0.12526  0.43977  0.35182  1.0000
  C   C320      1.0  0.10513  0.42572  0.16826  1.0000
  C   C321      1.0  0.10053  0.34087  0.16990  1.0000
  C   C322      1.0  0.16186  0.30616  0.18107  1.0000
  H   H395      1.0  0.10187  0.40104  0.48152  1.0000
  C   C323      1.0  0.07455  0.39121  0.40913  1.0000
  C   C324      1.0  0.39650  0.44893  0.13292  1.0000
  C   C325      1.0  0.11996  0.45037  0.34031  1.0000
  H   H396      1.0  0.34626  0.33800  0.33149  1.0000
  C   C326      1.0  0.31903  0.30738  0.06325  1.0000
  H   H397      1.0  0.41890  0.44563  0.25928  1.0000
  C   C327      1.0  0.10595  0.39949  0.20127  1.0000
  C   C328      1.0  0.13670  0.27568  0.19683  1.0000
  C   C329      1.0  0.08714  0.42768  0.33930  1.0000
  C   C330      1.0  0.24292  0.36720  0.09919  1.0000
  N   N25       1.0  0.41917  0.42015  0.24322  1.0000
  H   H398      1.0  0.10242  0.43270  0.39262  1.0000
  C   C331      1.0  0.10329  0.30258  0.24247  1.0000
  H   H399      1.0  0.31774  0.32497  0.14658  1.0000
  C   C332      1.0  0.24377  0.29834  0.02200  1.0000
  S   S95       1.0  0.16277  0.27619  0.11454  1.0000
  C   C333      1.0  0.40574  0.43656  0.12675  1.0000
  S   S96       1.0  0.42516  0.32297  0.42329  1.0000
  H   H400      1.0  0.43099  0.42924  0.13276  1.0000
  S   S97       1.0  0.29670  0.29431  0.01718  1.0000
  H   H401      1.0  0.06682  0.38842  0.38915  1.0000
  Fe  Fe49      1.0  0.38246  0.34040  0.43043  1.0000
  H   H402      1.0  0.12116  0.36855  0.46158  1.0000
  Fe  Fe50      1.0  0.28153  0.29121  0.34818  1.0000
  H   H403      1.0  0.10036  0.43127  0.18790  1.0000
  H   H404      1.0  0.34881  0.28235  0.48095  1.0000
  H   H405      1.0  0.14334  0.26981  0.17955  1.0000
  H   H406      1.0  0.32140  0.31299  0.47148  1.0000
  H   H407      1.0  0.29163  0.29428  0.49548  1.0000
  C   C334      1.0  0.32798  0.30327  0.48222  1.0000
  H   H408      1.0  0.30958  0.25999  0.00439  1.0000
  C   C335      1.0  0.49053  0.39716  0.40249  1.0000
  C   C336      1.0  0.40866  0.48169  0.00086  1.0000
  C   C337      1.0  0.33276  0.27392  0.48265  1.0000
  H   H409      1.0  0.16786  0.27463  0.00476  1.0000
  H   H410      1.0  0.19995  0.26178  0.03405  1.0000
  C   C338      1.0  0.27329  0.25797  0.19427  1.0000
  H   H411      1.0  0.05941  0.32466  0.49341  1.0000
  C   C339      1.0  0.28708  0.28074  0.48695  1.0000
  C   C340      1.0  0.34752  0.25861  0.35080  1.0000
  N   N26       1.0  0.14467  0.37324  0.49094  1.0000
  H   H412      1.0  0.35112  0.26505  0.23947  1.0000
  H   H413      1.0  0.34986  0.25702  0.37510  1.0000
  Fe  Fe51      1.0  0.16642  0.30651  0.60061  1.0000
  S   S98       1.0  0.17804  0.32207  0.55418  1.0000
  S   S99       1.0  0.13608  0.28530  0.61855  1.0000
  Fe  Fe52      1.0  0.20449  0.32802  0.62905  1.0000
  S   S100      1.0  0.21853  0.34500  0.58523  1.0000
  S   S101      1.0  0.21899  0.32963  0.67325  1.0000
  Fe  Fe53      1.0  0.18971  0.34775  0.57864  1.0000
  S   S102      1.0  0.19261  0.37723  0.56019  1.0000
  Fe  Fe54      1.0  0.20600  0.31792  0.56422  1.0000
  S   S103      1.0  0.22946  0.31489  0.53276  1.0000
  S   S104      1.0  0.17641  0.33272  0.62416  1.0000
  S   S105      1.0  0.19362  0.30047  0.60905  1.0000
  Fe  Fe55      1.0  0.07519  0.36988  0.59290  1.0000
  S   S106      1.0  0.08711  0.39207  0.62346  1.0000
  S   S107      1.0  0.07198  0.33978  0.60588  1.0000
  Fe  Fe56      1.0  0.07351  0.39780  0.54055  1.0000
  S   S108      1.0  0.08553  0.42261  0.56685  1.0000
  Fe  Fe57      1.0  0.10618  0.40854  0.58209  1.0000
  S   S109      1.0  0.13870  0.42340  0.58218  1.0000
  Fe  Fe58      1.0  0.06525  0.40385  0.60604  1.0000
  S   S110      1.0  0.04228  0.40982  0.63443  1.0000
  S   S111      1.0  0.09573  0.38545  0.55269  1.0000
  S   S112      1.0  0.05174  0.37992  0.57840  1.0000
  H   H414      1.0  0.03329  0.26367  0.96829  1.0000
  H   H415      1.0  0.32777  0.26902  0.50677  1.0000
  C   C341      1.0  0.37786  0.25827  0.77950  1.0000
  H   H416      1.0  0.42951  0.27163  0.65745  1.0000
  H   H417      1.0  0.35806  0.33269  0.96836  1.0000
  Fe  Fe59      1.0  0.03038  0.47362  0.75559  1.0000
  S   S113      1.0  0.05445  0.46597  0.73401  1.0000
  H   H418      1.0  0.02783  0.43595  0.83626  1.0000
  S   S114      1.0  0.02895  0.47516  0.80529  1.0000
  S   S115      1.0  0.45920  0.48610  0.79703  1.0000
  Fe  Fe60      1.0  0.42134  0.34763  0.70982  1.0000
  S   S116      1.0  0.40357  0.33841  0.67052  1.0000
  Fe  Fe61      1.0  0.40997  0.30620  0.73853  1.0000
  S   S117      1.0  0.39149  0.29429  0.70152  1.0000
  S   S118      1.0  0.41405  0.28757  0.77849  1.0000
  Fe  Fe62      1.0  0.41592  0.31579  0.67039  1.0000
  S   S119      1.0  0.42280  0.30430  0.62871  1.0000
  Fe  Fe63      1.0  0.38077  0.31776  0.70442  1.0000
  S   S120      1.0  0.34930  0.31392  0.70099  1.0000
  S   S121      1.0  0.43565  0.32625  0.70724  1.0000
  S   S122      1.0  0.39736  0.32840  0.74389  1.0000
  Fe  Fe64      1.0  0.31126  0.39401  0.75719  1.0000
  S   S123      1.0  0.30302  0.37783  0.80354  1.0000
  S   S124      1.0  0.29366  0.39365  0.71617  1.0000
  Fe  Fe65      1.0  0.35399  0.41519  0.77081  1.0000
  S   S125      1.0  0.34949  0.40074  0.81796  1.0000
  S   S126      1.0  0.38300  0.43185  0.74388  1.0000
  Fe  Fe66      1.0  0.33173  0.37446  0.79875  1.0000
  S   S127      1.0  0.33589  0.34793  0.81645  1.0000
  Fe  Fe67      1.0  0.32112  0.40517  0.82068  1.0000
  S   S128      1.0  0.30811  0.40926  0.86490  1.0000
  S   S129      1.0  0.33874  0.38819  0.75126  1.0000
  S   S130      1.0  0.32690  0.42206  0.77458  1.0000
  H   H419      1.0  0.01569  0.32982  0.53241  1.0000
  C   C342      1.0  0.07294  0.25992  0.94944  1.0000
  C   C343      1.0  0.32156  0.41420  0.89682  1.0000
  C   C344      1.0  0.34199  0.42089  0.89459  1.0000
  C   C345      1.0  0.35215  0.42457  0.92053  1.0000
  C   C346      1.0  0.34200  0.42116  0.94897  1.0000
  C   C347      1.0  0.32156  0.41425  0.95128  1.0000
  C   C348      1.0  0.31143  0.41111  0.92520  1.0000
  H   H420      1.0  0.34997  0.42359  0.87284  1.0000
  H   H421      1.0  0.36797  0.43003  0.91853  1.0000
  H   H422      1.0  0.31360  0.41187  0.97300  1.0000
  H   H423      1.0  0.29568  0.40649  0.92690  1.0000
  C   C349      1.0  0.00364  0.26931  0.76107  1.0000
  C   C350      1.0  0.02457  0.27287  0.96752  1.0000
  H   H424      1.0  0.40614  0.35791  0.81519  1.0000
  Fe  Fe68      1.0  0.99642  0.48633  0.74756  1.0000
  C   C351      1.0  0.42449  0.31705  0.59294  1.0000
  C   C352      1.0  0.41983  0.30715  0.56782  1.0000
  C   C353      1.0  0.42233  0.31698  0.53880  1.0000
  C   C354      1.0  0.43015  0.33682  0.53459  1.0000
  C   C355      1.0  0.43471  0.34672  0.55973  1.0000
  C   C356      1.0  0.43159  0.33688  0.58885  1.0000
  C   C357      1.0  0.99486  0.36506  0.82343  1.0000
  H   H425      1.0  0.41894  0.30921  0.51959  1.0000
  H   H426      1.0  0.44085  0.36205  0.55665  1.0000
  H   H427      1.0  0.43539  0.34464  0.60800  1.0000
  C   C358      1.0  0.34167  0.31970  0.73465  1.0000
  C   C359      1.0  0.34894  0.31523  0.76135  1.0000
  C   C360      1.0  0.34619  0.32308  0.78718  1.0000
  C   C361      1.0  0.33614  0.33537  0.78619  1.0000
  C   C362      1.0  0.32768  0.33878  0.76008  1.0000
  C   C363      1.0  0.33044  0.33093  0.73426  1.0000
  H   H428      1.0  0.35708  0.30602  0.76191  1.0000
  H   H429      1.0  0.35253  0.32022  0.80747  1.0000
  H   H430      1.0  0.31933  0.34777  0.75957  1.0000
  H   H431      1.0  0.32476  0.33444  0.71373  1.0000
  C   C364      1.0  0.43827  0.47013  0.78280  1.0000
  C   C365      1.0  0.43949  0.46303  0.75560  1.0000
  C   C366      1.0  0.42242  0.45117  0.74412  1.0000
  C   C367      1.0  0.40407  0.44603  0.75996  1.0000
  C   C368      1.0  0.40289  0.45249  0.78771  1.0000
  C   C369      1.0  0.41994  0.46466  0.79893  1.0000
  H   H432      1.0  0.45350  0.46706  0.74306  1.0000
  H   H433      1.0  0.42342  0.44611  0.72273  1.0000
  H   H434      1.0  0.38881  0.44864  0.80005  1.0000
  C   C370      1.0  0.04625  0.42458  0.66345  1.0000
  C   C371      1.0  0.06496  0.43656  0.66921  1.0000
  C   C372      1.0  0.06725  0.44888  0.69134  1.0000
  C   C373      1.0  0.05089  0.44951  0.70761  1.0000
  C   C374      1.0  0.03220  0.43728  0.70222  1.0000
  C   C375      1.0  0.02995  0.42478  0.68045  1.0000
  H   H435      1.0  0.07765  0.43650  0.65636  1.0000
  H   H436      1.0  0.08179  0.45824  0.69545  1.0000
  H   H437      1.0  0.01945  0.43753  0.71454  1.0000
  H   H438      1.0  0.01543  0.41541  0.67637  1.0000
  C   C376      1.0  0.04937  0.32451  0.59670  1.0000
  C   C377      1.0  0.03276  0.32898  0.60034  1.0000
  C   C378      1.0  0.01457  0.31634  0.59356  1.0000
  C   C379      1.0  0.01311  0.29931  0.58304  1.0000
  C   C380      1.0  0.02988  0.29527  0.57827  1.0000
  C   C381      1.0  0.04794  0.30768  0.58561  1.0000
  H   H439      1.0  0.03380  0.34187  0.60938  1.0000
  H   H440      1.0  0.47296  0.44097  0.74161  1.0000
  H   H441      1.0  0.02897  0.28249  0.56905  1.0000
  H   H442      1.0  0.06082  0.30432  0.58218  1.0000
  C   C382      1.0  0.24036  0.34726  0.68410  1.0000
  C   C383      1.0  0.24686  0.34424  0.71244  1.0000
  C   C384      1.0  0.26348  0.35801  0.72231  1.0000
  C   C385      1.0  0.27371  0.37505  0.70398  1.0000
  C   C386      1.0  0.26744  0.37789  0.67535  1.0000
  C   C387      1.0  0.25094  0.36404  0.66537  1.0000
  H   H443      1.0  0.23883  0.33128  0.72708  1.0000
  H   H444      1.0  0.26809  0.35564  0.74438  1.0000
  H   H445      1.0  0.27521  0.39106  0.66106  1.0000
  H   H446      1.0  0.24625  0.36646  0.64343  1.0000
  H   H447      1.0  0.00779  0.38313  0.78294  1.0000
  H   H448      1.0  0.39685  0.37853  0.84807  1.0000
  C   C388      1.0  0.41007  0.47846  0.94701  1.0000
  C   C389      1.0  0.11473  0.27583  0.59942  1.0000
  C   C390      1.0  0.22662  0.30142  0.50201  1.0000
  H   H449      1.0  0.41469  0.27390  0.72259  1.0000
  N   N27       1.0  0.99499  0.27949  0.67939  1.0000
  C   C391      1.0  0.05323  0.31840  0.71158  1.0000
  C   C392      1.0  0.17703  0.38903  0.56910  1.0000
  C   C393      1.0  0.18423  0.40869  0.56137  1.0000
  C   C394      1.0  0.17243  0.41896  0.56632  1.0000
  C   C395      1.0  0.15302  0.40966  0.57815  1.0000
  C   C396      1.0  0.14563  0.38988  0.58602  1.0000
  C   C397      1.0  0.15778  0.37958  0.58196  1.0000
  H   H450      1.0  0.19905  0.41609  0.55133  1.0000
  H   H451      1.0  0.17822  0.43419  0.56022  1.0000
  H   H452      1.0  0.13063  0.38259  0.59531  1.0000
  H   H453      1.0  0.15211  0.36439  0.58809  1.0000
  C   C398      1.0  0.08995  0.32377  0.98624  1.0000
  C   C399      1.0  0.10212  0.28886  0.94150  1.0000
  H   H454      1.0  0.01589  0.28613  0.64110  1.0000
  H   H455      1.0  0.11224  0.30063  0.92635  1.0000
  C   C400      1.0  0.48709  0.40368  0.73768  1.0000
  H   H456      1.0  0.41444  0.29182  0.57078  1.0000
  C   C401      1.0  0.47222  0.42696  0.73804  1.0000
  N   N28       1.0  0.03575  0.29177  0.95032  1.0000
  C   C402      1.0  0.10184  0.33788  0.54239  1.0000
  C   C403      1.0  0.01541  0.28650  0.66575  1.0000
  H   H457      1.0  0.00756  0.41355  0.76967  1.0000
  H   H458      1.0  0.15992  0.26338  0.97185  1.0000
  H   H459      1.0  0.01902  0.40817  0.86642  1.0000
  H   H460      1.0  0.39134  0.39800  0.83092  1.0000
  H   H461      1.0  0.04770  0.44564  0.80803  1.0000
  C   C404      1.0  0.41617  0.26023  0.66934  1.0000
  H   H462      1.0  0.06397  0.32607  0.92687  1.0000
  H   H463      1.0  0.02767  0.47252  0.69352  1.0000
  H   H464      1.0  0.14900  0.39437  0.52097  1.0000
  C   C405      1.0  0.36056  0.36122  0.97221  1.0000
  H   H465      1.0  0.25683  0.27566  0.49915  1.0000
  H   H466      1.0  0.25953  0.40669  0.74077  1.0000
  H   H467      1.0  0.14949  0.27921  0.98396  1.0000
  H   H468      1.0  0.41076  0.36512  0.77512  1.0000
  C   C406      1.0  0.45979  0.40259  0.80766  1.0000
  C   C407      1.0  0.42345  0.49707  0.94066  1.0000
  C   C408      1.0  0.22734  0.39920  0.67226  1.0000
  H   H469      1.0  0.00853  0.29503  0.94237  1.0000
  C   C409      1.0  0.42504  0.39725  0.80450  1.0000
  C   C410      1.0  0.13079  0.33222  0.55466  1.0000
  C   C411      1.0  0.42990  0.41657  0.80883  1.0000
  H   H470      1.0  0.45021  0.44658  0.68286  1.0000
  N   N29       1.0  0.31863  0.35343  0.90557  1.0000
  C   C412      1.0  0.32771  0.36818  0.87965  1.0000
  C   C413      1.0  0.31229  0.33471  0.89403  1.0000
  C   C414      1.0  0.30089  0.35582  0.91797  1.0000
  C   C415      1.0  0.33273  0.35562  0.92876  1.0000
  C   C416      1.0  0.33956  0.34114  0.93897  1.0000
  C   C417      1.0  0.34025  0.37283  0.94165  1.0000
  C   C418      1.0  0.04618  0.48059  0.63657  1.0000
  H   H471      1.0  0.03780  0.30563  0.51080  1.0000
  H   H472      1.0  0.13770  0.32438  0.56835  1.0000
  H   H473      1.0  0.34156  0.36743  0.87038  1.0000
  H   H474      1.0  0.31784  0.36661  0.86118  1.0000
  H   H475      1.0  0.33115  0.38275  0.88552  1.0000
  H   H476      1.0  0.32493  0.33237  0.88327  1.0000
  H   H477      1.0  0.30199  0.33371  0.87624  1.0000
  H   H478      1.0  0.30464  0.32288  0.91215  1.0000
  H   H479      1.0  0.29409  0.34554  0.93840  1.0000
  H   H480      1.0  0.30414  0.37034  0.92411  1.0000
  H   H481      1.0  0.28974  0.35372  0.90130  1.0000
  H   H482      1.0  0.33448  0.32742  0.93097  1.0000
  H   H483      1.0  0.33559  0.38436  0.93520  1.0000
  C   C419      1.0  0.99506  0.28007  0.71223  1.0000
  C   C420      1.0  0.99685  0.43042  0.62966  1.0000
  H   H484      1.0  0.29979  0.27046  0.95619  1.0000
  H   H485      1.0  0.19029  0.37279  0.66485  1.0000
  C   C421      1.0  0.03965  0.28855  0.91910  1.0000
  H   H486      1.0  0.39255  0.45629  0.98032  1.0000
  C   C422      1.0  0.24254  0.41691  0.67468  1.0000
  C   C423      1.0  0.44911  0.42846  0.81226  1.0000
  H   H487      1.0  0.04719  0.47881  0.61237  1.0000
  H   H488      1.0  0.27451  0.37789  0.95416  1.0000
  H   H489      1.0  0.05308  0.42866  0.77080  1.0000
  H   H490      1.0  0.21275  0.37050  0.69672  1.0000
  H   H491      1.0  0.41892  0.42278  0.80917  1.0000
  H   H492      1.0  0.04817  0.42805  0.83705  1.0000
  H   H493      1.0  0.99869  0.37775  0.89368  1.0000
  C   C424      1.0  0.99555  0.28037  0.77535  1.0000
  H   H494      1.0  0.22129  0.39841  0.59738  1.0000
  C   C425      1.0  0.46533  0.47659  0.67097  1.0000
  H   H495      1.0  0.01499  0.48817  0.68622  1.0000
  C   C426      1.0  0.04759  0.30597  0.73810  1.0000
  H   H496      1.0  0.03777  0.30759  0.75524  1.0000
  C   C427      1.0  0.01304  0.39650  0.85343  1.0000
  C   C428      1.0  0.25028  0.40480  0.72225  1.0000
  C   C429      1.0  0.06731  0.32013  0.94776  1.0000
  H   H497      1.0  0.06545  0.27891  0.65024  1.0000
  Fe  Fe69      1.0  0.01074  0.25991  0.86439  1.0000
  H   H498      1.0  0.39755  0.40741  0.77706  1.0000
  C   C430      1.0  0.01621  0.39867  0.82161  1.0000
  C   C431      1.0  0.22379  0.38455  0.69649  1.0000
  H   H499      1.0  0.19669  0.28305  0.51480  1.0000
  H   H500      1.0  0.43859  0.37631  0.80006  1.0000
  H   H501      1.0  0.00387  0.42589  0.79987  1.0000
  S   S131      1.0  0.04177  0.26320  0.85384  1.0000
  N   N30       1.0  0.08769  0.30045  0.67035  1.0000
  C   C432      1.0  0.10347  0.31923  0.66026  1.0000
  C   C433      1.0  0.09734  0.28725  0.68068  1.0000
  C   C434      1.0  0.07683  0.29341  0.64425  1.0000
  C   C435      1.0  0.07392  0.30209  0.69379  1.0000
  C   C436      1.0  0.06603  0.31642  0.68958  1.0000
  C   C437      1.0  0.06733  0.28925  0.72070  1.0000
  H   H502      1.0  0.09487  0.34374  0.94688  1.0000
  H   H503      1.0  0.04898  0.32605  0.52946  1.0000
  H   H504      1.0  0.24062  0.35476  0.95525  1.0000
  H   H505      1.0  0.11074  0.32597  0.67969  1.0000
  H   H506      1.0  0.11498  0.31802  0.64467  1.0000
  H   H507      1.0  0.09806  0.32926  0.64748  1.0000
  H   H508      1.0  0.10871  0.28735  0.66356  1.0000
  H   H509      1.0  0.08682  0.27226  0.68498  1.0000
  H   H510      1.0  0.10488  0.29127  0.70135  1.0000
  H   H511      1.0  0.06937  0.30279  0.63535  1.0000
  H   H512      1.0  0.08676  0.29281  0.62543  1.0000
  H   H513      1.0  0.00998  0.26038  0.72001  1.0000
  H   H514      1.0  0.06970  0.32625  0.66922  1.0000
  H   H515      1.0  0.07192  0.27748  0.72567  1.0000
  S   S132      1.0  0.35554  0.42601  0.98075  1.0000
  H   H516      1.0  0.47159  0.39742  0.80634  1.0000
  C   C438      1.0  0.46956  0.39025  0.72956  1.0000
  H   H517      1.0  0.38642  0.35658  0.79262  1.0000
  H   H518      1.0  0.02248  0.49346  0.60416  1.0000
  C   C439      1.0  0.08585  0.27546  0.93028  1.0000
  H   H519      1.0  0.45254  0.44328  0.81492  1.0000
  C   C440      1.0  0.13335  0.35754  0.51453  1.0000
  H   H520      1.0  0.08632  0.33458  0.54671  1.0000
  H   H521      1.0  0.43902  0.28159  0.70500  1.0000
  S   S133      1.0  0.00331  0.28592  0.86055  1.0000
  Fe  Fe70      1.0  0.99649  0.46027  0.80406  1.0000
  H   H522      1.0  0.37633  0.37435  0.82567  1.0000
  C   C441      1.0  0.40195  0.36533  0.79571  1.0000
  H   H523      1.0  0.05249  0.40860  0.79603  1.0000
  H   H524      1.0  0.03683  0.40564  0.76569  1.0000
  C   C442      1.0  0.01272  0.44736  0.63110  1.0000
  N   N31       1.0  0.37896  0.38173  0.68261  1.0000
  C   C443      1.0  0.37664  0.36659  0.70746  1.0000
  C   C444      1.0  0.39028  0.37914  0.65655  1.0000
  C   C445      1.0  0.39074  0.40014  0.69282  1.0000
  C   C446      1.0  0.35938  0.38045  0.67416  1.0000
  C   C447      1.0  0.34630  0.36357  0.66433  1.0000
  C   C448      1.0  0.35244  0.39535  0.67638  1.0000
  C   C449      1.0  0.32738  0.36161  0.65764  1.0000
  C   C450      1.0  0.33346  0.39319  0.66973  1.0000
  C   C451      1.0  0.32092  0.37635  0.66059  1.0000
  H   H525      1.0  0.37080  0.35230  0.70009  1.0000
  H   H526      1.0  0.39076  0.36795  0.71660  1.0000
  H   H527      1.0  0.36643  0.36675  0.72626  1.0000
  H   H528      1.0  0.38324  0.36497  0.64887  1.0000
  H   H529      1.0  0.40521  0.38027  0.66216  1.0000
  H   H530      1.0  0.39191  0.39001  0.63717  1.0000
  H   H531      1.0  0.38353  0.40244  0.71341  1.0000
  H   H532      1.0  0.40551  0.40078  0.69845  1.0000
  H   H533      1.0  0.39315  0.41227  0.67524  1.0000
  H   H534      1.0  0.35046  0.35152  0.66257  1.0000
  H   H535      1.0  0.36108  0.40861  0.68420  1.0000
  H   H536      1.0  0.31759  0.34847  0.65071  1.0000
  H   H537      1.0  0.32822  0.40448  0.67260  1.0000
  H   H538      1.0  0.30609  0.37469  0.65629  1.0000
  N   N32       1.0  0.25883  0.31155  0.62664  1.0000
  C   C452      1.0  0.25154  0.30634  0.59713  1.0000
  C   C453      1.0  0.24287  0.30023  0.65010  1.0000
  C   C454      1.0  0.26266  0.33192  0.62720  1.0000
  C   C455      1.0  0.27699  0.30830  0.63249  1.0000
  C   C456      1.0  0.28401  0.30948  0.66149  1.0000
  C   C457      1.0  0.28866  0.30480  0.60962  1.0000
  C   C458      1.0  0.30112  0.30646  0.66749  1.0000
  C   C459      1.0  0.30591  0.30208  0.61583  1.0000
  C   C460      1.0  0.31205  0.30280  0.64473  1.0000
  H   H539      1.0  0.24913  0.29132  0.59468  1.0000
  H   H540      1.0  0.23731  0.30790  0.59415  1.0000
  H   H541      1.0  0.26154  0.31575  0.57792  1.0000
  H   H542      1.0  0.24106  0.28504  0.65288  1.0000
  H   H543      1.0  0.22853  0.30084  0.64459  1.0000
  H   H544      1.0  0.24524  0.30559  0.67229  1.0000
  H   H545      1.0  0.27437  0.34093  0.60967  1.0000
  H   H546      1.0  0.24932  0.33502  0.62310  1.0000
  H   H547      1.0  0.26734  0.33663  0.64925  1.0000
  H   H548      1.0  0.27640  0.31283  0.67977  1.0000
  H   H549      1.0  0.28478  0.30413  0.58674  1.0000
  H   H550      1.0  0.30604  0.30699  0.68993  1.0000
  H   H551      1.0  0.31459  0.29937  0.59817  1.0000
  H   H552      1.0  0.32538  0.30059  0.64957  1.0000
  N   N33       1.0  0.02811  0.41703  0.80370  1.0000
  C   C461      1.0  0.26955  0.36519  0.97017  1.0000
  C   C462      1.0  0.08493  0.33050  0.95917  1.0000
  N   N34       1.0  0.02679  0.48066  0.64665  1.0000
  C   C463      1.0  0.35397  0.37557  0.96296  1.0000
  H   H553      1.0  0.04955  0.28059  0.91820  1.0000
  C   C464      1.0  0.01521  0.42369  0.78536  1.0000
  H   H554      1.0  0.02055  0.30646  0.97299  1.0000
  H   H555      1.0  0.40506  0.26679  0.67106  1.0000
  H   H556      1.0  0.02950  0.31648  0.93484  1.0000
  C   C465      1.0  0.09669  0.27358  0.55497  1.0000
  H   H557      1.0  0.04096  0.49722  0.68146  1.0000
  C   C466      1.0  0.11075  0.32768  0.55951  1.0000
  H   H558      1.0  0.37480  0.26688  0.76135  1.0000
  H   H559      1.0  0.04630  0.30188  0.90351  1.0000
  C   C467      1.0  0.20512  0.40946  0.64381  1.0000
  H   H560      1.0  0.17316  0.38039  0.50771  1.0000
  C   C468      1.0  0.22944  0.40112  0.61785  1.0000
  H   H561      1.0  0.40519  0.46986  0.92892  1.0000
  H   H562      1.0  0.01092  0.26508  0.95703  1.0000
  H   H563      1.0  0.15752  0.34983  0.53036  1.0000
  H   H564      1.0  0.99277  0.30654  0.66625  1.0000
  C   C469      1.0  0.23513  0.38743  0.72104  1.0000
  C   C470      1.0  0.42679  0.26915  0.71718  1.0000
  H   H565      1.0  0.12742  0.29072  0.55585  1.0000
  H   H566      1.0  0.23853  0.39232  0.61882  1.0000
  C   C471      1.0  0.05449  0.29134  0.74250  1.0000
  N   N35       1.0  0.21601  0.39659  0.64548  1.0000
  C   C472      1.0  0.10554  0.28708  0.97201  1.0000
  C   C473      1.0  0.02310  0.30296  0.95013  1.0000
  H   H567      1.0  0.02368  0.43741  0.77149  1.0000
  C   C474      1.0  0.11424  0.28110  0.56887  1.0000
  S   S134      1.0  0.12688  0.30398  0.98430  1.0000
  H   H568      1.0  0.20889  0.36651  0.64637  1.0000
  H   H569      1.0  0.41890  0.47008  0.82000  1.0000
  C   C475      1.0  0.39582  0.26504  0.79199  1.0000
  C   C476      1.0  0.20159  0.37694  0.64558  1.0000
  H   H570      1.0  0.02593  0.28023  0.90941  1.0000
  Fe  Fe71      1.0  0.02427  0.50239  0.79449  1.0000
  H   H571      1.0  0.45244  0.47981  0.67553  1.0000
  C   C477      1.0  0.15488  0.26792  0.99224  1.0000
  C   C478      1.0  0.44064  0.39059  0.80398  1.0000
  C   C479      1.0  0.04536  0.32133  0.50706  1.0000
  C   C480      1.0  0.24368  0.33601  0.99206  1.0000
  S   S135      1.0  0.02886  0.50242  0.74505  1.0000
  H   H572      1.0  0.40769  0.39517  0.75365  1.0000
  C   C481      1.0  0.14202  0.34690  0.53253  1.0000
  C   C482      1.0  0.25391  0.41954  0.69921  1.0000
  H   H573      1.0  0.44229  0.41760  0.72690  1.0000
  C   C483      1.0  0.39782  0.39330  0.77409  1.0000
  H   H574      1.0  0.08363  0.27688  0.90666  1.0000
  H   H575      1.0  0.41332  0.25872  0.82549  1.0000
  S   S136      1.0  0.43108  0.37926  0.71437  1.0000
  H   H576      1.0  0.46866  0.37614  0.72630  1.0000
  H   H577      1.0  0.35940  0.38888  0.97253  1.0000
  C   C484      1.0  0.04323  0.41479  0.78330  1.0000
  H   H578      1.0  0.04489  0.35524  0.51629  1.0000
  C   C485      1.0  0.11290  0.35259  0.52027  1.0000
  H   H579      1.0  0.19595  0.40749  0.62435  1.0000
  H   H580      1.0  0.09650  0.27751  0.53123  1.0000
  C   C486      1.0  0.25045  0.35212  0.97078  1.0000
  H   H581      1.0  0.23949  0.41624  0.61402  1.0000
  H   H582      1.0  0.23267  0.37588  0.73875  1.0000
  C   C487      1.0  0.40284  0.47083  0.97660  1.0000
  C   C488      1.0  0.45335  0.39522  0.72542  1.0000
  C   C489      1.0  0.46402  0.42148  0.81169  1.0000
  H   H583      1.0  0.37095  0.36326  0.98917  1.0000
  C   C490      1.0  0.05435  0.30241  0.96289  1.0000
  H   H584      1.0  0.38265  0.38428  0.76981  1.0000
  C   C491      1.0  0.01033  0.46256  0.64446  1.0000
  C   C492      1.0  0.07623  0.25823  0.98004  1.0000
  H   H585      1.0  0.47900  0.43085  0.81356  1.0000
  C   C493      1.0  0.02761  0.48481  0.67822  1.0000
  H   H586      1.0  0.04927  0.46907  0.64986  1.0000
  H   H587      1.0  0.26585  0.43297  0.70023  1.0000
  C   C494      1.0  0.03838  0.43222  0.82224  1.0000
  C   C495      1.0  0.45478  0.41362  0.72973  1.0000
  N   N36       1.0  0.40458  0.38504  0.80053  1.0000
  H   H588      1.0  0.04774  0.32971  0.70803  1.0000
  C   C496      1.0  0.35328  0.34400  0.96040  1.0000
  C   C497      1.0  0.39175  0.38395  0.82748  1.0000
  H   H589      1.0  0.21502  0.42465  0.64109  1.0000
  C   C498      1.0  0.46411  0.45789  0.67515  1.0000
  H   H590      1.0  0.19353  0.37537  0.62498  1.0000
  H   H591      1.0  0.10213  0.31634  0.57672  1.0000
  H   H592      1.0  0.24592  0.42879  0.65742  1.0000
  H   H593      1.0  0.02676  0.44792  0.62220  1.0000
  H   H594      1.0  0.00160  0.31950  0.59729  1.0000
  H   H595      1.0  0.04990  0.28150  0.76304  1.0000
  H   H596      1.0  0.19520  0.40683  0.66450  1.0000
  H   H597      1.0  0.32410  0.30087  0.50684  1.0000
  C   C499      1.0  0.09228  0.27184  0.99138  1.0000
  C   C500      1.0  0.30657  0.26006  0.95696  1.0000
  H   H598      1.0  0.02366  0.30142  0.66969  1.0000
  C   C501      1.0  0.20919  0.28634  0.49882  1.0000
  H   H599      1.0  0.30460  0.25708  0.91052  1.0000
  C   C502      1.0  0.05986  0.29603  0.99060  1.0000
  C   C503      1.0  0.02373  0.49626  0.62798  1.0000
  H   H600      1.0  0.05834  0.49411  0.63950  1.0000
  H   H601      1.0  0.01026  0.26092  0.77412  1.0000
  C   C504      1.0  0.48850  0.42208  0.74198  1.0000
  H   H602      1.0  0.09791  0.25826  0.63921  1.0000
  H   H603      1.0  0.01988  0.27409  0.99078  1.0000
  C   C505      1.0  0.42241  0.50064  0.99364  1.0000
  H   H604      1.0  0.02357  0.27777  0.67468  1.0000
  H   H605      1.0  0.47877  0.43891  0.67447  1.0000
  C   C506      1.0  0.28209  0.36206  0.99048  1.0000
  H   H606      1.0  0.00670  0.30894  0.51462  1.0000
  S   S137      1.0  0.43598  0.34965  0.49821  1.0000
  C   C507      1.0  0.00663  0.38242  0.80710  1.0000
  S   S138      1.0  0.99813  0.45733  0.75457  1.0000
  C   C508      1.0  0.00344  0.26914  0.73002  1.0000
  H   H607      1.0  0.29694  0.37236  0.99002  1.0000
  C   C509      1.0  0.01410  0.32463  0.51000  1.0000
  H   H608      1.0  0.99575  0.28043  0.79945  1.0000
  C   C510      1.0  0.48079  0.45368  0.67028  1.0000
  C   C511      1.0  0.48324  0.49120  0.66164  1.0000
  H   H609      1.0  0.22867  0.32645  0.99175  1.0000
  H   H610      1.0  0.42903  0.50292  0.91765  1.0000
  C   C512      1.0  0.00134  0.37902  0.86952  1.0000
  H   H611      1.0  0.00399  0.33019  0.49827  1.0000
  H   H612      1.0  0.01014  0.49812  0.63586  1.0000
  C   C513      1.0  0.07943  0.26100  0.57157  1.0000
  C   C514      1.0  0.09755  0.26290  0.61580  1.0000
  H   H613      1.0  0.10383  0.33159  0.99475  1.0000
  H   H614      1.0  0.10534  0.36028  0.50796  1.0000
  H   H615      1.0  0.12824  0.39074  0.49983  1.0000
  Fe  Fe72      1.0  0.48960  0.49058  0.77767  1.0000
  C   C515      1.0  0.14345  0.39120  0.49867  1.0000
  H   H616      1.0  0.43190  0.26553  0.73902  1.0000
  H   H617      1.0  0.99920  0.41888  0.62000  1.0000
  H   H618      1.0  0.48428  0.50581  0.65901  1.0000
  H   H619      1.0  0.44906  0.25704  0.68142  1.0000
  S   S139      1.0  0.03971  0.52522  0.14694  1.0000
  Fe  Fe73      1.0  0.11676  0.67702  0.06335  1.0000
  S   S140      1.0  0.02427  0.73227  0.14778  1.0000
  Fe  Fe74      1.0  0.09145  0.63473  0.08355  1.0000
  S   S141      1.0  0.07834  0.63064  0.03928  1.0000
  S   S142      1.0  0.08303  0.61491  0.12742  1.0000
  Fe  Fe75      1.0  0.07611  0.65881  0.04182  1.0000
  S   S143      1.0  0.04939  0.66338  0.02747  1.0000
  S   S144      1.0  0.12220  0.65000  0.06248  1.0000
  S   S145      1.0  0.08702  0.66196  0.08744  1.0000
  S   S146      1.0  0.01106  0.72353  0.08040  1.0000
  S   S147      1.0  0.03780  0.73676  0.39657  1.0000
  C   C516      1.0  0.03540  0.66526  0.05849  1.0000
  C   C517      1.0  0.03736  0.65789  0.08740  1.0000
  C   C518      1.0  0.02776  0.66132  0.11240  1.0000
  C   C519      1.0  0.01622  0.67217  0.10843  1.0000
  C   C520      1.0  0.01314  0.67832  0.07944  1.0000
  C   C521      1.0  0.02274  0.67491  0.05447  1.0000
  H   H620      1.0  0.04641  0.64970  0.09062  1.0000
  H   H621      1.0  0.02988  0.65619  0.13477  1.0000
  H   H622      1.0  0.02079  0.68026  0.03212  1.0000
  C   C522      1.0  0.05317  0.54996  0.14191  1.0000
  C   C523      1.0  0.05933  0.55946  0.11267  1.0000
  C   C524      1.0  0.06875  0.57936  0.10772  1.0000
  C   C525      1.0  0.07257  0.58984  0.13210  1.0000
  C   C526      1.0  0.06710  0.58024  0.16136  1.0000
  C   C527      1.0  0.05715  0.56043  0.16627  1.0000
  H   H623      1.0  0.05636  0.55142  0.09372  1.0000
  H   H624      1.0  0.07299  0.58658  0.08511  1.0000
  H   H625      1.0  0.07017  0.58825  0.18033  1.0000
  H   H626      1.0  0.05263  0.55326  0.18886  1.0000
  S   S148      1.0  0.10537  0.67652  0.01770  1.0000
  C   C528      1.0  0.09284  0.71581  0.06186  1.0000
  C   C529      1.0  0.09336  0.73634  0.10161  1.0000
  H   H627      1.0  0.06614  0.68985  0.09813  1.0000
  N   N37       1.0  0.08161  0.71991  0.08659  1.0000
  H   H628      1.0  0.05593  0.71139  0.06167  1.0000
  H   H629      1.0  0.08352  0.70341  0.05105  1.0000
  C   C530      1.0  0.07392  0.70271  0.10892  1.0000
  Fe  Fe76      1.0  0.10863  0.64848  0.01830  1.0000
  C   C531      1.0  0.06489  0.72334  0.07365  1.0000
  S   S149      1.0  0.13792  0.70117  0.08521  1.0000
  Fe  Fe77      1.0  0.00489  0.70749  0.12644  1.0000
  Fe  Fe78      1.0  0.00865  0.71330  0.41020  1.0000
  S   S150      1.0  0.00697  0.67919  0.13964  1.0000
  H   H630      1.0  0.03384  0.59639  0.10425  1.0000
  C   C532      1.0  0.15901  0.73803  0.09287  1.0000
  H   H631      1.0  0.14306  0.72367  0.02619  1.0000
  C   C533      1.0  0.14953  0.72567  0.07231  1.0000
  H   H632      1.0  0.15844  0.73252  0.11615  1.0000
  C   C534      1.0  0.15032  0.73297  0.04227  1.0000
  H   H633      1.0  0.18710  0.70986  0.07006  1.0000
  C   C535      1.0  0.19139  0.71895  0.04894  1.0000
  H   H634      1.0  0.05469  0.72502  0.09096  1.0000
  H   H635      1.0  0.16335  0.68205  0.06385  1.0000
  H   H636      1.0  0.00333  0.68571  0.07619  1.0000
  H   H637      1.0  0.10519  0.71228  0.07027  1.0000
  C   C536      1.0  0.02021  0.59867  0.10484  1.0000
  C   C537      1.0  0.20112  0.73832  0.05066  1.0000
  H   H638      1.0  0.14804  0.69363  0.02329  1.0000
  H   H639      1.0  0.03366  0.57480  0.37900  1.0000
  S   S151      1.0  0.99868  0.72977  0.44110  1.0000
  H   H640      1.0  0.06928  0.73476  0.13293  1.0000
  C   C538      1.0  0.02341  0.57681  0.36273  1.0000
  C   C539      1.0  0.17296  0.67907  0.04695  1.0000
  H   H641      1.0  0.00683  0.54228  0.39449  1.0000
  H   H642      1.0  0.03020  0.61886  0.06485  1.0000
  C   C540      1.0  0.01834  0.61163  0.08219  1.0000
  C   C541      1.0  0.00090  0.67936  0.32376  1.0000
  H   H643      1.0  0.06319  0.70354  0.12625  1.0000
  H   H644      1.0  0.08600  0.70030  0.12049  1.0000
  H   H645      1.0  0.09870  0.72805  0.04386  1.0000
  H   H646      1.0  0.02586  0.57086  0.34197  1.0000
  C   C542      1.0  0.00373  0.60134  0.43314  1.0000
  S   S152      1.0  0.00600  0.68358  0.42629  1.0000
  H   H647      1.0  0.00922  0.71256  0.26411  1.0000
  H   H648      1.0  0.01287  0.60465  0.38684  1.0000
  Fe  Fe79      1.0  0.02158  0.50903  0.19002  1.0000
  C   C543      1.0  0.00041  0.57459  0.40472  1.0000
  C   C544      1.0  0.00645  0.59438  0.40639  1.0000
  H   H649      1.0  0.00729  0.71279  0.21619  1.0000
  C   C545      1.0  0.99777  0.54675  0.37857  1.0000
  S   S153      1.0  0.02414  0.51668  0.23716  1.0000
  H   H650      1.0  0.01552  0.69346  0.21350  1.0000
  H   H651      1.0  0.01792  0.70932  0.31526  1.0000
  H   H652      1.0  0.02780  0.59228  0.35605  1.0000
  N   N38       1.0  0.00282  0.56758  0.37582  1.0000
  C   C546      1.0  0.00343  0.69855  0.27646  1.0000
  H   H653      1.0  0.16550  0.66382  0.04403  1.0000
  H   H654      1.0  0.02602  0.56645  0.12417  1.0000
  Fe  Fe80      1.0  0.99687  0.73809  0.15473  1.0000
  H   H655      1.0  0.00827  0.61649  0.43381  1.0000
  H   H656      1.0  0.99930  0.69807  0.18808  1.0000
  C   C547      1.0  0.00274  0.69779  0.21194  1.0000
  C   C548      1.0  0.00838  0.69687  0.30601  1.0000
  H   H657      1.0  0.14810  0.67366  0.00517  1.0000
  H   H658      1.0  0.20395  0.74343  0.07233  1.0000
  H   H659      1.0  0.00039  0.55300  0.12432  1.0000
  H   H660      1.0  0.07006  0.73653  0.05744  1.0000
  H   H661      1.0  0.18704  0.68067  0.05659  1.0000
  N   N39       1.0  0.17612  0.69161  0.01817  1.0000
  H   H662      1.0  0.99993  0.54189  0.35660  1.0000
  C   C549      1.0  0.18673  0.71198  0.02089  1.0000
  C   C550      1.0  0.01204  0.56068  0.13852  1.0000
  H   H663      1.0  0.01361  0.54997  0.15588  1.0000
  C   C551      1.0  0.08467  0.74186  0.12587  1.0000
  H   H664      1.0  0.00465  0.67815  0.34677  1.0000
  C   C552      1.0  0.15668  0.68885  0.00741  1.0000
  S   S154      1.0  0.99424  0.72051  0.37036  1.0000
  C   C553      1.0  0.20172  0.74500  0.99703  1.0000
  Fe  Fe81      1.0  0.02232  0.74553  0.35923  1.0000
  C   C554      1.0  0.20628  0.75131  0.02480  1.0000
  H   H665      1.0  0.20229  0.68799  0.00267  1.0000
  H   H666      1.0  0.49138  0.57054  0.40512  1.0000
  C   C555      1.0  0.02144  0.75135  0.22719  1.0000
  C   C556      1.0  0.99471  0.58885  0.45885  1.0000
  H   H667      1.0  0.03785  0.59343  0.15486  1.0000
  H   H668      1.0  0.02098  0.59724  0.18036  1.0000
  C   C557      1.0  0.00504  0.58918  0.12807  1.0000
  H   H669      1.0  0.99639  0.74383  0.30769  1.0000
  C   C558      1.0  0.02366  0.75125  0.28137  1.0000
  H   H670      1.0  0.42780  0.50997  0.01051  1.0000
  C   C559      1.0  0.00157  0.61585  0.08224  1.0000
  N   N40       1.0  0.00754  0.57569  0.15204  1.0000
  H   H671      1.0  0.99758  0.64398  0.42659  1.0000
  C   C560      1.0  0.02399  0.58609  0.16935  1.0000
  C   C561      1.0  0.16124  0.75235  0.03278  1.0000
  H   H672      1.0  0.02690  0.57640  0.18701  1.0000
  C   C562      1.0  0.00339  0.74586  0.28536  1.0000
  H   H673      1.0  0.12146  0.74410  0.07497  1.0000
  Fe  Fe82      1.0  0.02681  0.75412  0.42439  1.0000
  Fe  Fe83      1.0  0.02817  0.74905  0.10243  1.0000
  H   H674      1.0  0.00045  0.62633  0.06503  1.0000
  C   C563      1.0  0.00114  0.74602  0.23123  1.0000
  C   C564      1.0  0.03266  0.75402  0.25220  1.0000
  H   H675      1.0  0.02852  0.75362  0.20482  1.0000
  C   C565      1.0  0.11357  0.74698  0.09333  1.0000
  S   S155      1.0  0.03795  0.75432  0.31249  1.0000
  H   H676      1.0  0.48164  0.53914  0.38839  1.0000
  H   H677      1.0  0.99376  0.58775  0.34959  1.0000
  S   S156      1.0  0.49110  0.53402  0.25379  1.0000
  H   H678      1.0  0.46922  0.52098  0.34932  1.0000
  H   H679      1.0  0.47702  0.50944  0.32159  1.0000
  C   C566      1.0  0.48131  0.52278  0.33233  1.0000
  H   H680      1.0  0.48650  0.51172  0.38851  1.0000
  H   H681      1.0  0.48188  0.53429  0.31465  1.0000
  Fe  Fe84      1.0  0.49177  0.50686  0.23836  1.0000
  H   H682      1.0  0.48875  0.59286  0.24539  1.0000
  Fe  Fe85      1.0  0.09438  0.63636  0.77400  1.0000
  S   S157      1.0  0.08322  0.64128  0.81837  1.0000
  S   S158      1.0  0.09505  0.60887  0.76027  1.0000
  Fe  Fe86      1.0  0.10399  0.67750  0.74523  1.0000
  S   S159      1.0  0.09268  0.68540  0.78700  1.0000
  S   S160      1.0  0.11908  0.69568  0.70109  1.0000
  Fe  Fe87      1.0  0.10857  0.66926  0.81200  1.0000
  S   S161      1.0  0.12619  0.68459  0.84821  1.0000
  Fe  Fe88      1.0  0.06831  0.65687  0.79027  1.0000
  S   S162      1.0  0.03693  0.65039  0.80556  1.0000
  S   S163      1.0  0.12146  0.66303  0.77008  1.0000
  S   S164      1.0  0.07778  0.65021  0.74616  1.0000
  H   H683      1.0  0.02931  0.59083  0.73781  1.0000
  H   H684      1.0  0.00265  0.54039  0.73734  1.0000
  H   H685      1.0  0.05459  0.65728  0.86457  1.0000
  C   C567      1.0  0.12471  0.71986  0.68737  1.0000
  C   C568      1.0  0.13451  0.72686  0.65861  1.0000
  H   H686      1.0  0.07261  0.58791  0.91181  1.0000
  H   H687      1.0  0.08143  0.60727  0.95390  1.0000
  H   H688      1.0  0.15772  0.69694  0.98505  1.0000
  C   C569      1.0  0.12096  0.73248  0.70486  1.0000
  H   H689      1.0  0.13739  0.71719  0.64485  1.0000
  C   C570      1.0  0.00717  0.56282  0.84705  1.0000
  C   C571      1.0  0.07635  0.66791  0.90968  1.0000
  H   H690      1.0  0.11318  0.72732  0.72682  1.0000
  C   C572      1.0  0.12410  0.67188  0.88399  1.0000
  C   C573      1.0  0.12001  0.65240  0.88751  1.0000
  C   C574      1.0  0.11919  0.64280  0.91620  1.0000
  C   C575      1.0  0.12140  0.65237  0.94171  1.0000
  C   C576      1.0  0.12504  0.67178  0.93824  1.0000
  C   C577      1.0  0.12679  0.68158  0.90940  1.0000
  H   H691      1.0  0.11800  0.64480  0.86807  1.0000
  H   H692      1.0  0.11663  0.62784  0.91864  1.0000
  H   H693      1.0  0.12691  0.67934  0.95765  1.0000
  H   H694      1.0  0.12995  0.69666  0.90681  1.0000
  C   C578      1.0  0.04626  0.65534  0.88671  1.0000
  H   H695      1.0  0.13592  0.71694  0.75316  1.0000
  H   H696      1.0  0.14032  0.72577  0.78886  1.0000
  C   C579      1.0  0.02339  0.64561  0.77426  1.0000
  C   C580      1.0  0.03137  0.65579  0.74616  1.0000
  C   C581      1.0  0.02063  0.65175  0.72100  1.0000
  H   H697      1.0  0.07477  0.63605  0.95409  1.0000
  H   H698      1.0  0.05440  0.65122  0.96044  1.0000
  H   H699      1.0  0.04577  0.66695  0.74384  1.0000
  H   H700      1.0  0.02680  0.65983  0.69937  1.0000
  C   C582      1.0  0.05162  0.55043  0.80270  1.0000
  C   C583      1.0  0.06214  0.55243  0.77518  1.0000
  C   C584      1.0  0.07549  0.57042  0.76249  1.0000
  C   C585      1.0  0.07800  0.58660  0.77678  1.0000
  C   C586      1.0  0.06720  0.58464  0.80402  1.0000
  C   C587      1.0  0.05434  0.56658  0.81716  1.0000
  H   H701      1.0  0.06035  0.54008  0.76400  1.0000
  H   H702      1.0  0.08391  0.57183  0.74151  1.0000
  H   H703      1.0  0.06914  0.59698  0.81527  1.0000
  H   H704      1.0  0.04649  0.56509  0.83866  1.0000
  C   C588      1.0  0.01614  0.58979  0.79655  1.0000
  C   C589      1.0  0.00209  0.63723  0.72376  1.0000
  H   H705      1.0  0.05674  0.59772  0.86951  1.0000
  H   H706      1.0  0.44008  0.52260  0.95881  1.0000
  C   C590      1.0  0.18729  0.75416  0.77177  1.0000
  C   C591      1.0  0.07001  0.62781  0.93566  1.0000
  C   C592      1.0  0.07395  0.61129  0.93574  1.0000
  H   H707      1.0  0.20524  0.75527  0.97713  1.0000
  C   C593      1.0  0.06080  0.63388  0.91186  1.0000
  C   C594      1.0  0.01364  0.58202  0.85045  1.0000
  H   H708      1.0  0.18259  0.71162  0.73963  1.0000
  H   H709      1.0  0.19123  0.75063  0.79377  1.0000
  C   C595      1.0  0.01813  0.59548  0.82524  1.0000
  N   N41       1.0  0.05730  0.65173  0.91198  1.0000
  C   C596      1.0  0.99434  0.62674  0.75175  1.0000
  H   H710      1.0  0.13518  0.70132  0.78567  1.0000
  H   H711      1.0  0.08530  0.66856  0.88873  1.0000
  H   H712      1.0  0.03903  0.57392  0.75292  1.0000
  C   C597      1.0  0.04606  0.65133  0.94040  1.0000
  H   H713      1.0  0.04925  0.62602  0.86866  1.0000
  H   H714      1.0  0.08511  0.66686  0.92883  1.0000
  C   C598      1.0  0.16687  0.70762  0.74692  1.0000
  C   C599      1.0  0.17411  0.74031  0.75585  1.0000
  S   S165      1.0  0.03498  0.52809  0.81979  1.0000
  H   H715      1.0  0.01516  0.53998  0.77050  1.0000
  H   H716      1.0  0.18735  0.71825  0.79483  1.0000
  C   C600      1.0  0.06910  0.60046  0.91201  1.0000
  H   H717      1.0  0.16811  0.72271  0.81551  1.0000
  C   C601      1.0  0.06011  0.60601  0.88823  1.0000
  H   H718      1.0  0.04342  0.66858  0.88779  1.0000
  H   H719      1.0  0.03181  0.64356  0.88673  1.0000
  H   H720      1.0  0.16102  0.69246  0.75682  1.0000
  C   C602      1.0  0.16986  0.74683  0.72731  1.0000
  C   C603      1.0  0.17139  0.71518  0.79731  1.0000
  S   S166      1.0  0.12035  0.63987  0.97737  1.0000
  N   N42       1.0  0.16419  0.72015  0.76851  1.0000
  C   C604      1.0  0.14303  0.71593  0.77421  1.0000
  H   H721      1.0  0.16391  0.69979  0.80574  1.0000
  C   C605      1.0  0.05592  0.62242  0.88805  1.0000
  H   H722      1.0  0.15888  0.70794  0.72652  1.0000
  H   H723      1.0  0.04218  0.66407  0.94053  1.0000
  N   N43       1.0  0.00787  0.56472  0.76152  1.0000
  C   C606      1.0  0.00356  0.54419  0.76067  1.0000
  C   C607      1.0  0.00528  0.55698  0.81843  1.0000
  H   H724      1.0  0.02593  0.57032  0.71985  1.0000
  C   C608      1.0  0.00475  0.63123  0.77714  1.0000
  C   C609      1.0  0.42963  0.50812  0.96391  1.0000
  H   H725      1.0  0.07452  0.68173  0.90936  1.0000
  H   H726      1.0  0.99443  0.58447  0.74663  1.0000
  H   H727      1.0  0.01342  0.64810  0.59284  1.0000
  C   C610      1.0  0.14089  0.74628  0.64764  1.0000
  H   H728      1.0  0.00490  0.66657  0.60011  1.0000
  H   H729      1.0  0.03224  0.63855  0.94411  1.0000
  H   H730      1.0  0.18814  0.69216  0.97310  1.0000
  C   C611      1.0  0.02628  0.57542  0.74224  1.0000
  H   H731      1.0  0.14865  0.75146  0.62566  1.0000
  H   H732      1.0  0.02325  0.61043  0.82782  1.0000
  H   H733      1.0  0.99863  0.62317  0.79880  1.0000
  H   H734      1.0  0.00341  0.64879  0.62961  1.0000
  H   H735      1.0  0.01964  0.60080  0.77777  1.0000
  H   H736      1.0  0.00065  0.54190  0.81753  1.0000
  H   H737      1.0  0.03599  0.51011  0.62865  1.0000
  C   C612      1.0  0.12780  0.75198  0.69421  1.0000
  C   C613      1.0  0.00987  0.57036  0.79219  1.0000
  C   C614      1.0  0.00177  0.65118  0.60514  1.0000
  H   H738      1.0  0.00398  0.55233  0.86661  1.0000
  H   H739      1.0  0.01527  0.58646  0.87266  1.0000
  H   H740      1.0  0.18841  0.72153  0.97305  1.0000
  H   H741      1.0  0.15971  0.73719  0.71419  1.0000
  C   C615      1.0  0.18714  0.68515  0.99629  1.0000
  H   H742      1.0  0.17990  0.66963  0.99492  1.0000
  C   C616      1.0  0.19207  0.72565  0.99500  1.0000
  Fe  Fe89      1.0  0.16538  0.82893  0.09985  1.0000
  S   S167      1.0  0.17569  0.83172  0.05138  1.0000
  S   S168      1.0  0.13503  0.82643  0.11692  1.0000
  Fe  Fe90      1.0  0.20617  0.83418  0.12141  1.0000
  S   S169      1.0  0.21916  0.83651  0.07421  1.0000
  S   S170      1.0  0.22051  0.83978  0.16566  1.0000
  Fe  Fe91      1.0  0.20289  0.85553  0.06111  1.0000
  S   S171      1.0  0.21793  0.88623  0.03925  1.0000
  Fe  Fe92      1.0  0.19074  0.81233  0.06826  1.0000
  S   S172      1.0  0.18681  0.78824  0.04007  1.0000
  S   S173      1.0  0.19129  0.85425  0.10856  1.0000
  S   S174      1.0  0.17903  0.80844  0.11647  1.0000
  C   C617      1.0  0.45480  0.89009  0.27589  1.0000
  H   H743      1.0  0.21312  0.76638  0.02646  1.0000
  C   C618      1.0  0.39342  0.98557  0.35220  1.0000
  H   H744      1.0  0.46180  0.89711  0.32032  1.0000
  H   H745      1.0  0.12376  0.79425  0.35877  1.0000
  S   S175      1.0  0.04434  0.77520  0.45533  1.0000
  S   S176      1.0  0.47131  0.94580  0.31362  1.0000
  Fe  Fe93      1.0  0.32521  0.88491  0.23379  1.0000
  S   S177      1.0  0.31366  0.90219  0.26067  1.0000
  S   S178      1.0  0.30846  0.86478  0.20136  1.0000
  Fe  Fe94      1.0  0.36733  0.90438  0.25275  1.0000
  S   S179      1.0  0.35872  0.92330  0.28074  1.0000
  S   S180      1.0  0.39848  0.90752  0.23918  1.0000
  Fe  Fe95      1.0  0.33224  0.89694  0.29655  1.0000
  S   S181      1.0  0.31746  0.88918  0.34383  1.0000
  Fe  Fe96      1.0  0.34099  0.92669  0.24277  1.0000
  S   S182      1.0  0.34029  0.95361  0.21895  1.0000
  S   S183      1.0  0.34188  0.87756  0.27089  1.0000
  S   S184      1.0  0.35153  0.90990  0.21355  1.0000
  S   S185      1.0  0.36327  0.89045  0.46117  1.0000
  C   C619      1.0  0.33071  0.89036  0.37604  1.0000
  C   C620      1.0  0.32147  0.88989  0.40424  1.0000
  C   C621      1.0  0.33130  0.89008  0.43049  1.0000
  C   C622      1.0  0.35037  0.89039  0.42880  1.0000
  C   C623      1.0  0.35960  0.89087  0.40058  1.0000
  C   C624      1.0  0.34993  0.89110  0.37426  1.0000
  H   H746      1.0  0.30658  0.88922  0.40582  1.0000
  H   H747      1.0  0.32398  0.88956  0.45207  1.0000
  H   H748      1.0  0.37431  0.89099  0.39909  1.0000
  H   H749      1.0  0.35715  0.89133  0.35272  1.0000
  H   H750      1.0  0.46809  0.99716  0.24407  1.0000
  C   C625      1.0  0.44654  0.99002  0.17510  1.0000
  C   C626      1.0  0.35810  0.99131  0.22395  1.0000
  C   C627      1.0  0.35010  0.97293  0.23925  1.0000
  C   C628      1.0  0.35077  0.97009  0.27034  1.0000
  C   C629      1.0  0.35975  0.98563  0.28601  1.0000
  H   H751      1.0  0.45097  0.88609  0.23045  1.0000
  H   H752      1.0  0.35760  0.99355  0.19988  1.0000
  H   H753      1.0  0.34435  0.95594  0.28233  1.0000
  H   H754      1.0  0.36019  0.98341  0.31006  1.0000
  C   C630      1.0  0.45127  0.93454  0.29289  1.0000
  C   C631      1.0  0.45365  0.93458  0.26186  1.0000
  C   C632      1.0  0.43737  0.92596  0.24586  1.0000
  C   C633      1.0  0.41847  0.91767  0.26055  1.0000
  C   C634      1.0  0.41602  0.91760  0.29160  1.0000
  C   C635      1.0  0.43242  0.92579  0.30775  1.0000
  H   H755      1.0  0.46807  0.94097  0.25028  1.0000
  H   H756      1.0  0.43941  0.92581  0.22194  1.0000
  H   H757      1.0  0.40155  0.91108  0.30318  1.0000
  H   H758      1.0  0.43046  0.92560  0.33179  1.0000
  C   C636      1.0  0.06688  0.77780  0.47078  1.0000
  H   H759      1.0  0.41032  0.94600  0.42269  1.0000
  H   H760      1.0  0.27879  0.91395  0.05982  1.0000
  H   H761      1.0  0.04835  0.75824  0.24890  1.0000
  C   C637      1.0  0.07309  0.78973  0.49336  1.0000
  C   C638      1.0  0.41602  0.98037  0.15149  1.0000
  H   H762      1.0  0.08056  0.80629  0.41300  1.0000
  C   C639      1.0  0.12881  0.86957  0.06024  1.0000
  H   H763      1.0  0.38760  0.95916  0.46899  1.0000
  H   H764      1.0  0.39921  0.94488  0.25008  1.0000
  H   H765      1.0  0.13962  0.77018  0.10170  1.0000
  C   C640      1.0  0.17103  0.76465  0.05331  1.0000
  C   C641      1.0  0.24556  0.84879  0.17304  1.0000
  C   C642      1.0  0.25076  0.85726  0.19945  1.0000
  C   C643      1.0  0.27012  0.86303  0.20780  1.0000
  C   C644      1.0  0.28445  0.86003  0.19007  1.0000
  C   C645      1.0  0.27935  0.85194  0.16334  1.0000
  C   C646      1.0  0.26008  0.84654  0.15466  1.0000
  H   H766      1.0  0.23961  0.85897  0.21389  1.0000
  H   H767      1.0  0.27370  0.86917  0.22844  1.0000
  H   H768      1.0  0.29030  0.84952  0.14946  1.0000
  H   H769      1.0  0.25629  0.83998  0.13437  1.0000
  C   C647      1.0  0.11365  0.80914  0.10587  1.0000
  C   C648      1.0  0.11419  0.80010  0.08048  1.0000
  C   C649      1.0  0.09684  0.78687  0.07172  1.0000
  C   C650      1.0  0.07888  0.78221  0.08858  1.0000
  C   C651      1.0  0.07836  0.79108  0.11418  1.0000
  C   C652      1.0  0.09567  0.80464  0.12258  1.0000
  H   H770      1.0  0.12794  0.80326  0.06757  1.0000
  H   H771      1.0  0.09737  0.78002  0.05195  1.0000
  H   H772      1.0  0.06460  0.78770  0.12719  1.0000
  H   H773      1.0  0.09513  0.81161  0.14220  1.0000
  H   H774      1.0  0.27371  0.88521  0.44795  1.0000
  C   C653      1.0  0.39833  0.97244  0.23885  1.0000
  C   C654      1.0  0.27527  0.89380  0.46617  1.0000
  H   H775      1.0  0.32469  0.96972  0.01588  1.0000
  H   H776      1.0  0.30543  0.93556  0.48617  1.0000
  H   H777      1.0  0.16245  0.75780  0.00934  1.0000
  H   H778      1.0  0.39604  0.00038  0.34530  1.0000
  H   H779      1.0  0.38008  0.97423  0.44476  1.0000
  H   H780      1.0  0.46031  0.00044  0.17992  1.0000
  H   H781      1.0  0.05933  0.78076  0.39274  1.0000
  H   H782      1.0  0.40546  0.98288  0.13755  1.0000
  H   H783      1.0  0.07474  0.76013  0.44264  1.0000
  C   C655      1.0  0.42328  0.95762  0.18537  1.0000
  C   C656      1.0  0.09964  0.79880  0.38201  1.0000
  H   H784      1.0  0.14765  0.80760  0.39459  1.0000
  H   H785      1.0  0.30143  0.91605  0.44525  1.0000
  H   H786      1.0  0.28850  0.95817  0.02011  1.0000
  H   H787      1.0  0.13837  0.81981  0.43923  1.0000
  C   C657      1.0  0.44799  0.98189  0.31592  1.0000
  H   H788      1.0  0.07971  0.79236  0.31476  1.0000
  H   H789      1.0  0.35672  0.92852  0.41617  1.0000
  C   C658      1.0  0.11537  0.76691  0.13262  1.0000
  N   N44       1.0  0.28380  0.83204  0.28648  1.0000
  C   C659      1.0  0.28779  0.85230  0.28878  1.0000
  C   C660      1.0  0.27751  0.82121  0.31686  1.0000
  C   C661      1.0  0.30254  0.83060  0.27634  1.0000
  C   C662      1.0  0.26817  0.82484  0.26602  1.0000
  C   C663      1.0  0.27142  0.81879  0.23805  1.0000
  C   C664      1.0  0.24906  0.82427  0.27346  1.0000
  C   C665      1.0  0.25637  0.81241  0.21909  1.0000
  C   C666      1.0  0.23415  0.81789  0.25427  1.0000
  C   C667      1.0  0.23780  0.81196  0.22716  1.0000
  H   H790      1.0  0.27478  0.85462  0.29797  1.0000
  H   H791      1.0  0.29960  0.85840  0.30381  1.0000
  H   H792      1.0  0.29244  0.86080  0.26632  1.0000
  H   H793      1.0  0.26484  0.82332  0.32777  1.0000
  H   H794      1.0  0.28936  0.82576  0.33236  1.0000
  H   H795      1.0  0.27334  0.80573  0.31585  1.0000
  H   H796      1.0  0.30060  0.81568  0.27396  1.0000
  H   H797      1.0  0.30890  0.83952  0.25449  1.0000
  H   H798      1.0  0.31386  0.83575  0.29247  1.0000
  H   H799      1.0  0.28559  0.81946  0.22970  1.0000
  H   H800      1.0  0.24561  0.82915  0.29387  1.0000
  H   H801      1.0  0.25931  0.80850  0.19739  1.0000
  H   H802      1.0  0.21980  0.81800  0.25997  1.0000
  H   H803      1.0  0.22641  0.80770  0.21181  1.0000
  H   H804      1.0  0.24102  0.88024  0.13605  1.0000
  H   H805      1.0  0.38879  0.92526  0.41975  1.0000
  N   N45       1.0  0.38343  0.95101  0.42426  1.0000
  S   S186      1.0  0.00187  0.75680  0.11043  1.0000
  N   N46       1.0  0.48872  0.90914  0.20354  1.0000
  C   C668      1.0  0.42302  0.96659  0.26723  1.0000
  H   H806      1.0  0.39356  0.93347  0.45473  1.0000
  C   C669      1.0  0.29086  0.91118  0.46468  1.0000
  N   N47       1.0  0.14529  0.86889  0.04103  1.0000
  H   H807      1.0  0.39385  0.97899  0.30684  1.0000
  C   C670      1.0  0.43443  0.99483  0.15468  1.0000
  C   C671      1.0  0.08340  0.76932  0.36155  1.0000
  H   H808      1.0  0.09702  0.76833  0.35199  1.0000
  H   H809      1.0  0.40146  0.00150  0.23022  1.0000
  C   C672      1.0  0.41068  0.96204  0.16655  1.0000
  C   C673      1.0  0.36230  0.93960  0.43136  1.0000
  C   C674      1.0  0.38941  0.96565  0.44520  1.0000
  C   C675      1.0  0.39456  0.93852  0.43040  1.0000
  C   C676      1.0  0.13302  0.80757  0.39781  1.0000
  H   H810      1.0  0.46346  0.97484  0.26631  1.0000
  H   H811      1.0  0.42896  0.95647  0.27594  1.0000
  C   C677      1.0  0.44108  0.97162  0.18992  1.0000
  C   C678      1.0  0.09081  0.79911  0.33054  1.0000
  H   H812      1.0  0.24759  0.88881  0.08126  1.0000
  H   H813      1.0  0.38538  0.96722  0.22670  1.0000
  C   C679      1.0  0.21810  0.89759  0.00282  1.0000
  C   C680      1.0  0.14965  0.88285  0.01380  1.0000
  H   H814      1.0  0.07157  0.76124  0.34787  1.0000
  H   H815      1.0  0.10495  0.81950  0.44714  1.0000
  C   C681      1.0  0.38682  0.95906  0.39222  1.0000
  H   H816      1.0  0.13219  0.88405  0.06674  1.0000
  H   H817      1.0  0.16687  0.88633  0.06785  1.0000
  H   H818      1.0  0.26514  0.89630  0.16980  1.0000
  H   H819      1.0  0.43576  0.98292  0.32996  1.0000
  C   C682      1.0  0.16211  0.87217  0.05971  1.0000
  H   H820      1.0  0.06483  0.80315  0.36967  1.0000
  S   S187      1.0  0.05754  0.76574  0.07604  1.0000
  H   H821      1.0  0.12578  0.84496  0.02109  1.0000
  C   C683      1.0  0.06504  0.78867  0.37002  1.0000
  C   C684      1.0  0.36868  0.00387  0.27046  1.0000
  H   H822      1.0  0.35347  0.94863  0.42914  1.0000
  H   H823      1.0  0.35920  0.93222  0.45474  1.0000
  N   N48       1.0  0.30129  0.92481  0.15549  1.0000
  C   C685      1.0  0.30639  0.91074  0.17487  1.0000
  C   C686      1.0  0.31985  0.93905  0.14013  1.0000
  C   C687      1.0  0.29266  0.93482  0.17487  1.0000
  C   C688      1.0  0.28691  0.91505  0.13463  1.0000
  C   C689      1.0  0.29019  0.91968  0.10288  1.0000
  C   C690      1.0  0.26873  0.90061  0.14599  1.0000
  C   C691      1.0  0.27609  0.91028  0.08396  1.0000
  C   C692      1.0  0.25478  0.89133  0.12687  1.0000
  C   C693      1.0  0.25847  0.89612  0.09594  1.0000
  H   H824      1.0  0.31802  0.91772  0.18961  1.0000
  H   H825      1.0  0.29382  0.90094  0.19020  1.0000
  H   H826      1.0  0.31166  0.90189  0.16127  1.0000
  H   H827      1.0  0.32737  0.93235  0.12569  1.0000
  H   H828      1.0  0.33037  0.94594  0.15654  1.0000
  H   H829      1.0  0.31735  0.95072  0.12633  1.0000
  H   H830      1.0  0.28811  0.94519  0.16115  1.0000
  H   H831      1.0  0.27958  0.92488  0.18924  1.0000
  H   H832      1.0  0.30325  0.94275  0.19041  1.0000
  H   H833      1.0  0.30350  0.93046  0.09204  1.0000
  H   H834      1.0  0.39172  0.98857  0.39842  1.0000
  C   C694      1.0  0.10420  0.78551  0.49306  1.0000
  C   C695      1.0  0.39083  0.97854  0.38271  1.0000
  H   H835      1.0  0.18324  0.87155  0.45932  1.0000
  H   H836      1.0  0.38116  0.93202  0.37466  1.0000
  H   H837      1.0  0.12562  0.85949  0.08131  1.0000
  H   H838      1.0  0.15123  0.84865  0.01633  1.0000
  C   C696      1.0  0.38516  0.94714  0.36931  1.0000
  H   H839      1.0  0.12368  0.77890  0.14392  1.0000
  H   H840      1.0  0.45062  0.96821  0.20520  1.0000
  C   C697      1.0  0.29597  0.95304  0.00390  1.0000
  C   C698      1.0  0.09557  0.75690  0.14112  1.0000
  C   C699      1.0  0.40742  0.99174  0.24087  1.0000
  C   C700      1.0  0.48655  0.91065  0.28796  1.0000
  H   H841      1.0  0.46149  0.98703  0.32806  1.0000
  H   H842      1.0  0.08849  0.76119  0.15903  1.0000
  C   C701      1.0  0.43239  0.98606  0.27039  1.0000
  H   H843      1.0  0.08016  0.76174  0.38479  1.0000
  H   H844      1.0  0.17719  0.76668  0.09947  1.0000
  C   C702      1.0  0.40608  0.95987  0.25215  1.0000
  S   S188      1.0  0.01299  0.76448  0.38606  1.0000
  H   H845      1.0  0.44491  0.96663  0.31501  1.0000
  H   H846      1.0  0.38679  0.94498  0.32192  1.0000
  C   C703      1.0  0.38809  0.95438  0.33894  1.0000
  H   H847      1.0  0.13735  0.83873  0.05195  1.0000
  C   C704      1.0  0.46726  0.89888  0.29701  1.0000
  C   C705      1.0  0.16957  0.75744  0.08351  1.0000
  C   C706      1.0  0.39216  0.97353  0.33041  1.0000
  C   C707      1.0  0.07926  0.76934  0.45994  1.0000
  H   H848      1.0  0.41898  0.94338  0.19698  1.0000
  H   H849      1.0  0.05430  0.78138  0.35422  1.0000
  C   C708      1.0  0.09508  0.80670  0.40728  1.0000
  C   C709      1.0  0.42406  0.99852  0.25667  1.0000
  C   C710      1.0  0.13968  0.84953  0.03214  1.0000
  H   H850      1.0  0.40502  0.97522  0.44028  1.0000
  C   C711      1.0  0.10908  0.81451  0.42722  1.0000
  N   N49       1.0  0.08490  0.78922  0.36153  1.0000
  H   H851      1.0  0.15834  0.86154  0.08007  1.0000
  H   H852      1.0  0.09250  0.81424  0.32967  1.0000
  H   H853      1.0  0.17483  0.87102  0.04715  1.0000
  H   H854      1.0  0.39660  0.95118  0.16379  1.0000
  C   C712      1.0  0.16832  0.89762  0.00610  1.0000
  H   H855      1.0  0.43962  0.88141  0.28297  1.0000
  H   H856      1.0  0.48072  0.99619  0.27683  1.0000
  C   C713      1.0  0.09788  0.77337  0.47078  1.0000
  H   H857      1.0  0.10487  0.79881  0.32137  1.0000
  C   C714      1.0  0.46633  0.99008  0.26746  1.0000
  H   H858      1.0  0.23381  0.92533  0.01556  1.0000
  C   C715      1.0  0.46158  0.89301  0.24558  1.0000
  C   C716      1.0  0.48123  0.90496  0.23557  1.0000
  H   H859      1.0  0.42719  0.00565  0.09814  1.0000
  H   H860      1.0  0.10758  0.76723  0.46154  1.0000
  C   C717      1.0  0.12790  0.81467  0.42280  1.0000
  C   C718      1.0  0.11918  0.79986  0.37755  1.0000
  C   C719      1.0  0.12431  0.76202  0.10871  1.0000
  H   H861      1.0  0.18044  0.89972  0.01984  1.0000
  H   H862      1.0  0.11710  0.85049  0.47337  1.0000
  N   N50       1.0  0.45065  0.99279  0.28574  1.0000
  C   C720      1.0  0.47447  0.89821  0.18332  1.0000
  H   H863      1.0  0.11498  0.86550  0.04901  1.0000
  H   H864      1.0  0.46121  0.90186  0.18345  1.0000
  H   H865      1.0  0.48084  0.90135  0.15955  1.0000
  H   H866      1.0  0.46996  0.88266  0.18969  1.0000
  C   C721      1.0  0.22740  0.91744  0.99741  1.0000
  H   H867      1.0  0.48102  0.93370  0.19777  1.0000
  H   H868      1.0  0.12059  0.87068  0.99784  1.0000
  C   C722      1.0  0.29306  0.92219  0.48833  1.0000
  C   C723      1.0  0.31630  0.95946  0.00170  1.0000
  C   C724      1.0  0.26178  0.88742  0.49123  1.0000
  H   H869      1.0  0.24966  0.87385  0.49239  1.0000
  H   H870      1.0  0.32701  0.98322  0.49446  1.0000
  C   C725      1.0  0.11258  0.85825  0.48996  1.0000
  H   H871      1.0  0.11354  0.87206  0.47797  1.0000
  C   C726      1.0  0.17539  0.87712  0.47423  1.0000
  H   H872      1.0  0.14918  0.85264  0.47683  1.0000
  C   C727      1.0  0.15589  0.86638  0.48451  1.0000
  H   H873      1.0  0.20017  0.90304  0.47608  1.0000
  C   C728      1.0  0.18495  0.89484  0.48357  1.0000
  H   H874      1.0  0.25984  0.89353  0.94410  1.0000
  S   S189      1.0  0.24116  0.98168  0.85965  1.0000
  H   H875      1.0  0.20929  0.95261  0.68585  1.0000
  Fe  Fe97      1.0  0.24493  0.95729  0.88834  1.0000
  S   S190      1.0  0.22113  0.92906  0.90863  1.0000
  S   S191      1.0  0.26684  0.95505  0.85432  1.0000
  Fe  Fe98      1.0  0.14489  0.80534  0.54263  1.0000
  S   S192      1.0  0.13362  0.81128  0.58636  1.0000
  H   H876      1.0  0.10849  0.83361  0.54044  1.0000
  Fe  Fe99      1.0  0.18768  0.82168  0.55855  1.0000
  S   S193      1.0  0.17954  0.82874  0.60310  1.0000
  S   S194      1.0  0.21832  0.82683  0.53895  1.0000
  Fe  Fe100     1.0  0.15484  0.80006  0.60788  1.0000
  Fe  Fe101     1.0  0.15931  0.83931  0.57830  1.0000
  S   S195      1.0  0.15736  0.86703  0.58834  1.0000
  S   S196      1.0  0.16451  0.79215  0.56487  1.0000
  S   S197      1.0  0.16902  0.83427  0.53306  1.0000
  H   H877      1.0  0.24939  0.95340  0.67954  1.0000
  S   S198      1.0  0.35035  0.88481  0.55235  1.0000
  Fe  Fe102     1.0  0.35163  0.93458  0.52477  1.0000
  S   S199      1.0  0.34646  0.92338  0.57379  1.0000
  C   C729      1.0  0.26039  0.99173  0.69141  1.0000
  Fe  Fe103     1.0  0.37072  0.91299  0.56497  1.0000
  S   S200      1.0  0.39582  0.91392  0.59404  1.0000
  Fe  Fe104     1.0  0.32641  0.89612  0.55834  1.0000
  S   S201      1.0  0.29698  0.88153  0.58594  1.0000
  S   S202      1.0  0.37728  0.92640  0.51694  1.0000
  H   H878      1.0  0.35705  0.98114  0.90121  1.0000
  S   S203      1.0  0.26777  0.97615  0.91448  1.0000
  H   H879      1.0  0.23556  0.94253  0.96501  1.0000
  Fe  Fe105     1.0  0.24364  0.96887  0.56697  1.0000
  S   S204      1.0  0.25690  0.97054  0.61108  1.0000
  S   S205      1.0  0.23249  0.94125  0.54643  1.0000
  H   H880      1.0  0.19671  0.79410  0.72290  1.0000
  H   H881      1.0  0.31418  0.93844  0.53313  1.0000
  Fe  Fe106     1.0  0.28269  0.99440  0.58681  1.0000
  H   H882      1.0  0.23160  0.88261  0.61394  1.0000
  S   S206      1.0  0.22984  0.98998  0.57412  1.0000
  S   S207      1.0  0.27065  0.99104  0.54206  1.0000
  C   C730      1.0  0.26402  0.89815  0.51525  1.0000
  H   H883      1.0  0.32395  0.93763  0.94369  1.0000
  Fe  Fe107     1.0  0.24508  0.99321  0.61700  1.0000
  N   N51       1.0  0.12485  0.86120  0.51571  1.0000
  C   C731      1.0  0.23163  0.98887  0.72234  1.0000
  H   H884      1.0  0.37641  0.97297  0.77822  1.0000
  Fe  Fe108     1.0  0.46966  0.97729  0.70870  1.0000
  S   S208      1.0  0.44185  0.97210  0.68405  1.0000
  H   H885      1.0  0.24707  0.93569  0.71101  1.0000
  S   S209      1.0  0.46571  0.97471  0.75934  1.0000
  S   S210      1.0  0.27157  0.98170  0.77745  1.0000
  C   C732      1.0  0.20959  0.88759  0.97931  1.0000
  Fe  Fe109     1.0  0.49233  0.96707  0.75889  1.0000
  Fe  Fe110     1.0  0.48694  0.00479  0.75441  1.0000
  C   C733      1.0  0.23927  0.94356  0.69827  1.0000
  H   H886      1.0  0.06356  0.79622  0.50206  1.0000
  C   C734      1.0  0.40866  0.93056  0.61844  1.0000
  C   C735      1.0  0.42489  0.92863  0.63170  1.0000
  C   C736      1.0  0.43537  0.94127  0.65149  1.0000
  C   C737      1.0  0.42966  0.95600  0.65849  1.0000
  C   C738      1.0  0.41343  0.95794  0.64526  1.0000
  C   C739      1.0  0.40304  0.94538  0.62529  1.0000
  H   H887      1.0  0.42936  0.91722  0.62663  1.0000
  H   H888      1.0  0.44776  0.93952  0.66148  1.0000
  H   H889      1.0  0.40885  0.96925  0.65044  1.0000
  H   H890      1.0  0.39061  0.94707  0.61538  1.0000
  C   C740      1.0  0.34270  0.97334  0.52709  1.0000
  C   C741      1.0  0.34656  0.97198  0.55723  1.0000
  C   C742      1.0  0.33769  0.97943  0.57808  1.0000
  C   C743      1.0  0.32440  0.98759  0.56904  1.0000
  C   C744      1.0  0.32061  0.98898  0.53884  1.0000
  C   C745      1.0  0.33009  0.98226  0.51776  1.0000
  H   H891      1.0  0.35643  0.96524  0.56450  1.0000
  H   H892      1.0  0.34079  0.97845  0.60138  1.0000
  H   H893      1.0  0.21690  0.98862  0.72428  1.0000
  H   H894      1.0  0.20529  0.78368  0.77241  1.0000
  C   C746      1.0  0.17874  0.88747  0.57835  1.0000
  C   C747      1.0  0.18017  0.90480  0.58806  1.0000
  C   C748      1.0  0.19695  0.92135  0.57955  1.0000
  C   C749      1.0  0.21213  0.92067  0.56065  1.0000
  C   C750      1.0  0.21068  0.90331  0.55111  1.0000
  C   C751      1.0  0.19423  0.88671  0.56033  1.0000
  H   H895      1.0  0.16825  0.90546  0.60209  1.0000
  H   H896      1.0  0.19787  0.93471  0.58678  1.0000
  H   H897      1.0  0.22216  0.90270  0.53605  1.0000
  H   H898      1.0  0.19327  0.87347  0.55265  1.0000
  C   C752      1.0  0.23986  0.84303  0.55147  1.0000
  C   C753      1.0  0.23963  0.85075  0.57835  1.0000
  C   C754      1.0  0.25726  0.86265  0.58845  1.0000
  C   C755      1.0  0.27518  0.86733  0.57145  1.0000
  C   C756      1.0  0.27535  0.86001  0.54422  1.0000
  C   C757      1.0  0.25778  0.84770  0.53450  1.0000
  H   H899      1.0  0.22597  0.84720  0.59170  1.0000
  H   H900      1.0  0.25710  0.86807  0.60974  1.0000
  H   H901      1.0  0.28907  0.86347  0.53101  1.0000
  H   H902      1.0  0.20586  0.92845  0.73033  1.0000
  H   H903      1.0  0.25646  0.92808  0.66595  1.0000
  N   N52       1.0  0.22104  0.93056  0.68724  1.0000
  C   C758      1.0  0.24579  0.90542  0.63982  1.0000
  H   H904      1.0  0.26954  0.93626  0.98677  1.0000
  C   C759      1.0  0.25975  0.98640  0.74602  1.0000
  S   S211      1.0  0.12866  0.79177  0.50324  1.0000
  H   H905      1.0  0.24289  0.79709  0.56391  1.0000
  H   H906      1.0  0.19350  0.90322  0.65997  1.0000
  C   C760      1.0  0.45907  0.00527  0.82710  1.0000
  H   H907      1.0  0.49052  0.92656  0.74419  1.0000
  C   C761      1.0  0.34950  0.98657  0.91675  1.0000
  C   C762      1.0  0.21157  0.94243  0.67143  1.0000
  C   C763      1.0  0.22031  0.91724  0.94503  1.0000
  C   C764      1.0  0.21062  0.89741  0.95059  1.0000
  H   H908      1.0  0.38889  0.98093  0.72998  1.0000
  H   H909      1.0  0.39900  0.95988  0.76405  1.0000
  C   C765      1.0  0.32986  0.98379  0.91405  1.0000
  N   N53       1.0  0.28289  0.92128  0.94155  1.0000
  C   C766      1.0  0.15565  0.89117  0.51393  1.0000
  S   S212      1.0  0.32966  0.90845  0.51005  1.0000
  H   H910      1.0  0.30506  0.98868  0.93244  1.0000
  H   H911      1.0  0.26033  0.90579  0.63399  1.0000
  H   H912      1.0  0.32241  0.00574  0.97300  1.0000
  Fe  Fe111     1.0  0.28942  0.97558  0.87853  1.0000
  C   C767      1.0  0.20830  0.90418  0.65504  1.0000
  H   H913      1.0  0.23620  0.95271  0.71395  1.0000
  C   C768      1.0  0.20271  0.79810  0.61999  1.0000
  H   H914      1.0  0.12775  0.89275  0.95177  1.0000
  H   H915      1.0  0.26262  0.92157  0.90819  1.0000
  C   C769      1.0  0.17206  0.91011  0.97963  1.0000
  C   C770      1.0  0.26760  0.81609  0.58155  1.0000
  H   H916      1.0  0.45945  0.99327  0.81663  1.0000
  H   H917      1.0  0.37464  0.99860  0.94158  1.0000
  H   H918      1.0  0.11607  0.88362  0.52831  1.0000
  H   H919      1.0  0.42158  0.96684  0.74178  1.0000
  H   H920      1.0  0.28242  0.94382  0.90968  1.0000
  C   C771      1.0  0.43548  0.00312  0.74727  1.0000
  Fe  Fe112     1.0  0.26514  0.98070  0.82762  1.0000
  C   C772      1.0  0.20826  0.77778  0.58666  1.0000
  H   H921      1.0  0.19318  0.91040  0.70807  1.0000
  C   C773      1.0  0.21097  0.89159  0.63643  1.0000
  H   H922      1.0  0.17393  0.77065  0.69420  1.0000
  C   C774      1.0  0.13781  0.75899  0.66559  1.0000
  C   C775      1.0  0.24083  0.98645  0.74847  1.0000
  H   H923      1.0  0.44466  0.00202  0.76577  1.0000
  C   C776      1.0  0.44892  0.00235  0.85545  1.0000
  H   H924      1.0  0.26986  0.83059  0.65056  1.0000
  C   C777      1.0  0.26948  0.98913  0.71742  1.0000
  H   H925      1.0  0.31040  0.99520  0.53165  1.0000
  H   H926      1.0  0.23586  0.80819  0.65594  1.0000
  H   H927      1.0  0.44159  0.98808  0.86673  1.0000
  H   H928      1.0  0.25810  0.84173  0.51374  1.0000
  C   C778      1.0  0.32997  0.00036  0.95738  1.0000
  S   S213      1.0  0.31303  0.99630  0.59567  1.0000
  C   C779      1.0  0.22966  0.89227  0.62868  1.0000
  S   S214      1.0  0.28951  0.00118  0.84991  1.0000
  H   H929      1.0  0.27594  0.89655  0.97393  1.0000
  C   C780      1.0  0.32015  0.99075  0.93432  1.0000
  H   H930      1.0  0.20967  0.78844  0.56698  1.0000
  H   H931      1.0  0.30324  0.90797  0.93201  1.0000
  H   H932      1.0  0.27656  0.81903  0.56054  1.0000
  C   C781      1.0  0.20800  0.91920  0.71395  1.0000
  H   H933      1.0  0.21406  0.77754  0.66114  1.0000
  H   H934      1.0  0.21665  0.76898  0.58084  1.0000
  H   H935      1.0  0.26805  0.99372  0.66955  1.0000
  H   H936      1.0  0.42164  0.96894  0.78126  1.0000
  H   H937      1.0  0.19702  0.93392  0.66431  1.0000
  S   S215      1.0  0.31759  0.97138  0.88555  1.0000
  C   C782      1.0  0.24331  0.91812  0.65847  1.0000
  C   C783      1.0  0.19550  0.77330  0.75973  1.0000
  H   H938      1.0  0.18647  0.92111  0.97395  1.0000
  C   C784      1.0  0.22437  0.91776  0.66687  1.0000
  H   H939      1.0  0.30520  0.92803  0.90506  1.0000
  C   C785      1.0  0.26852  0.90378  0.95900  1.0000
  C   C786      1.0  0.29483  0.91550  0.92010  1.0000
  H   H940      1.0  0.20595  0.81015  0.60195  1.0000
  H   H941      1.0  0.22068  0.76366  0.63596  1.0000
  H   H942      1.0  0.29027  0.83619  0.60313  1.0000
  C   C787      1.0  0.13902  0.89413  0.96710  1.0000
  C   C788      1.0  0.29462  0.93417  0.96221  1.0000
  H   H943      1.0  0.18678  0.78927  0.62109  1.0000
  H   H944      1.0  0.21426  0.90953  0.72581  1.0000
  C   C789      1.0  0.13508  0.88158  0.99355  1.0000
  H   H945      1.0  0.19844  0.88130  0.62778  1.0000
  H   H946      1.0  0.26770  0.94412  0.51728  1.0000
  H   H947      1.0  0.22074  0.95104  0.65095  1.0000
  H   H948      1.0  0.28412  0.98914  0.71536  1.0000
  S   S216      1.0  0.14849  0.78389  0.65503  1.0000
  C   C790      1.0  0.41417  0.97064  0.76078  1.0000
  H   H949      1.0  0.20394  0.88959  0.93252  1.0000
  H   H950      1.0  0.30481  0.94071  0.56899  1.0000
  C   C791      1.0  0.26379  0.82267  0.63222  1.0000
  C   C792      1.0  0.24434  0.80986  0.63497  1.0000
  N   N54       1.0  0.28263  0.92783  0.53933  1.0000
  C   C793      1.0  0.28156  0.94626  0.52797  1.0000
  C   C794      1.0  0.26785  0.91917  0.56532  1.0000
  H   H951      1.0  0.30337  0.91793  0.55982  1.0000
  C   C795      1.0  0.27986  0.91590  0.51458  1.0000
  S   S217      1.0  0.35165  0.96201  0.50160  1.0000
  C   C796      1.0  0.19077  0.77920  0.73180  1.0000
  C   C797      1.0  0.14544  0.87299  0.50492  1.0000
  H   H952      1.0  0.26252  0.93548  0.93760  1.0000
  H   H953      1.0  0.10100  0.86049  0.54605  1.0000
  H   H954      1.0  0.18273  0.91551  0.51099  1.0000
  H   H955      1.0  0.28221  0.95523  0.54628  1.0000
  C   C798      1.0  0.31540  0.94102  0.96058  1.0000
  H   H956      1.0  0.25285  0.91668  0.55880  1.0000
  H   H957      1.0  0.27029  0.92865  0.58328  1.0000
  H   H958      1.0  0.26840  0.90551  0.57547  1.0000
  H   H959      1.0  0.13343  0.84425  0.54859  1.0000
  S   S218      1.0  0.22897  0.99254  0.66129  1.0000
  H   H960      1.0  0.12475  0.87192  0.55830  1.0000
  H   H961      1.0  0.25328  0.89208  0.53422  1.0000
  C   C799      1.0  0.27538  0.82579  0.60555  1.0000
  H   H962      1.0  0.12749  0.83389  0.51446  1.0000
  H   H963      1.0  0.36085  0.97930  0.82277  1.0000
  H   H964      1.0  0.28555  0.90580  0.90503  1.0000
  H   H965      1.0  0.29374  0.95471  0.51092  1.0000
  C   C800      1.0  0.23583  0.79990  0.61081  1.0000
  N   N55       1.0  0.21493  0.78707  0.61391  1.0000
  H   H966      1.0  0.25761  0.90668  0.97331  1.0000
  C   C801      1.0  0.22851  0.92722  0.96873  1.0000
  H   H967      1.0  0.16069  0.91789  0.93939  1.0000
  C   C802      1.0  0.38688  0.00147  0.83318  1.0000
  C   C803      1.0  0.11635  0.86977  0.53799  1.0000
  H   H968      1.0  0.19251  0.76826  0.58970  1.0000
  C   C804      1.0  0.24811  0.80342  0.58389  1.0000
  H   H969      1.0  0.14924  0.89726  0.53000  1.0000
  C   C805      1.0  0.30205  0.93140  0.55076  1.0000
  H   H970      1.0  0.20227  0.87232  0.98318  1.0000
  C   C806      1.0  0.27213  0.93087  0.92355  1.0000
  C   C807      1.0  0.37620  0.98756  0.81602  1.0000
  C   C808      1.0  0.24134  0.99135  0.69375  1.0000
  H   H971      1.0  0.34183  0.95895  0.97795  1.0000
  H   H972      1.0  0.48514  0.00529  0.88245  1.0000
  C   C809      1.0  0.35945  0.99650  0.93950  1.0000
  H   H973      1.0  0.23322  0.98432  0.77040  1.0000
  C   C810      1.0  0.15751  0.90831  0.96010  1.0000
  C   C811      1.0  0.34965  0.00332  0.95987  1.0000
  H   H974      1.0  0.48520  0.98207  0.84679  1.0000
  H   H975      1.0  0.19568  0.76173  0.64159  1.0000
  C   C812      1.0  0.17802  0.76598  0.71559  1.0000
  C   C813      1.0  0.32596  0.95337  0.98024  1.0000
  C   C814      1.0  0.28525  0.94054  0.98457  1.0000
  C   C815      1.0  0.40529  0.99473  0.78115  1.0000
  C   C816      1.0  0.12351  0.84244  0.53026  1.0000
  C   C817      1.0  0.09151  0.79338  0.50472  1.0000
  H   H976      1.0  0.37992  0.00392  0.85322  1.0000
  Fe  Fe113     1.0  0.35503  0.89944  0.50483  1.0000
  C   C818      1.0  0.21122  0.77187  0.63926  1.0000
  H   H977      1.0  0.09690  0.84970  0.49731  1.0000
  H   H978      1.0  0.41140  0.98894  0.70739  1.0000
  H   H979      1.0  0.09598  0.80248  0.52212  1.0000
  H   H980      1.0  0.12543  0.76173  0.70831  1.0000
  C   C819      1.0  0.40411  0.99158  0.72779  1.0000
  H   H981      1.0  0.20525  0.80413  0.64161  1.0000
  Fe  Fe114     1.0  0.26609  0.00055  0.88367  1.0000
  N   N56       1.0  0.41471  0.99025  0.75475  1.0000
  C   C820      1.0  0.38523  0.98414  0.79047  1.0000
  H   H982      1.0  0.44205  0.99958  0.72707  1.0000
  H   H983      1.0  0.40346  0.00589  0.72323  1.0000
  C   C821      1.0  0.17505  0.90190  0.50317  1.0000
  S   S219      1.0  0.51212  0.01819  0.21674  1.0000
  H   H984      1.0  0.94224  0.22805  0.42444  1.0000
  Fe  Fe115     1.0  0.86056  0.17020  0.38382  1.0000
  S   S220      1.0  0.85228  0.18228  0.42312  1.0000
  S   S221      1.0  0.87419  0.18778  0.33885  1.0000
  Fe  Fe116     1.0  0.84683  0.13030  0.41847  1.0000
  S   S222      1.0  0.83831  0.14006  0.46057  1.0000
  S   S223      1.0  0.84184  0.09896  0.42015  1.0000
  Fe  Fe117     1.0  0.82499  0.15575  0.42942  1.0000
  S   S224      1.0  0.79517  0.15653  0.44131  1.0000
  Fe  Fe118     1.0  0.86657  0.16554  0.45064  1.0000
  H   H985      1.0  0.82964  0.19949  0.38204  1.0000
  S   S225      1.0  0.83211  0.14482  0.38781  1.0000
  S   S226      1.0  0.87633  0.15465  0.41077  1.0000
  Fe  Fe119     1.0  0.68977  0.07500  0.44563  1.0000
  C   C822      1.0  0.88705  0.25120  0.31170  1.0000
  S   S227      1.0  0.71907  0.08702  0.41795  1.0000
  Fe  Fe120     1.0  0.64549  0.05854  0.43851  1.0000
  H   H986      1.0  0.70460  0.02397  0.39424  1.0000
  S   S228      1.0  0.62340  0.05913  0.40449  1.0000
  C   C823      1.0  0.92859  0.22874  0.43469  1.0000
  H   H987      1.0  0.80179  0.08732  0.45298  1.0000
  H   H988      1.0  0.78818  0.10659  0.03357  1.0000
  S   S229      1.0  0.66602  0.08650  0.45152  1.0000
  S   S230      1.0  0.66961  0.04809  0.42988  1.0000
  H   H989      1.0  0.67401  0.08053  0.35365  1.0000
  N   N57       1.0  0.77611  0.08318  0.48222  1.0000
  S   S231      1.0  0.76939  0.03855  0.36656  1.0000
  H   H990      1.0  0.77383  0.08067  0.07352  1.0000
  H   H991      1.0  0.84129  0.09641  0.02917  1.0000
  H   H992      1.0  0.88415  0.22473  0.41198  1.0000
  C   C824      1.0  0.69406  0.06596  0.35460  1.0000
  H   H993      1.0  0.82795  0.07034  0.06989  1.0000
  H   H994      1.0  0.76094  0.05029  0.09640  1.0000
  C   C825      1.0  0.89547  0.22600  0.42807  1.0000
  C   C826      1.0  0.82492  0.24196  0.31291  1.0000
  H   H995      1.0  0.51535  0.03783  0.26995  1.0000
  C   C827      1.0  0.50547  0.04140  0.25569  1.0000
  H   H996      1.0  0.92370  0.21815  0.45519  1.0000
  C   C828      1.0  0.77390  0.13754  0.43417  1.0000
  C   C829      1.0  0.77481  0.12504  0.41405  1.0000
  C   C830      1.0  0.75778  0.10984  0.40903  1.0000
  C   C831      1.0  0.73972  0.10686  0.42427  1.0000
  C   C832      1.0  0.73871  0.11950  0.44414  1.0000
  C   C833      1.0  0.75575  0.13489  0.44886  1.0000
  H   H997      1.0  0.78864  0.12697  0.40243  1.0000
  H   H998      1.0  0.75871  0.10013  0.39364  1.0000
  C   C834      1.0  0.50146  0.03371  0.22863  1.0000
  S   S232      1.0  0.66464  0.00843  0.49643  1.0000
  C   C835      1.0  0.78967  0.05488  0.38186  1.0000
  C   C836      1.0  0.80260  0.04920  0.39839  1.0000
  C   C837      1.0  0.81865  0.06287  0.40968  1.0000
  C   C838      1.0  0.82190  0.08229  0.40461  1.0000
  C   C839      1.0  0.80884  0.08790  0.38831  1.0000
  C   C840      1.0  0.79283  0.07427  0.37703  1.0000
  H   H999      1.0  0.80036  0.03433  0.40222  1.0000
  H   H1000     1.0  0.82865  0.05838  0.42233  1.0000
  H   H1001     1.0  0.81108  0.10275  0.38430  1.0000
  H   H1002     1.0  0.78293  0.07883  0.36429  1.0000
  C   C841      1.0  0.75558  0.03588  0.45090  1.0000
  C   C842      1.0  0.60734  0.02206  0.39008  1.0000
  H   H1003     1.0  0.92158  0.22031  0.35309  1.0000
  C   C843      1.0  0.60768  0.04055  0.38569  1.0000
  C   C844      1.0  0.59534  0.04462  0.36538  1.0000
  C   C845      1.0  0.58259  0.03038  0.34996  1.0000
  C   C846      1.0  0.88872  0.22125  0.30091  1.0000
  C   C847      1.0  0.92419  0.23465  0.35738  1.0000
  H   H1004     1.0  0.59554  0.05889  0.36170  1.0000
  H   H1005     1.0  0.57310  0.03375  0.33464  1.0000
  H   H1006     1.0  0.89670  0.20139  0.39020  1.0000
  H   H1007     1.0  0.73368  0.03423  0.33543  1.0000
  C   C848      1.0  0.84239  0.22581  0.28785  1.0000
  H   H1008     1.0  0.90015  0.24739  0.27047  1.0000
  H   H1009     1.0  0.78472  0.02684  0.10721  1.0000
  C   C849      1.0  0.77171  0.05402  0.11368  1.0000
  H   H1010     1.0  0.86573  0.21602  0.37006  1.0000
  H   H1011     1.0  0.78408  0.05576  0.45561  1.0000
  H   H1012     1.0  0.74677  0.06317  0.35178  1.0000
  H   H1013     1.0  0.72484  0.11742  0.45585  1.0000
  H   H1014     1.0  0.79308  0.03367  0.01673  1.0000
  C   C850      1.0  0.76189  0.06554  0.47288  1.0000
  C   C851      1.0  0.79684  0.09877  0.04225  1.0000
  C   C852      1.0  0.82256  0.18734  0.36924  1.0000
  H   H1015     1.0  0.77138  0.06681  0.12315  1.0000
  C   C853      1.0  0.92071  0.17791  0.48343  1.0000
  H   H1016     1.0  0.79946  0.10867  0.46054  1.0000
  C   C854      1.0  0.87336  0.22280  0.34853  1.0000
  C   C855      1.0  0.87905  0.21224  0.32909  1.0000
  C   C856      1.0  0.79066  0.03922  0.08945  1.0000
  H   H1017     1.0  0.80519  0.03978  0.08084  1.0000
  H   H1018     1.0  0.83436  0.18527  0.35562  1.0000
  H   H1019     1.0  0.89312  0.21318  0.28567  1.0000
  H   H1020     1.0  0.82251  0.25490  0.31544  1.0000
  N   N58       1.0  0.91330  0.22495  0.41318  1.0000
  C   C857      1.0  0.76692  0.09611  0.49230  1.0000
  C   C858      1.0  0.81437  0.22527  0.33195  1.0000
  C   C859      1.0  0.66082  0.03315  0.35318  1.0000
  H   H1021     1.0  0.71266  0.03976  0.47143  1.0000
  C   C860      1.0  0.79969  0.07302  0.07667  1.0000
  S   S233      1.0  0.88445  0.18159  0.48673  1.0000
  H   H1022     1.0  0.94894  0.17546  0.48206  1.0000
  H   H1023     1.0  0.80637  0.07395  0.13470  1.0000
  C   C861      1.0  0.80453  0.06027  0.12615  1.0000
  H   H1024     1.0  0.50064  0.06056  0.28440  1.0000
  S   S234      1.0  0.75214  0.02980  0.02753  1.0000
  H   H1025     1.0  0.70612  0.07907  0.35632  1.0000
  C   C862      1.0  0.67919  0.03191  0.35470  1.0000
  H   H1026     1.0  0.76115  0.02657  0.44016  1.0000
  H   H1027     1.0  0.73470  0.06937  0.48613  1.0000
  H   H1028     1.0  0.79841  0.04874  0.14533  1.0000
  C   C863      1.0  0.82679  0.09308  0.03989  1.0000
  H   H1029     1.0  0.78053  0.19429  0.35860  1.0000
  C   C864      1.0  0.81580  0.10344  0.02960  1.0000
  N   N59       1.0  0.79167  0.05699  0.10105  1.0000
  C   C865      1.0  0.83217  0.20914  0.30699  1.0000
  H   H1030     1.0  0.81931  0.06062  0.11951  1.0000
  N   N60       1.0  0.80789  0.19073  0.35058  1.0000
  H   H1031     1.0  0.71583  0.03854  0.31305  1.0000
  C   C866      1.0  0.71851  0.03405  0.33620  1.0000
  H   H1032     1.0  0.61752  0.01563  0.26911  1.0000
  H   H1033     1.0  0.75491  0.14459  0.46433  1.0000
  H   H1034     1.0  0.76626  0.04206  0.13230  1.0000
  H   H1035     1.0  0.73289  0.07449  0.36877  1.0000
  H   H1036     1.0  0.71432  0.04737  0.40524  1.0000
  C   C867      1.0  0.79140  0.04615  0.00578  1.0000
  H   H1037     1.0  0.90244  0.19470  0.42679  1.0000
  H   H1038     1.0  0.70886  0.01892  0.34255  1.0000
  H   H1039     1.0  0.67970  0.01792  0.35641  1.0000
  H   H1040     1.0  0.73057  0.03675  0.39152  1.0000
  N   N61       1.0  0.71566  0.04660  0.35760  1.0000
  C   C868      1.0  0.89275  0.24064  0.29224  1.0000
  C   C869      1.0  0.73252  0.06505  0.35137  1.0000
  H   H1041     1.0  0.88885  0.21446  0.44703  1.0000
  H   H1042     1.0  0.83624  0.19711  0.30463  1.0000
  H   H1043     1.0  0.64479  0.05162  0.35174  1.0000
  H   H1044     1.0  0.78378  0.09431  0.43555  1.0000
  H   H1045     1.0  0.75866  0.09997  0.47445  1.0000
  C   C870      1.0  0.92048  0.23929  0.38630  1.0000
  C   C871      1.0  0.81775  0.20830  0.32958  1.0000
  H   H1046     1.0  0.92117  0.20281  0.39693  1.0000
  C   C872      1.0  0.77316  0.04776  0.00777  1.0000
  C   C873      1.0  0.81893  0.07812  0.06308  1.0000
  C   C874      1.0  0.71631  0.03827  0.38851  1.0000
  C   C875      1.0  0.67561  0.06702  0.35313  1.0000
  C   C876      1.0  0.87734  0.24216  0.33986  1.0000
  H   H1047     1.0  0.80395  0.22615  0.34866  1.0000
  H   H1048     1.0  0.64780  0.02043  0.35350  1.0000
  C   C877      1.0  0.93083  0.24858  0.33251  1.0000
  C   C878      1.0  0.65906  0.05069  0.35226  1.0000
  H   H1049     1.0  0.91547  0.16902  0.46590  1.0000
  C   C879      1.0  0.49720  0.05433  0.26374  1.0000
  H   H1050     1.0  0.78100  0.03617  0.07073  1.0000
  H   H1051     1.0  0.73222  0.07253  0.32900  1.0000
  C   C880      1.0  0.79202  0.19149  0.37122  1.0000
  C   C881      1.0  0.79914  0.17423  0.33376  1.0000
  C   C882      1.0  0.69644  0.04832  0.35502  1.0000
  H   H1052     1.0  0.78466  0.17785  0.38620  1.0000
  H   H1053     1.0  0.78904  0.17681  0.31775  1.0000
  H   H1054     1.0  0.79071  0.16103  0.34913  1.0000
  H   H1055     1.0  0.81036  0.17090  0.32084  1.0000
  H   H1056     1.0  0.81576  0.17445  0.38576  1.0000
  H   H1057     1.0  0.79778  0.20245  0.38665  1.0000
  Fe  Fe121     1.0  0.66401  0.03650  0.47850  1.0000
  H   H1058     1.0  0.78823  0.00996  0.22147  1.0000
  C   C883      1.0  0.78876  0.08375  0.06534  1.0000
  C   C884      1.0  0.90822  0.20517  0.40630  1.0000
  C   C885      1.0  0.93970  0.18161  0.49265  1.0000
  H   H1059     1.0  0.61678  0.01871  0.40552  1.0000
  S   S235      1.0  0.73676  0.00839  0.10854  1.0000
  H   H1060     1.0  0.72541  0.01804  0.44881  1.0000
  H   H1061     1.0  0.82179  0.11472  0.01107  1.0000
  H   H1062     1.0  0.89843  0.23941  0.43797  1.0000
  S   S236      1.0  0.63831  0.04463  0.48637  1.0000
  H   H1063     1.0  0.93238  0.24292  0.44242  1.0000
  H   H1064     1.0  0.85363  0.22623  0.27120  1.0000
  C   C886      1.0  0.83894  0.24225  0.29100  1.0000
  C   C887      1.0  0.72834  0.04339  0.46836  1.0000
  C   C888      1.0  0.58200  0.01183  0.35476  1.0000
  C   C889      1.0  0.79084  0.09379  0.45681  1.0000
  C   C890      1.0  0.74127  0.06040  0.47687  1.0000
  C   C891      1.0  0.76862  0.05273  0.45962  1.0000
  C   C892      1.0  0.73548  0.03113  0.45554  1.0000
  H   H1065     1.0  0.87278  0.25020  0.35495  1.0000
  H   H1066     1.0  0.93304  0.24466  0.31051  1.0000
  H   H1067     1.0  0.49400  0.14756  0.27278  1.0000
  H   H1068     1.0  0.84752  0.25535  0.27689  1.0000
  C   C893      1.0  0.59457  0.00781  0.37472  1.0000
  S   S237      1.0  0.68623  0.06220  0.49362  1.0000
  Fe  Fe122     1.0  0.82489  0.16053  0.91996  1.0000
  S   S238      1.0  0.83138  0.16554  0.87014  1.0000
  S   S239      1.0  0.82121  0.18260  0.94693  1.0000
  Fe  Fe123     1.0  0.82726  0.12150  0.92498  1.0000
  S   S240      1.0  0.83516  0.12432  0.87530  1.0000
  S   S241      1.0  0.82619  0.09462  0.95338  1.0000
  Fe  Fe124     1.0  0.85502  0.15436  0.87935  1.0000
  S   S242      1.0  0.88369  0.17270  0.85228  1.0000
  Fe  Fe125     1.0  0.81090  0.13518  0.87026  1.0000
  S   S243      1.0  0.79270  0.12528  0.83086  1.0000
  S   S244      1.0  0.84940  0.15071  0.92943  1.0000
  S   S245      1.0  0.80207  0.13102  0.91986  1.0000
  C   C894      1.0  0.96934  0.17186  0.78506  1.0000
  C   C895      1.0  0.59807  0.01268  0.77853  1.0000
  H   H1069     1.0  0.93577  0.14623  0.81516  1.0000
  Fe  Fe126     1.0  0.98510  0.21602  0.56227  1.0000
  S   S246      1.0  0.96922  0.19057  0.89359  1.0000
  C   C896      1.0  0.54822  0.01891  0.85439  1.0000
  H   H1070     1.0  0.96975  0.25328  0.68482  1.0000
  C   C897      1.0  0.68154  0.01533  0.65917  1.0000
  Fe  Fe127     1.0  0.66797  0.03569  0.75364  1.0000
  S   S247      1.0  0.65793  0.05284  0.78293  1.0000
  H   H1071     1.0  0.75682  0.08967  0.51291  1.0000
  Fe  Fe128     1.0  0.68360  0.06799  0.70318  1.0000
  S   S248      1.0  0.67497  0.08797  0.72890  1.0000
  S   S249      1.0  0.69899  0.07398  0.65649  1.0000
  Fe  Fe129     1.0  0.68703  0.07645  0.76846  1.0000
  S   S250      1.0  0.70217  0.09218  0.80701  1.0000
  Fe  Fe130     1.0  0.64677  0.06264  0.74138  1.0000
  S   S251      1.0  0.61641  0.06378  0.74472  1.0000
  S   S252      1.0  0.69774  0.05837  0.74176  1.0000
  S   S253      1.0  0.65470  0.04369  0.71302  1.0000
  S   S254      1.0  0.65276  0.08060  0.54243  1.0000
  C   C898      1.0  0.68654  0.07713  0.62498  1.0000
  C   C899      1.0  0.69484  0.07745  0.59618  1.0000
  C   C900      1.0  0.68477  0.07879  0.57069  1.0000
  C   C901      1.0  0.66643  0.08011  0.57375  1.0000
  C   C902      1.0  0.65849  0.08049  0.60250  1.0000
  C   C903      1.0  0.66834  0.07872  0.62809  1.0000
  H   H1072     1.0  0.70905  0.07648  0.59363  1.0000
  H   H1073     1.0  0.69134  0.07904  0.54870  1.0000
  H   H1074     1.0  0.64463  0.08200  0.60515  1.0000
  H   H1075     1.0  0.66194  0.07871  0.65018  1.0000
  C   C904      1.0  0.77919  0.08643  0.90088  1.0000
  H   H1076     1.0  0.57113  0.02912  0.63267  1.0000
  C   C905      1.0  0.90488  0.23931  0.93829  1.0000
  C   C906      1.0  0.56457  0.02373  0.70052  1.0000
  C   C907      1.0  0.58360  0.02460  0.69326  1.0000
  C   C908      1.0  0.59963  0.03675  0.70665  1.0000
  C   C909      1.0  0.59684  0.04850  0.72684  1.0000
  C   C910      1.0  0.57790  0.04802  0.73334  1.0000
  C   C911      1.0  0.56178  0.03548  0.72066  1.0000
  C   C912      1.0  0.98615  0.17565  0.76505  1.0000
  H   H1077     1.0  0.61413  0.03708  0.70126  1.0000
  H   H1078     1.0  0.57570  0.05734  0.74842  1.0000
  C   C913      1.0  0.94009  0.17920  0.78360  1.0000
  C   C914      1.0  0.94670  0.19296  0.51572  1.0000
  H   H1079     1.0  0.54726  0.03519  0.72604  1.0000
  C   C915      1.0  0.91556  0.19699  0.52013  1.0000
  H   H1080     1.0  0.57167  0.07877  0.61290  1.0000
  H   H1081     1.0  0.90623  0.20294  0.53102  1.0000
  H   H1082     1.0  0.85966  0.24736  0.96815  1.0000
  H   H1083     1.0  0.77895  0.09849  0.88509  1.0000
  H   H1084     1.0  0.54817  0.05462  0.78680  1.0000
  H   H1085     1.0  0.76774  0.08367  0.91947  1.0000
  H   H1086     1.0  0.63272  0.02236  0.61228  1.0000
  C   C916      1.0  0.78731  0.07852  0.97651  1.0000
  S   S255      1.0  0.97169  0.22604  0.59955  1.0000
  C   C917      1.0  0.76732  0.11495  0.82569  1.0000
  C   C918      1.0  0.76175  0.10942  0.79745  1.0000
  C   C919      1.0  0.74189  0.10204  0.79155  1.0000
  C   C920      1.0  0.72733  0.10022  0.81384  1.0000
  C   C921      1.0  0.73289  0.10554  0.84224  1.0000
  C   C922      1.0  0.75276  0.11276  0.84825  1.0000
  H   H1087     1.0  0.77289  0.11110  0.77981  1.0000
  H   H1088     1.0  0.73786  0.09810  0.76958  1.0000
  H   H1089     1.0  0.72172  0.10425  0.85959  1.0000
  H   H1090     1.0  0.75674  0.11701  0.87003  1.0000
  C   C923      1.0  0.90702  0.17840  0.86588  1.0000
  C   C924      1.0  0.92283  0.19395  0.85099  1.0000
  C   C925      1.0  0.94193  0.19812  0.85967  1.0000
  C   C926      1.0  0.94535  0.18672  0.88332  1.0000
  C   C927      1.0  0.92947  0.17142  0.89858  1.0000
  C   C928      1.0  0.91034  0.16733  0.89006  1.0000
  H   H1091     1.0  0.92033  0.20263  0.83235  1.0000
  H   H1092     1.0  0.95404  0.20991  0.84771  1.0000
  H   H1093     1.0  0.93202  0.16252  0.91689  1.0000
  H   H1094     1.0  0.89828  0.15531  0.90165  1.0000
  C   C929      1.0  0.83640  0.20675  0.93651  1.0000
  C   C930      1.0  0.84028  0.21451  0.90636  1.0000
  C   C931      1.0  0.85034  0.23416  0.89860  1.0000
  C   C932      1.0  0.97251  0.17392  0.81569  1.0000
  C   C933      1.0  0.85439  0.23826  0.95087  1.0000
  C   C934      1.0  0.84352  0.21869  0.95873  1.0000
  H   H1095     1.0  0.83501  0.20548  0.88907  1.0000
  C   C935      1.0  0.57934  0.02924  0.61218  1.0000
  H   H1096     1.0  0.56429  0.06209  0.58586  1.0000
  C   C936      1.0  0.60112  0.04529  0.56783  1.0000
  H   H1097     1.0  0.79249  0.06229  0.85080  1.0000
  H   H1098     1.0  0.93770  0.17856  0.80828  1.0000
  H   H1099     1.0  0.89630  0.24793  0.93086  1.0000
  C   C937      1.0  0.75631  0.06486  0.83950  1.0000
  C   C938      1.0  0.49960  0.01498  0.87117  1.0000
  N   N62       1.0  0.77672  0.17619  0.86692  1.0000
  C   C939      1.0  0.77159  0.18684  0.88962  1.0000
  C   C940      1.0  0.78152  0.16089  0.88318  1.0000
  C   C941      1.0  0.79450  0.18961  0.84845  1.0000
  C   C942      1.0  0.76078  0.16760  0.84758  1.0000
  C   C943      1.0  0.76433  0.15938  0.82209  1.0000
  C   C944      1.0  0.74121  0.16601  0.85436  1.0000
  C   C945      1.0  0.74935  0.15049  0.80424  1.0000
  C   C946      1.0  0.72627  0.15679  0.83657  1.0000
  C   C947      1.0  0.73033  0.14899  0.81164  1.0000
  H   H1100     1.0  0.75970  0.17733  0.90649  1.0000
  H   H1101     1.0  0.78422  0.19382  0.90288  1.0000
  H   H1102     1.0  0.76715  0.19820  0.87881  1.0000
  H   H1103     1.0  0.76850  0.15033  0.89700  1.0000
  H   H1104     1.0  0.79324  0.16661  0.89852  1.0000
  H   H1105     1.0  0.78664  0.15299  0.86750  1.0000
  H   H1106     1.0  0.79103  0.20022  0.83346  1.0000
  H   H1107     1.0  0.80609  0.19751  0.86261  1.0000
  H   H1108     1.0  0.80145  0.18233  0.83427  1.0000
  H   H1109     1.0  0.77855  0.15907  0.81629  1.0000
  H   H1110     1.0  0.73696  0.17148  0.87353  1.0000
  N   N63       1.0  0.59161  0.06483  0.60393  1.0000
  C   C948      1.0  0.89045  0.21744  0.90264  1.0000
  H   H1111     1.0  0.95705  0.17951  0.72945  1.0000
  C   C949      1.0  0.58801  0.01096  0.57727  1.0000
  C   C950      1.0  0.67327  0.02921  0.56681  1.0000
  C   C951      1.0  0.59081  0.04657  0.59446  1.0000
  C   C952      1.0  0.93455  0.20074  0.52925  1.0000
  H   H1112     1.0  0.91868  0.24915  0.94616  1.0000
  C   C953      1.0  0.59960  0.02769  0.55945  1.0000
  N   N64       1.0  0.90909  0.22901  0.91422  1.0000
  H   H1113     1.0  0.97777  0.21113  0.73869  1.0000
  H   H1114     1.0  0.68123  0.02032  0.55953  1.0000
  C   C954      1.0  0.56587  0.04524  0.81625  1.0000
  C   C955      1.0  0.80550  0.07683  0.97418  1.0000
  N   N65       1.0  0.77624  0.06960  0.88517  1.0000
  H   H1115     1.0  0.94407  0.13628  0.78546  1.0000
  C   C956      1.0  0.72112  0.05556  0.84529  1.0000
  H   H1116     1.0  0.91996  0.20651  0.91202  1.0000
  H   H1117     1.0  0.88294  0.22636  0.89228  1.0000
  N   N66       1.0  0.65600  0.01786  0.58789  1.0000
  H   H1118     1.0  0.76474  0.05064  0.92658  1.0000
  H   H1119     1.0  0.60243  0.08141  0.64033  1.0000
  H   H1120     1.0  0.95427  0.15488  0.73453  1.0000
  C   C957      1.0  0.72173  0.05491  0.87628  1.0000
  H   H1121     1.0  0.85268  0.24013  0.87526  1.0000
  H   H1122     1.0  0.56200  0.05401  0.62521  1.0000
  H   H1123     1.0  0.57960  0.05558  0.80541  1.0000
  C   C958      1.0  0.92190  0.24275  0.88935  1.0000
  C   C959      1.0  0.77591  0.05375  0.90740  1.0000
  C   C960      1.0  0.93733  0.14663  0.79033  1.0000
  H   H1124     1.0  0.60728  0.02709  0.53873  1.0000
  N   N67       1.0  0.94926  0.16590  0.77520  1.0000
  H   H1125     1.0  0.68040  0.03756  0.62818  1.0000
  H   H1126     1.0  0.60403  0.09513  0.59004  1.0000
  H   H1127     1.0  0.61907  0.08286  0.57938  1.0000
  H   H1128     1.0  0.87999  0.20726  0.92074  1.0000
  H   H1129     1.0  0.90790  0.20598  0.94726  1.0000
  H   H1130     1.0  0.79539  0.08704  0.84704  1.0000
  H   H1131     1.0  0.93194  0.22362  0.93710  1.0000
  C   C961      1.0  0.93966  0.24183  0.87765  1.0000
  H   H1132     1.0  0.75235  0.14399  0.78522  1.0000
  H   H1133     1.0  0.94494  0.23112  0.88642  1.0000
  H   H1134     1.0  0.96051  0.17111  0.83243  1.0000
  H   H1135     1.0  0.89603  0.22943  0.95802  1.0000
  C   C962      1.0  0.67521  0.02232  0.63342  1.0000
  C   C963      1.0  0.73833  0.06035  0.82700  1.0000
  H   H1136     1.0  0.49647  0.02441  0.85344  1.0000
  H   H1137     1.0  0.73777  0.06127  0.80283  1.0000
  H   H1138     1.0  0.78572  0.09116  0.96608  1.0000
  H   H1139     1.0  0.73930  0.05869  0.91322  1.0000
  C   C964      1.0  0.91770  0.21578  0.92820  1.0000
  H   H1140     1.0  0.84044  0.21283  0.98214  1.0000
  C   C965      1.0  0.53051  0.03136  0.81955  1.0000
  H   H1141     1.0  0.59025  0.05668  0.65177  1.0000
  H   H1142     1.0  0.71864  0.14134  0.79839  1.0000
  C   C966      1.0  0.73958  0.05915  0.88909  1.0000
  H   H1143     1.0  0.93967  0.20948  0.54701  1.0000
  H   H1144     1.0  0.57186  0.01835  0.78377  1.0000
  H   H1145     1.0  0.69097  0.02515  0.67307  1.0000
  C   C967      1.0  0.75746  0.06437  0.87108  1.0000
  H   H1146     1.0  0.60697  0.02510  0.78844  1.0000
  H   H1147     1.0  0.92220  0.14141  0.78302  1.0000
  C   C968      1.0  0.60000  0.06718  0.63342  1.0000
  C   C969      1.0  0.54821  0.04467  0.80575  1.0000
  C   C970      1.0  0.60361  0.08160  0.58236  1.0000
  H   H1148     1.0  0.93329  0.16114  0.73551  1.0000
  H   H1149     1.0  0.71136  0.15536  0.84237  1.0000
  H   H1150     1.0  0.79015  0.05708  0.91761  1.0000
  H   H1151     1.0  0.79351  0.09116  0.91093  1.0000
  H   H1152     1.0  0.64107  0.03684  0.57642  1.0000
  H   H1153     1.0  0.79726  0.09119  0.51499  1.0000
  C   C971      1.0  0.85751  0.24612  0.92074  1.0000
  H   H1154     1.0  0.61035  0.05764  0.55286  1.0000
  H   H1155     1.0  0.77279  0.04050  0.89681  1.0000
  H   H1156     1.0  0.77582  0.07016  0.52698  1.0000
  H   H1157     1.0  0.70830  0.05144  0.89036  1.0000
  H   H1158     1.0  0.66895  0.03547  0.54623  1.0000
  H   H1159     1.0  0.94937  0.19411  0.77474  1.0000
  S   S256      1.0  0.98587  0.21043  0.67630  1.0000
  S   S257      1.0  0.97064  0.19700  0.52691  1.0000
  H   H1160     1.0  0.98536  0.17469  0.74129  1.0000
  H   H1161     1.0  0.80740  0.07815  0.87474  1.0000
  C   C972      1.0  0.57156  0.06491  0.60708  1.0000
  H   H1162     1.0  0.59772  0.08092  0.55989  1.0000
  H   H1163     1.0  0.76907  0.06916  0.82382  1.0000
  C   C973      1.0  0.94852  0.16535  0.74228  1.0000
  C   C974      1.0  0.78635  0.07824  0.50743  1.0000
  C   C975      1.0  0.64581  0.03032  0.59638  1.0000
  Fe  Fe131     1.0  0.66087  0.07140  0.49885  1.0000
  H   H1164     1.0  0.89294  0.20908  0.88505  1.0000
  C   C976      1.0  0.79356  0.07440  0.86336  1.0000
  H   H1165     1.0  0.58601  0.01585  0.67734  1.0000
  H   H1166     1.0  0.92540  0.17587  0.77502  1.0000
  H   H1167     1.0  0.51723  0.03169  0.81068  1.0000
  H   H1168     1.0  0.79452  0.06934  0.50104  1.0000
  H   H1169     1.0  0.68386  0.04120  0.57676  1.0000
  H   H1170     1.0  0.61427  0.06538  0.63298  1.0000
  H   H1171     1.0  0.70736  0.05283  0.83527  1.0000
  H   H1172     1.0  0.65535  0.04234  0.60744  1.0000
  C   C977      1.0  0.66249  0.00998  0.61502  1.0000
  H   H1173     1.0  0.77798  0.10969  0.49772  1.0000
  S   S258      1.0  0.54472  0.00847  0.68310  1.0000
  H   H1174     1.0  0.50772  0.02414  0.88781  1.0000
  H   H1175     1.0  0.82150  0.05920  0.98734  1.0000
  H   H1176     1.0  0.75717  0.06538  0.99455  1.0000
  C   C978      1.0  0.80746  0.06060  0.98894  1.0000
  C   C979      1.0  0.77121  0.06397  0.99296  1.0000
  C   C980      1.0  0.90845  0.18546  0.49735  1.0000
  C   C981      1.0  0.52991  0.01806  0.84434  1.0000
  C   C982      1.0  0.57830  0.00889  0.77585  1.0000
  H   H1177     1.0  0.98027  0.25547  0.90573  1.0000
  H   H1178     1.0  0.96130  0.25503  0.95230  1.0000
  C   C983      1.0  0.56587  0.03237  0.84047  1.0000
  H   H1179     1.0  0.57968  0.03288  0.84847  1.0000
  H   H1180     1.0  0.64894  0.00636  0.71485  1.0000
  C   C984      1.0  0.95151  0.25523  0.85441  1.0000
  H   H1181     1.0  0.96522  0.25454  0.84636  1.0000
  H   H1182     1.0  0.54932  0.00942  0.87302  1.0000
  H   H1183     1.0  0.63797  0.00975  0.55107  1.0000
  C   C985      1.0  0.99131  0.17984  0.82551  1.0000
  C   C986      1.0  0.57796  0.01174  0.60368  1.0000
  H   H1184     1.0  0.95159  0.47482  0.21994  1.0000
  S   S259      1.0  0.96260  0.44839  0.18894  1.0000
  C   C987      1.0  0.95001  0.32099  0.09756  1.0000
  Fe  Fe132     1.0  0.92968  0.33710  0.23652  1.0000
  S   S260      1.0  0.94124  0.33150  0.19288  1.0000
  S   S261      1.0  0.94029  0.36517  0.25611  1.0000
  Fe  Fe133     1.0  0.90906  0.29442  0.25977  1.0000
  S   S262      1.0  0.91926  0.28567  0.21818  1.0000
  S   S263      1.0  0.89131  0.27551  0.30170  1.0000
  Fe  Fe134     1.0  0.94799  0.30922  0.22113  1.0000
  H   H1185     1.0  0.91648  0.39610  0.99730  1.0000
  Fe  Fe135     1.0  0.91149  0.30850  0.19269  1.0000
  S   S264      1.0  0.89619  0.29779  0.15144  1.0000
  S   S265      1.0  0.93869  0.31627  0.26475  1.0000
  S   S266      1.0  0.89902  0.31573  0.23447  1.0000
  C   C988      1.0  0.60082  0.48513  0.20421  1.0000
  C   C989      1.0  0.98916  0.35610  0.25523  1.0000
  C   C990      1.0  0.92568  0.45050  0.26170  1.0000
  H   H1186     1.0  0.96773  0.29966  0.27441  1.0000
  H   H1187     1.0  0.93627  0.29950  0.15391  1.0000
  C   C991      1.0  0.92563  0.41504  0.28750  1.0000
  H   H1188     1.0  0.93918  0.42978  0.32384  1.0000
  H   H1189     1.0  0.97999  0.39401  0.16785  1.0000
  H   H1190     1.0  0.92521  0.26039  0.13969  1.0000
  C   C992      1.0  0.94698  0.30194  0.09335  1.0000
  H   H1191     1.0  0.93936  0.46023  0.30273  1.0000
  C   C993      1.0  0.95093  0.33435  0.07335  1.0000
  H   H1192     1.0  0.95263  0.34862  0.07717  1.0000
  H   H1193     1.0  0.93342  0.49823  0.25462  1.0000
  H   H1194     1.0  0.57281  0.46926  0.18921  1.0000
  Fe  Fe136     1.0  0.51850  0.48852  0.21534  1.0000
  H   H1195     1.0  0.89781  0.45594  0.22819  1.0000
  C   C994      1.0  0.89958  0.30940  0.11430  1.0000
  C   C995      1.0  0.89456  0.29822  0.09067  1.0000
  C   C996      1.0  0.89639  0.30661  0.06086  1.0000
  C   C997      1.0  0.90264  0.32629  0.05435  1.0000
  C   C998      1.0  0.90741  0.33754  0.07800  1.0000
  C   C999      1.0  0.90622  0.32916  0.10784  1.0000
  H   H1196     1.0  0.88901  0.28294  0.09544  1.0000
  H   H1197     1.0  0.89238  0.29776  0.04303  1.0000
  H   H1198     1.0  0.91214  0.35278  0.07323  1.0000
  H   H1199     1.0  0.90985  0.33790  0.12588  1.0000
  H   H1200     1.0  0.97346  0.35378  0.25368  1.0000
  Fe  Fe137     1.0  0.98494  0.47289  0.20827  1.0000
  C   C1000     1.0  0.50226  0.42463  0.36344  1.0000
  H   H1201     1.0  0.95118  0.32584  0.11941  1.0000
  H   H1202     1.0  0.94249  0.28307  0.05846  1.0000
  H   H1203     1.0  0.92595  0.40155  0.29695  1.0000
  C   C1001     1.0  0.95738  0.42523  0.20682  1.0000
  C   C1002     1.0  0.96389  0.42230  0.23493  1.0000
  C   C1003     1.0  0.95865  0.40378  0.24953  1.0000
  C   C1004     1.0  0.94725  0.38801  0.23593  1.0000
  C   C1005     1.0  0.94113  0.39089  0.20746  1.0000
  C   C1006     1.0  0.94604  0.40948  0.19308  1.0000
  H   H1204     1.0  0.97258  0.43431  0.24575  1.0000
  H   H1205     1.0  0.96327  0.40176  0.27167  1.0000
  H   H1206     1.0  0.93224  0.37885  0.19686  1.0000
  H   H1207     1.0  0.94096  0.41167  0.17132  1.0000
  C   C1007     1.0  0.96184  0.28025  0.11293  1.0000
  C   C1008     1.0  0.61501  0.49129  0.14395  1.0000
  H   H1208     1.0  0.62928  0.50297  0.21316  1.0000
  H   H1209     1.0  0.94864  0.33940  0.02599  1.0000
  H   H1210     1.0  0.94364  0.30663  0.01721  1.0000
  H   H1211     1.0  0.61941  0.49330  0.12027  1.0000
  C   C1009     1.0  0.93369  0.26734  0.33545  1.0000
  H   H1212     1.0  0.96199  0.26976  0.13188  1.0000
  H   H1213     1.0  0.52690  0.39577  0.35369  1.0000
  H   H1214     1.0  0.91292  0.43446  0.22502  1.0000
  H   H1215     1.0  0.65357  0.49930  0.11865  1.0000
  H   H1216     1.0  0.94932  0.48747  0.26896  1.0000
  C   C1010     1.0  0.92417  0.25868  0.38866  1.0000
  H   H1217     1.0  0.49836  0.39676  0.46025  1.0000
  H   H1218     1.0  0.49423  0.49839  0.36422  1.0000
  C   C1011     1.0  0.94495  0.29725  0.06355  1.0000
  S   S267      1.0  0.54879  0.49648  0.19158  1.0000
  C   C1012     1.0  0.50444  0.39085  0.38925  1.0000
  H   H1219     1.0  0.52472  0.42563  0.33068  1.0000
  H   H1220     1.0  0.93752  0.48840  0.20744  1.0000
  C   C1013     1.0  0.91826  0.41655  0.25978  1.0000
  H   H1221     1.0  0.49768  0.37471  0.44860  1.0000
  H   H1222     1.0  0.89561  0.46167  0.26559  1.0000
  H   H1223     1.0  0.92197  0.26335  0.40992  1.0000
  S   S268      1.0  0.98946  0.50292  0.19106  1.0000
  C   C1014     1.0  0.92685  0.27126  0.12029  1.0000
  S   S269      1.0  0.49481  0.45917  0.22258  1.0000
  C   C1015     1.0  0.51551  0.41789  0.35079  1.0000
  H   H1224     1.0  0.92552  0.48195  0.28824  1.0000
  H   H1225     1.0  0.97769  0.37906  0.28575  1.0000
  H   H1226     1.0  0.93002  0.46399  0.20174  1.0000
  H   H1227     1.0  0.91307  0.40423  0.24772  1.0000
  H   H1228     1.0  0.59507  0.48335  0.22738  1.0000
  H   H1229     1.0  0.93246  0.28700  0.36552  1.0000
  C   C1016     1.0  0.91833  0.43398  0.24694  1.0000
  H   H1230     1.0  0.97397  0.50545  0.30795  1.0000
  H   H1231     1.0  0.55947  0.50288  0.25247  1.0000
  C   C1017     1.0  0.94571  0.31069  0.03961  1.0000
  S   S270      1.0  0.97714  0.30747  0.21012  1.0000
  S   S271      1.0  0.51190  0.49504  0.26113  1.0000
  N   N68       1.0  0.94600  0.28736  0.11835  1.0000
  C   C1018     1.0  0.51667  0.40107  0.36375  1.0000
  C   C1019     1.0  0.98912  0.39830  0.18618  1.0000
  H   H1232     1.0  0.97641  0.29212  0.11038  1.0000
  C   C1020     1.0  0.98962  0.38464  0.20894  1.0000
  S   S272      1.0  0.90426  0.33712  0.01702  1.0000
  C   C1021     1.0  0.90470  0.46650  0.24375  1.0000
  C   C1022     1.0  0.93316  0.44848  0.28998  1.0000
  C   C1023     1.0  0.94868  0.32919  0.04449  1.0000
  H   H1233     1.0  0.90370  0.48008  0.23420  1.0000
  C   C1024     1.0  0.93313  0.43097  0.30251  1.0000
  H   H1234     1.0  0.96254  0.30633  0.14872  1.0000
  C   C1025     1.0  0.93368  0.48467  0.26581  1.0000
  C   C1026     1.0  0.98328  0.30752  0.26994  1.0000
  H   H1235     1.0  0.92460  0.26391  0.09987  1.0000
  C   C1027     1.0  0.93044  0.27240  0.36349  1.0000
  H   H1236     1.0  0.91461  0.27625  0.12333  1.0000
  C   C1028     1.0  0.94818  0.29453  0.14804  1.0000
  S   S273      1.0  0.49950  0.50178  0.19200  1.0000
  H   H1237     1.0  0.50566  0.37772  0.39818  1.0000
  H   H1238     1.0  0.96027  0.27307  0.09233  1.0000
  N   N69       1.0  0.92522  0.46871  0.24777  1.0000
  C   C1029     1.0  0.93646  0.47421  0.21796  1.0000
  S   S274      1.0  0.98419  0.47804  0.25651  1.0000
  C   C1030     1.0  0.62820  0.49976  0.16533  1.0000
  H   H1239     1.0  0.93800  0.27790  0.31583  1.0000
  H   H1240     1.0  0.65989  0.49143  0.17306  1.0000
  H   H1241     1.0  0.98833  0.30959  0.31662  1.0000
  C   C1031     1.0  0.62046  0.49632  0.19575  1.0000
  H   H1242     1.0  0.50118  0.43758  0.35296  1.0000
  C   C1032     1.0  0.58824  0.47722  0.18270  1.0000
  H   H1243     1.0  0.58533  0.47427  0.13605  1.0000
  H   H1244     1.0  0.94742  0.28334  0.16646  1.0000
  C   C1033     1.0  0.59533  0.48022  0.15268  1.0000
  H   H1245     1.0  0.98066  0.37009  0.20680  1.0000
  H   H1246     1.0  0.98954  0.34607  0.27463  1.0000
  H   H1247     1.0  0.60405  0.50194  0.00453  1.0000
  C   C1034     1.0  0.99174  0.31224  0.24039  1.0000
  H   H1248     1.0  0.95969  0.50578  0.35879  1.0000
  H   H1249     1.0  0.52814  0.44162  0.65827  1.0000
  S   S275      1.0  0.89620  0.32286  0.93313  1.0000
  Fe  Fe138     1.0  0.93124  0.29924  0.95954  1.0000
  S   S276      1.0  0.92234  0.29921  0.91276  1.0000
  Fe  Fe139     1.0  0.53197  0.50246  0.79532  1.0000
  Fe  Fe140     1.0  0.92706  0.32984  0.91415  1.0000
  S   S277      1.0  0.93990  0.34888  0.86994  1.0000
  Fe  Fe141     1.0  0.89222  0.29203  0.93426  1.0000
  S   S278      1.0  0.86952  0.27078  0.90957  1.0000
  S   S279      1.0  0.93914  0.33045  0.95929  1.0000
  H   H1250     1.0  0.88366  0.37710  0.95708  1.0000
  C   C1035     1.0  0.97821  0.42812  0.64115  1.0000
  H   H1251     1.0  0.92360  0.40765  0.83455  1.0000
  H   H1252     1.0  0.51679  0.46656  0.60933  1.0000
  C   C1036     1.0  0.94622  0.26997  0.84240  1.0000
  C   C1037     1.0  0.89508  0.37163  0.96390  1.0000
  Fe  Fe142     1.0  0.51343  0.46836  0.75978  1.0000
  S   S280      1.0  0.51093  0.43871  0.75152  1.0000
  S   S281      1.0  0.50533  0.47526  0.80461  1.0000
  H   H1253     1.0  0.58646  0.48304  0.86760  1.0000
  H   H1254     1.0  0.53218  0.48808  0.62274  1.0000
  C   C1038     1.0  0.55424  0.48980  0.91650  1.0000
  N   N70       1.0  0.91504  0.38579  0.95404  1.0000
  H   H1255     1.0  0.93483  0.43184  0.86922  1.0000
  H   H1256     1.0  0.50818  0.43749  0.68493  1.0000
  H   H1257     1.0  0.49960  0.39975  0.74070  1.0000
  H   H1258     1.0  0.55179  0.47926  0.87362  1.0000
  H   H1259     1.0  0.98313  0.25882  0.64859  1.0000
  S   S282      1.0  0.99026  0.28204  0.57929  1.0000
  H   H1260     1.0  0.96886  0.31300  0.92591  1.0000
  H   H1261     1.0  0.90884  0.37360  0.85442  1.0000
  H   H1262     1.0  0.90519  0.36359  0.90801  1.0000
  C   C1039     1.0  0.92872  0.27104  0.85289  1.0000
  S   S283      1.0  0.98263  0.43886  0.84571  1.0000
  C   C1040     1.0  0.52707  0.47234  0.62656  1.0000
  H   H1263     1.0  0.92663  0.36420  0.94810  1.0000
  C   C1041     1.0  0.59363  0.49472  0.90925  1.0000
  S   S284      1.0  0.94979  0.28334  0.97442  1.0000
  C   C1042     1.0  0.97169  0.41373  0.85147  1.0000
  C   C1043     1.0  0.96844  0.40450  0.88099  1.0000
  C   C1044     1.0  0.95897  0.38465  0.88697  1.0000
  C   C1045     1.0  0.95246  0.37383  0.86349  1.0000
  C   C1046     1.0  0.95605  0.38300  0.83389  1.0000
  C   C1047     1.0  0.96558  0.40286  0.82786  1.0000
  Fe  Fe143     1.0  0.90794  0.32118  0.97862  1.0000
  H   H1264     1.0  0.95677  0.37766  0.90962  1.0000
  H   H1265     1.0  0.95113  0.37469  0.81558  1.0000
  H   H1266     1.0  0.96770  0.40976  0.80510  1.0000
  C   C1048     1.0  0.97183  0.30058  0.92184  1.0000
  H   H1267     1.0  0.54026  0.46891  0.62226  1.0000
  C   C1049     1.0  0.97884  0.26830  0.91085  1.0000
  C   C1050     1.0  0.96425  0.28410  0.94241  1.0000
  H   H1268     1.0  0.90900  0.40927  0.96838  1.0000
  H   H1269     1.0  0.92889  0.37202  0.98443  1.0000
  C   C1051     1.0  0.58693  0.50052  0.93523  1.0000
  C   C1052     1.0  0.92941  0.37687  0.96010  1.0000
  H   H1270     1.0  0.51368  0.49910  0.65069  1.0000
  C   C1053     1.0  0.98707  0.29136  0.72747  1.0000
  H   H1271     1.0  0.96081  0.44104  0.66301  1.0000
  H   H1272     1.0  0.98262  0.35002  0.86708  1.0000
  C   C1054     1.0  0.51427  0.44401  0.66160  1.0000
  C   C1055     1.0  0.91658  0.25753  0.87572  1.0000
  H   H1273     1.0  0.62398  0.50059  0.94726  1.0000
  C   C1056     1.0  0.96770  0.26795  0.93690  1.0000
  C   C1057     1.0  0.98469  0.25969  0.67304  1.0000
  C   C1058     1.0  0.98513  0.29121  0.66411  1.0000
  H   H1274     1.0  0.89204  0.35794  0.95476  1.0000
  S   S285      1.0  0.98240  0.49694  0.70970  1.0000
  H   H1275     1.0  0.94457  0.38698  0.95283  1.0000
  C   C1059     1.0  0.92130  0.40339  0.85856  1.0000
  C   C1060     1.0  0.59437  0.49598  0.98664  1.0000
  C   C1061     1.0  0.91673  0.39214  0.92145  1.0000
  C   C1062     1.0  0.98732  0.28497  0.89100  1.0000
  H   H1276     1.0  0.90305  0.25892  0.88284  1.0000
  C   C1063     1.0  0.91082  0.37865  0.90069  1.0000
  H   H1277     1.0  0.96021  0.49622  0.76485  1.0000
  H   H1278     1.0  0.54494  0.47097  0.67768  1.0000
  C   C1064     1.0  0.98360  0.30109  0.89624  1.0000
  S   S286      1.0  0.90092  0.28977  0.98144  1.0000
  C   C1065     1.0  0.92757  0.41701  0.87821  1.0000
  C   C1066     1.0  0.91292  0.38425  0.86979  1.0000
  C   C1067     1.0  0.92536  0.41158  0.90922  1.0000
  C   C1068     1.0  0.91887  0.40148  0.97290  1.0000
  H   H1279     1.0  0.98497  0.29008  0.63959  1.0000
  S   S287      1.0  0.54171  0.49406  0.75293  1.0000
  N   N71       1.0  0.51756  0.46451  0.65726  1.0000
  C   C1069     1.0  0.97532  0.44281  0.65402  1.0000
  H   H1280     1.0  0.95581  0.28066  0.82515  1.0000
  C   C1070     1.0  0.58092  0.48680  0.88770  1.0000
  C   C1071     1.0  0.98734  0.29141  0.75860  1.0000
  H   H1281     1.0  0.93097  0.42288  0.92297  1.0000
  H   H1282     1.0  0.96954  0.28644  0.67291  1.0000
  C   C1072     1.0  0.56672  0.49740  0.93850  1.0000
  H   H1283     1.0  0.97315  0.41280  0.89936  1.0000
  H   H1284     1.0  0.93434  0.41168  0.96924  1.0000
  H   H1285     1.0  0.98988  0.31395  0.88069  1.0000
  H   H1286     1.0  0.96600  0.41489  0.64018  1.0000
  C   C1073     1.0  0.53124  0.47383  0.67929  1.0000
  H   H1287     1.0  0.56044  0.50107  0.95788  1.0000
  H   H1288     1.0  0.60875  0.49669  0.90441  1.0000
  H   H1289     1.0  0.53565  0.48949  0.67630  1.0000
  H   H1290     1.0  0.98047  0.30024  0.71593  1.0000
  H   H1291     1.0  0.59544  0.48217  0.98307  1.0000
  H   H1292     1.0  0.50417  0.43603  0.64562  1.0000
  H   H1293     1.0  0.52444  0.46861  0.70261  1.0000
  C   C1074     1.0  0.49938  0.46829  0.66126  1.0000
  H   H1294     1.0  0.98724  0.35294  0.81192  1.0000
  H   H1295     1.0  0.53902  0.48820  0.91883  1.0000
  C   C1075     1.0  0.50003  0.48717  0.65685  1.0000
  S   S288      1.0  0.49671  0.48263  0.73325  1.0000
  C   C1076     1.0  0.56136  0.48461  0.89108  1.0000
  H   H1296     1.0  0.89295  0.36772  0.98873  1.0000
  H   H1297     1.0  0.98113  0.30004  0.76988  1.0000
  H   H1298     1.0  0.92457  0.28253  0.84362  1.0000
  H   H1299     1.0  0.98805  0.47080  0.66576  1.0000
  S   S289      1.0  0.99163  0.48779  0.79668  1.0000
  H   H1300     1.0  0.57910  0.49291  0.99553  1.0000
  C   C1077     1.0  0.99108  0.45982  0.65559  1.0000
  C   C1078     1.0  0.99227  0.36335  0.85457  1.0000
  H   H1301     1.0  0.59541  0.62607  0.43639  1.0000
  C   C1079     1.0  0.74250  0.60690  0.03639  1.0000
  C   C1080     1.0  0.52485  0.55886  0.22074  1.0000
  H   H1302     1.0  0.56181  0.64704  0.17496  1.0000
  S   S290      1.0  0.97711  0.71198  0.13611  1.0000
  S   S291      1.0  0.96494  0.72991  0.05241  1.0000
  Fe  Fe144     1.0  0.84963  0.66008  0.39050  1.0000
  S   S292      1.0  0.83540  0.65150  0.43775  1.0000
  S   S293      1.0  0.88202  0.66808  0.37795  1.0000
  Fe  Fe145     1.0  0.81016  0.64344  0.36190  1.0000
  S   S294      1.0  0.79338  0.63332  0.40700  1.0000
  S   S295      1.0  0.79779  0.64084  0.31593  1.0000
  Fe  Fe146     1.0  0.81222  0.66160  0.42040  1.0000
  S   S296      1.0  0.79578  0.67855  0.43982  1.0000
  Fe  Fe147     1.0  0.81793  0.62425  0.42033  1.0000
  S   S297      1.0  0.81139  0.59545  0.44577  1.0000
  S   S298      1.0  0.82797  0.67241  0.37404  1.0000
  S   S299      1.0  0.83314  0.63203  0.37433  1.0000
  C   C1081     1.0  0.98807  0.59376  0.12741  1.0000
  H   H1303     1.0  0.61127  0.62633  0.48072  1.0000
  S   S300      1.0  0.95533  0.73899  0.40467  1.0000
  H   H1304     1.0  0.74038  0.54017  0.30534  1.0000
  C   C1082     1.0  0.72046  0.61122  0.00138  1.0000
  C   C1083     1.0  0.93676  0.66026  0.45404  1.0000
  H   H1305     1.0  0.66645  0.54214  0.15654  1.0000
  Fe  Fe148     1.0  0.93184  0.59143  0.39648  1.0000
  S   S301      1.0  0.91181  0.56518  0.37888  1.0000
  S   S302      1.0  0.94005  0.62001  0.36978  1.0000
  Fe  Fe149     1.0  0.93408  0.57100  0.45664  1.0000
  S   S303      1.0  0.91413  0.54313  0.44405  1.0000
  Fe  Fe150     1.0  0.93145  0.55153  0.39910  1.0000
  S   S304      1.0  0.94184  0.52936  0.38259  1.0000
  Fe  Fe151     1.0  0.89640  0.55922  0.42500  1.0000
  S   S305      1.0  0.86377  0.54655  0.43572  1.0000
  S   S306      1.0  0.95281  0.57843  0.41303  1.0000
  S   S307      1.0  0.91495  0.58641  0.44125  1.0000
  Fe  Fe152     1.0  0.70093  0.58406  0.23248  1.0000
  S   S308      1.0  0.70872  0.60179  0.18719  1.0000
  S   S309      1.0  0.71797  0.58386  0.27392  1.0000
  Fe  Fe153     1.0  0.65804  0.56293  0.21855  1.0000
  S   S310      1.0  0.66230  0.57913  0.17275  1.0000
  Fe  Fe154     1.0  0.69079  0.57505  0.16820  1.0000
  S   S311      1.0  0.70184  0.56774  0.12491  1.0000
  Fe  Fe155     1.0  0.67973  0.60454  0.19459  1.0000
  S   S312      1.0  0.67468  0.63122  0.18033  1.0000
  S   S313      1.0  0.68544  0.55680  0.21288  1.0000
  S   S314      1.0  0.67304  0.58882  0.24098  1.0000
  Fe  Fe156     1.0  0.57281  0.64477  0.31978  1.0000
  S   S315      1.0  0.55803  0.64940  0.27842  1.0000
  S   S316      1.0  0.55674  0.63017  0.36490  1.0000
  Fe  Fe157     1.0  0.61187  0.65516  0.28469  1.0000
  S   S317      1.0  0.60070  0.66008  0.24044  1.0000
  S   S318      1.0  0.64273  0.65813  0.29131  1.0000
  Fe  Fe158     1.0  0.58552  0.67546  0.26506  1.0000
  S   S319      1.0  0.58541  0.70385  0.24437  1.0000
  Fe  Fe159     1.0  0.57426  0.63379  0.25657  1.0000
  H   H1306     1.0  0.90488  0.64524  0.40300  1.0000
  S   S320      1.0  0.59860  0.67230  0.30884  1.0000
  S   S321      1.0  0.58716  0.62733  0.29836  1.0000
  H   H1307     1.0  0.97708  0.55778  0.16209  1.0000
  C   C1084     1.0  0.64113  0.72019  0.25166  1.0000
  H   H1308     1.0  0.98541  0.54699  0.43222  1.0000
  C   C1085     1.0  0.60109  0.71716  0.21228  1.0000
  C   C1086     1.0  0.61025  0.70881  0.19359  1.0000
  C   C1087     1.0  0.62252  0.71963  0.16824  1.0000
  H   H1309     1.0  0.74765  0.59901  0.02072  1.0000
  H   H1310     1.0  0.71477  0.73848  0.16807  1.0000
  C   C1088     1.0  0.60429  0.73647  0.20515  1.0000
  H   H1311     1.0  0.60787  0.69400  0.19856  1.0000
  C   C1089     1.0  0.57409  0.72082  0.46105  1.0000
  S   S322      1.0  0.65235  0.54771  0.01196  1.0000
  H   H1312     1.0  0.59718  0.74305  0.21937  1.0000
  C   C1090     1.0  0.56268  0.64028  0.39864  1.0000
  C   C1091     1.0  0.57282  0.65975  0.39863  1.0000
  C   C1092     1.0  0.57614  0.66748  0.42597  1.0000
  C   C1093     1.0  0.56992  0.65575  0.45349  1.0000
  C   C1094     1.0  0.56035  0.63618  0.45353  1.0000
  C   C1095     1.0  0.55651  0.62852  0.42617  1.0000
  H   H1313     1.0  0.57757  0.66893  0.37758  1.0000
  H   H1314     1.0  0.58345  0.68264  0.42576  1.0000
  H   H1315     1.0  0.55532  0.62704  0.47459  1.0000
  H   H1316     1.0  0.54861  0.61344  0.42635  1.0000
  C   C1096     1.0  0.68839  0.56413  0.09280  1.0000
  C   C1097     1.0  0.69701  0.56127  0.06624  1.0000
  C   C1098     1.0  0.68646  0.55741  0.04069  1.0000
  C   C1099     1.0  0.66692  0.55570  0.04185  1.0000
  C   C1100     1.0  0.65828  0.55856  0.06839  1.0000
  C   C1101     1.0  0.66909  0.56317  0.09354  1.0000
  H   H1317     1.0  0.71180  0.56163  0.06561  1.0000
  H   H1318     1.0  0.69314  0.55483  0.02058  1.0000
  H   H1319     1.0  0.64315  0.55720  0.06949  1.0000
  H   H1320     1.0  0.66232  0.56560  0.11360  1.0000
  C   C1102     1.0  0.66822  0.64085  0.21082  1.0000
  C   C1103     1.0  0.67262  0.63612  0.23972  1.0000
  C   C1104     1.0  0.66538  0.64212  0.26439  1.0000
  C   C1105     1.0  0.65354  0.65264  0.26013  1.0000
  C   C1106     1.0  0.64989  0.65811  0.23109  1.0000
  C   C1107     1.0  0.65746  0.65242  0.20639  1.0000
  H   H1321     1.0  0.68158  0.62782  0.24309  1.0000
  H   H1322     1.0  0.66842  0.63809  0.28683  1.0000
  H   H1323     1.0  0.64110  0.66655  0.22760  1.0000
  H   H1324     1.0  0.65423  0.65625  0.18397  1.0000
  C   C1108     1.0  0.78064  0.69182  0.48553  1.0000
  H   H1325     1.0  0.61737  0.54042  0.18162  1.0000
  C   C1109     1.0  0.96688  0.52854  0.28768  1.0000
  H   H1326     1.0  0.59145  0.52034  0.27178  1.0000
  C   C1110     1.0  0.97198  0.63304  0.40223  1.0000
  C   C1111     1.0  0.95815  0.63746  0.38607  1.0000
  C   C1112     1.0  0.95870  0.65601  0.38291  1.0000
  H   H1327     1.0  0.72155  0.63961  0.03237  1.0000
  C   C1113     1.0  0.92569  0.69027  0.46527  1.0000
  H   H1328     1.0  0.97167  0.61877  0.40471  1.0000
  H   H1329     1.0  0.50499  0.56700  0.28489  1.0000
  H   H1330     1.0  0.66943  0.70252  0.21354  1.0000
  C   C1114     1.0  0.77479  0.62586  0.30516  1.0000
  C   C1115     1.0  0.76038  0.61263  0.32585  1.0000
  C   C1116     1.0  0.74293  0.60017  0.31594  1.0000
  C   C1117     1.0  0.73934  0.60118  0.28541  1.0000
  C   C1118     1.0  0.75335  0.61501  0.26490  1.0000
  C   C1119     1.0  0.77102  0.62718  0.27474  1.0000
  H   H1331     1.0  0.76273  0.61184  0.34940  1.0000
  H   H1332     1.0  0.73215  0.58956  0.33198  1.0000
  H   H1333     1.0  0.75087  0.61590  0.24135  1.0000
  H   H1334     1.0  0.78198  0.63747  0.25855  1.0000
  H   H1335     1.0  0.86502  0.69295  0.01569  1.0000
  C   C1120     1.0  0.97817  0.66651  0.21923  1.0000
  C   C1121     1.0  0.75237  0.63635  0.00054  1.0000
  C   C1122     1.0  0.90184  0.68712  0.38867  1.0000
  C   C1123     1.0  0.89934  0.70212  0.40140  1.0000
  C   C1124     1.0  0.91586  0.71789  0.40668  1.0000
  C   C1125     1.0  0.93486  0.71849  0.40000  1.0000
  C   C1126     1.0  0.93722  0.70310  0.38854  1.0000
  C   C1127     1.0  0.92080  0.68762  0.38256  1.0000
  H   H1336     1.0  0.88478  0.70190  0.40617  1.0000
  H   H1337     1.0  0.91393  0.72975  0.41570  1.0000
  H   H1338     1.0  0.95170  0.70326  0.38372  1.0000
  H   H1339     1.0  0.92287  0.67609  0.37272  1.0000
  C   C1128     1.0  0.82663  0.58272  0.44090  1.0000
  C   C1129     1.0  0.84528  0.59083  0.42539  1.0000
  C   C1130     1.0  0.85709  0.58000  0.42353  1.0000
  C   C1131     1.0  0.84991  0.56095  0.43633  1.0000
  C   C1132     1.0  0.83109  0.55288  0.45092  1.0000
  C   C1133     1.0  0.81966  0.56376  0.45355  1.0000
  C   C1134     1.0  0.51727  0.58286  0.37480  1.0000
  H   H1340     1.0  0.87155  0.58621  0.41187  1.0000
  H   H1341     1.0  0.82544  0.53820  0.46080  1.0000
  H   H1342     1.0  0.80529  0.55740  0.46552  1.0000
  C   C1135     1.0  0.94453  0.71111  0.04136  1.0000
  C   C1136     1.0  0.91441  0.68318  0.05291  1.0000
  C   C1137     1.0  0.93156  0.69660  0.06218  1.0000
  H   H1343     1.0  0.90426  0.67235  0.06940  1.0000
  H   H1344     1.0  0.93444  0.69608  0.08559  1.0000
  C   C1138     1.0  0.83573  0.69148  0.01572  1.0000
  C   C1139     1.0  0.92132  0.69302  0.29759  1.0000
  H   H1345     1.0  0.96413  0.72071  0.32380  1.0000
  H   H1346     1.0  0.63895  0.70018  0.06777  1.0000
  H   H1347     1.0  0.50959  0.51098  0.31589  1.0000
  H   H1348     1.0  0.95780  0.55170  0.27439  1.0000
  H   H1349     1.0  0.99208  0.59421  0.47938  1.0000
  C   C1140     1.0  0.95085  0.52911  0.34561  1.0000
  C   C1141     1.0  0.95039  0.54206  0.32169  1.0000
  C   C1142     1.0  0.95833  0.54172  0.29283  1.0000
  C   C1143     1.0  0.90545  0.63406  0.42039  1.0000
  H   H1350     1.0  0.52138  0.59680  0.38220  1.0000
  H   H1351     1.0  0.94386  0.55228  0.32542  1.0000
  H   H1352     1.0  0.90975  0.73784  0.31980  1.0000
  H   H1353     1.0  0.55574  0.68950  0.19646  1.0000
  H   H1354     1.0  0.69518  0.74964  0.00661  1.0000
  N   N72       1.0  0.79217  0.57642  0.35807  1.0000
  C   C1144     1.0  0.78838  0.59204  0.37055  1.0000
  C   C1145     1.0  0.78633  0.56007  0.38211  1.0000
  C   C1146     1.0  0.81354  0.58246  0.35044  1.0000
  C   C1147     1.0  0.78136  0.57220  0.33096  1.0000
  C   C1148     1.0  0.76442  0.55548  0.33030  1.0000
  C   C1149     1.0  0.78674  0.58573  0.30489  1.0000
  C   C1150     1.0  0.75359  0.55272  0.30516  1.0000
  C   C1151     1.0  0.77595  0.58267  0.27977  1.0000
  C   C1152     1.0  0.75929  0.56631  0.28002  1.0000
  H   H1355     1.0  0.77248  0.58812  0.37642  1.0000
  H   H1356     1.0  0.79592  0.59562  0.39124  1.0000
  H   H1357     1.0  0.79356  0.60524  0.35443  1.0000
  H   H1358     1.0  0.77091  0.55592  0.39136  1.0000
  H   H1359     1.0  0.79527  0.56359  0.40168  1.0000
  H   H1360     1.0  0.78832  0.54760  0.37387  1.0000
  H   H1361     1.0  0.81986  0.59624  0.33581  1.0000
  H   H1362     1.0  0.82183  0.58461  0.37085  1.0000
  H   H1363     1.0  0.81687  0.57167  0.33885  1.0000
  H   H1364     1.0  0.75896  0.54453  0.34915  1.0000
  H   H1365     1.0  0.79881  0.59922  0.30413  1.0000
  H   H1366     1.0  0.67087  0.52300  0.11926  1.0000
  H   H1367     1.0  0.78003  0.59346  0.26048  1.0000
  H   H1368     1.0  0.75045  0.56444  0.26101  1.0000
  C   C1153     1.0  0.91018  0.68377  0.02265  1.0000
  N   N73       1.0  0.54207  0.65958  0.19179  1.0000
  C   C1154     1.0  0.60692  0.57720  0.14742  1.0000
  C   C1155     1.0  0.58496  0.73990  0.46284  1.0000
  H   H1369     1.0  0.62977  0.71582  0.27000  1.0000
  C   C1156     1.0  0.64689  0.73817  0.23559  1.0000
  C   C1157     1.0  0.93532  0.70993  0.30595  1.0000
  H   H1370     1.0  0.68785  0.72813  0.13288  1.0000
  H   H1371     1.0  0.56509  0.65337  0.21194  1.0000
  N   N74       1.0  0.98570  0.68475  0.23228  1.0000
  C   C1158     1.0  0.50234  0.62290  0.24767  1.0000
  H   H1372     1.0  0.90780  0.69280  0.28903  1.0000
  H   H1373     1.0  0.73988  0.63818  0.05642  1.0000
  C   C1159     1.0  0.88135  0.63732  0.45430  1.0000
  C   C1160     1.0  0.66104  0.74370  0.21124  1.0000
  Fe  Fe160     1.0  0.98435  0.72987  0.09110  1.0000
  H   H1374     1.0  0.97584  0.66870  0.19496  1.0000
  H   H1375     1.0  0.94765  0.65935  0.37126  1.0000
  C   C1161     1.0  0.62711  0.67379  0.46021  1.0000
  H   H1376     1.0  0.91300  0.66305  0.29533  1.0000
  H   H1377     1.0  0.51798  0.65243  0.24572  1.0000
  H   H1378     1.0  0.94331  0.66177  0.31515  1.0000
  H   H1379     1.0  0.64692  0.51966  0.10945  1.0000
  H   H1380     1.0  0.87756  0.64042  0.47687  1.0000
  C   C1162     1.0  0.58701  0.52149  0.18624  1.0000
  C   C1163     1.0  0.67513  0.74286  0.04507  1.0000
  H   H1381     1.0  0.70843  0.59923  0.01496  1.0000
  C   C1164     1.0  0.64956  0.70765  0.24357  1.0000
  H   H1382     1.0  0.58594  0.52138  0.16233  1.0000
  N   N75       1.0  0.50042  0.52731  0.34539  1.0000
  C   C1165     1.0  0.52882  0.57984  0.35217  1.0000
  N   N76       1.0  0.90185  0.63840  0.45100  1.0000
  C   C1166     1.0  0.93055  0.73383  0.27124  1.0000
  H   H1383     1.0  0.52246  0.54818  0.20566  1.0000
  C   C1167     1.0  0.67702  0.72465  0.15267  1.0000
  H   H1384     1.0  0.98203  0.65001  0.32632  1.0000
  N   N77       1.0  0.68504  0.73656  0.17671  1.0000
  Fe  Fe161     1.0  0.98585  0.73845  0.40047  1.0000
  C   C1168     1.0  0.97027  0.69275  0.23226  1.0000
  H   H1385     1.0  0.62843  0.59809  0.16861  1.0000
  H   H1386     1.0  0.95636  0.70661  0.46598  1.0000
  H   H1387     1.0  0.92838  0.74752  0.26814  1.0000
  C   C1169     1.0  0.95929  0.51585  0.34038  1.0000
  H   H1388     1.0  0.52200  0.66442  0.16186  1.0000
  C   C1170     1.0  0.95552  0.69156  0.31964  1.0000
  C   C1171     1.0  0.58485  0.74719  0.48998  1.0000
  H   H1389     1.0  0.70173  0.63257  0.29603  1.0000
  H   H1390     1.0  0.89439  0.62031  0.41570  1.0000
  H   H1391     1.0  0.54183  0.59157  0.34204  1.0000
  C   C1172     1.0  0.54039  0.57656  0.21402  1.0000
  C   C1173     1.0  0.57049  0.51094  0.20610  1.0000
  C   C1174     1.0  0.67535  0.72004  0.01033  1.0000
  C   C1175     1.0  0.51507  0.56947  0.26537  1.0000
  N   N78       1.0  0.61001  0.59400  0.22468  1.0000
  C   C1176     1.0  0.61362  0.61421  0.21531  1.0000
  C   C1177     1.0  0.59646  0.58766  0.25238  1.0000
  C   C1178     1.0  0.62871  0.59252  0.23259  1.0000
  C   C1179     1.0  0.60247  0.58288  0.19960  1.0000
  C   C1180     1.0  0.58361  0.56817  0.20155  1.0000
  C   C1181     1.0  0.61394  0.58707  0.17177  1.0000
  C   C1182     1.0  0.57664  0.55858  0.17694  1.0000
  C   C1183     1.0  0.58827  0.56305  0.14997  1.0000
  H   H1392     1.0  0.60033  0.61584  0.20691  1.0000
  H   H1393     1.0  0.61796  0.62290  0.23417  1.0000
  H   H1394     1.0  0.62551  0.62065  0.19696  1.0000
  H   H1395     1.0  0.58233  0.58923  0.24847  1.0000
  H   H1396     1.0  0.60262  0.59625  0.27079  1.0000
  H   H1397     1.0  0.59353  0.57260  0.26091  1.0000
  H   H1398     1.0  0.64037  0.59859  0.21387  1.0000
  H   H1399     1.0  0.63458  0.60037  0.25187  1.0000
  H   H1400     1.0  0.62679  0.57746  0.23875  1.0000
  H   H1401     1.0  0.57388  0.56374  0.22179  1.0000
  H   H1402     1.0  0.56227  0.54725  0.17906  1.0000
  H   H1403     1.0  0.64885  0.65699  0.48973  1.0000
  S   S323      1.0  0.57342  0.66633  0.48713  1.0000
  C   C1184     1.0  0.50659  0.54642  0.35532  1.0000
  H   H1404     1.0  0.89228  0.73695  0.01702  1.0000
  C   C1185     1.0  0.65115  0.53200  0.16248  1.0000
  C   C1186     1.0  0.97315  0.67017  0.39567  1.0000
  H   H1405     1.0  0.91996  0.63303  0.41675  1.0000
  C   C1187     1.0  0.50039  0.56804  0.38768  1.0000
  H   H1406     1.0  0.87872  0.64736  0.43690  1.0000
  H   H1407     1.0  0.97327  0.65228  0.27501  1.0000
  H   H1408     1.0  0.96370  0.65675  0.23015  1.0000
  H   H1409     1.0  0.64496  0.69365  0.25614  1.0000
  H   H1410     1.0  0.75431  0.61349  0.05111  1.0000
  C   C1188     1.0  0.95272  0.70873  0.31665  1.0000
  H   H1411     1.0  0.52922  0.52872  0.33083  1.0000
  H   H1412     1.0  0.63885  0.68496  0.44508  1.0000
  H   H1413     1.0  0.67251  0.70926  0.16041  1.0000
  C   C1189     1.0  0.94679  0.74363  0.31548  1.0000
  C   C1190     1.0  0.51608  0.64028  0.23405  1.0000
  H   H1414     1.0  0.98209  0.53873  0.38626  1.0000
  H   H1415     1.0  0.91830  0.72328  0.26124  1.0000
  H   H1416     1.0  0.53041  0.67883  0.20967  1.0000
  C   C1191     1.0  0.79298  0.68240  0.47785  1.0000
  H   H1417     1.0  0.87065  0.62298  0.45153  1.0000
  N   N79       1.0  0.75476  0.66127  0.37552  1.0000
  C   C1192     1.0  0.75270  0.67808  0.38679  1.0000
  C   C1193     1.0  0.75103  0.64626  0.40118  1.0000
  C   C1194     1.0  0.77544  0.66704  0.36349  1.0000
  C   C1195     1.0  0.74052  0.65404  0.35307  1.0000
  C   C1196     1.0  0.74619  0.65184  0.32346  1.0000
  C   C1197     1.0  0.72015  0.64836  0.36087  1.0000
  C   C1198     1.0  0.73226  0.64424  0.30327  1.0000
  C   C1199     1.0  0.70636  0.64085  0.34042  1.0000
  C   C1200     1.0  0.71242  0.63870  0.31173  1.0000
  H   H1418     1.0  0.76379  0.68417  0.40296  1.0000
  H   H1419     1.0  0.75471  0.68945  0.36802  1.0000
  H   H1420     1.0  0.73823  0.67466  0.39907  1.0000
  H   H1421     1.0  0.73640  0.64229  0.41330  1.0000
  H   H1422     1.0  0.76187  0.65094  0.41817  1.0000
  H   H1423     1.0  0.75192  0.63318  0.39352  1.0000
  H   H1424     1.0  0.78582  0.67277  0.38061  1.0000
  H   H1425     1.0  0.77842  0.65479  0.35645  1.0000
  H   H1426     1.0  0.77938  0.67837  0.34411  1.0000
  H   H1427     1.0  0.76128  0.65557  0.31537  1.0000
  H   H1428     1.0  0.71473  0.64943  0.38302  1.0000
  H   H1429     1.0  0.73689  0.64233  0.28101  1.0000
  H   H1430     1.0  0.69087  0.63646  0.34688  1.0000
  H   H1431     1.0  0.73024  0.59611  0.05137  1.0000
  H   H1432     1.0  0.64149  0.53723  0.14895  1.0000
  C   C1201     1.0  0.91653  0.65715  0.45549  1.0000
  C   C1202     1.0  0.54422  0.67619  0.20794  1.0000
  S   S324      1.0  0.62964  0.54166  0.24285  1.0000
  H   H1433     1.0  0.59726  0.64145  0.47761  1.0000
  H   H1434     1.0  0.91784  0.62205  0.47049  1.0000
  C   C1203     1.0  0.94036  0.71164  0.01105  1.0000
  C   C1204     1.0  0.65922  0.72911  0.06234  1.0000
  H   H1435     1.0  0.61601  0.58057  0.12649  1.0000
  H   H1436     1.0  0.65041  0.67287  0.40636  1.0000
  C   C1205     1.0  0.60492  0.53211  0.19711  1.0000
  S   S325      1.0  0.88751  0.66737  0.01283  1.0000
  C   C1206     1.0  0.65518  0.51353  0.12465  1.0000
  C   C1207     1.0  0.72824  0.62988  0.04267  1.0000
  H   H1437     1.0  0.94426  0.73580  0.25761  1.0000
  C   C1208     1.0  0.60420  0.63115  0.39008  1.0000
  C   C1209     1.0  0.98738  0.66593  0.41103  1.0000
  C   C1210     1.0  0.99223  0.74328  0.26039  1.0000
  H   H1438     1.0  0.57335  0.67149  0.18037  1.0000
  C   C1211     1.0  0.53681  0.66375  0.16113  1.0000
  C   C1212     1.0  0.54361  0.59061  0.23326  1.0000
  C   C1213     1.0  0.98994  0.57222  0.35462  1.0000
  C   C1214     1.0  0.52713  0.64153  0.20669  1.0000
  C   C1215     1.0  0.94537  0.69282  0.46365  1.0000
  N   N80       1.0  0.93156  0.72773  0.30329  1.0000
  C   C1216     1.0  0.60675  0.53135  0.22798  1.0000
  N   N81       1.0  0.73631  0.62130  0.01994  1.0000
  C   C1217     1.0  0.95091  0.67784  0.45815  1.0000
  C   C1218     1.0  0.67003  0.73126  0.20243  1.0000
  H   H1439     1.0  0.91257  0.71908  0.34384  1.0000
  H   H1440     1.0  0.53332  0.59769  0.27411  1.0000
  H   H1441     1.0  0.65879  0.66518  0.45199  1.0000
  H   H1442     1.0  0.97589  0.58750  0.14422  1.0000
  C   C1219     1.0  0.52365  0.56194  0.34243  1.0000
  C   C1220     1.0  0.53112  0.58688  0.25931  1.0000
  N   N82       1.0  0.64878  0.51259  0.15678  1.0000
  H   H1443     1.0  0.58286  0.55530  0.13120  1.0000
  C   C1221     1.0  0.96739  0.51563  0.31161  1.0000
  H   H1444     1.0  0.63985  0.74767  0.24148  1.0000
  C   C1222     1.0  0.94129  0.67516  0.31194  1.0000
  C   C1223     1.0  0.62619  0.73906  0.16151  1.0000
  H   H1445     1.0  0.54886  0.67435  0.23091  1.0000
  N   N83       1.0  0.62709  0.65457  0.45800  1.0000
  H   H1446     1.0  0.59105  0.61988  0.38492  1.0000
  H   H1447     1.0  0.53163  0.62406  0.17369  1.0000
  S   S326      1.0  0.56270  0.61295  0.22298  1.0000
  S   S327      1.0  0.97638  0.52846  0.25095  1.0000
  H   H1448     1.0  0.89219  0.60924  0.47111  1.0000
  C   C1224     1.0  0.92424  0.67590  0.30082  1.0000
  C   C1225     1.0  0.56139  0.65783  0.18952  1.0000
  H   H1449     1.0  0.85061  0.60540  0.41505  1.0000
  C   C1226     1.0  0.91141  0.67279  0.46110  1.0000
  H   H1450     1.0  0.96636  0.69563  0.20907  1.0000
  C   C1227     1.0  0.56303  0.70896  0.48638  1.0000
  H   H1451     1.0  0.64519  0.66560  0.35490  1.0000
  H   H1452     1.0  0.65291  0.73272  0.08191  1.0000
  H   H1453     1.0  0.71653  0.61887  0.05832  1.0000
  H   H1454     1.0  0.94822  0.73989  0.33965  1.0000
  C   C1228     1.0  0.91263  0.72455  0.32001  1.0000
  C   C1229     1.0  0.62376  0.64998  0.42696  1.0000
  H   H1455     1.0  0.97659  0.73893  0.26360  1.0000
  C   C1230     1.0  0.99115  0.68260  0.26344  1.0000
  H   H1456     1.0  0.51209  0.51620  0.38249  1.0000
  C   C1231     1.0  0.65135  0.71082  0.05423  1.0000
  H   H1457     1.0  0.64698  0.64012  0.46392  1.0000
  H   H1458     1.0  0.55516  0.69431  0.48333  1.0000
  C   C1232     1.0  0.98845  0.56938  0.45796  1.0000
  C   C1233     1.0  0.61804  0.64210  0.36694  1.0000
  C   C1234     1.0  0.68302  0.73844  0.01944  1.0000
  H   H1459     1.0  0.53670  0.65281  0.14653  1.0000
  H   H1460     1.0  0.54983  0.57944  0.19362  1.0000
  H   H1461     1.0  0.94186  0.64923  0.44913  1.0000
  C   C1235     1.0  0.60691  0.63495  0.41971  1.0000
  C   C1236     1.0  0.63747  0.66098  0.40272  1.0000
  H   H1462     1.0  0.92155  0.70217  0.46874  1.0000
  H   H1463     1.0  0.96133  0.74787  0.30290  1.0000
  H   H1464     1.0  0.66392  0.72691  0.14461  1.0000
  H   H1465     1.0  0.88184  0.54603  0.49023  1.0000
  C   C1237     1.0  0.61696  0.74746  0.18006  1.0000
  H   H1466     1.0  0.96859  0.69089  0.32889  1.0000
  C   C1238     1.0  0.65926  0.70622  0.02867  1.0000
  H   H1467     1.0  0.77301  0.69645  0.46835  1.0000
  C   C1239     1.0  0.59017  0.52101  0.24784  1.0000
  H   H1468     1.0  0.65247  0.69181  0.02369  1.0000
  C   C1240     1.0  0.61197  0.64111  0.48081  1.0000
  C   C1241     1.0  0.51451  0.52557  0.32246  1.0000
  C   C1242     1.0  0.90345  0.62347  0.47327  1.0000
  C   C1243     1.0  0.51189  0.55538  0.24615  1.0000
  C   C1244     1.0  0.66369  0.71297  0.21922  1.0000
  H   H1469     1.0  0.57438  0.71507  0.44001  1.0000
  C   C1245     1.0  0.99118  0.56224  0.43139  1.0000
  H   H1470     1.0  0.62929  0.71287  0.15386  1.0000
  H   H1471     1.0  0.53315  0.56074  0.32451  1.0000
  H   H1472     1.0  0.70823  0.74098  0.20599  1.0000
  H   H1473     1.0  0.54741  0.67757  0.14964  1.0000
  H   H1474     1.0  0.61584  0.63915  0.34403  1.0000
  H   H1475     1.0  0.96631  0.68003  0.45643  1.0000
  C   C1246     1.0  0.52345  0.62438  0.19397  1.0000
  C   C1247     1.0  0.99002  0.56601  0.17363  1.0000
  C   C1248     1.0  0.64627  0.65424  0.46606  1.0000
  H   H1476     1.0  0.89989  0.71414  0.31080  1.0000
  C   C1249     1.0  0.50963  0.60713  0.20771  1.0000
  C   C1250     1.0  0.63462  0.65701  0.37319  1.0000
  H   H1477     1.0  0.99062  0.56658  0.33285  1.0000
  H   H1478     1.0  0.95677  0.68305  0.24597  1.0000
  Fe  Fe162     1.0  0.99150  0.50868  0.23910  1.0000
  H   H1479     1.0  0.89655  0.67211  0.46161  1.0000
  H   H1480     1.0  0.69984  0.71812  0.19272  1.0000
  H   H1481     1.0  0.97292  0.68419  0.39428  1.0000
  H   H1482     1.0  0.77587  0.62564  0.00843  1.0000
  H   H1483     1.0  0.64752  0.53275  0.18647  1.0000
  H   H1484     1.0  0.61292  0.67458  0.45429  1.0000
  C   C1251     1.0  0.92352  0.69786  0.00163  1.0000
  H   H1485     1.0  0.62935  0.67769  0.48336  1.0000
  H   H1486     1.0  0.51599  0.53512  0.30139  1.0000
  C   C1252     1.0  0.98667  0.64731  0.41452  1.0000
  H   H1487     1.0  0.97440  0.56594  0.36413  1.0000
  C   C1253     1.0  0.70268  0.73338  0.18633  1.0000
  C   C1254     1.0  0.49912  0.60637  0.23452  1.0000
  C   C1255     1.0  0.98332  0.66503  0.28245  1.0000
  H   H1488     1.0  0.97361  0.61057  0.10487  1.0000
  H   H1489     1.0  0.98084  0.55974  0.47784  1.0000
  S   S328      1.0  0.98615  0.74208  0.20085  1.0000
  C   C1256     1.0  0.98650  0.60698  0.10480  1.0000
  C   C1257     1.0  0.49822  0.51284  0.37131  1.0000
  H   H1490     1.0  0.83025  0.67863  0.03150  1.0000
  H   H1491     1.0  0.59366  0.74902  0.44325  1.0000
  H   H1492     1.0  0.89474  0.71452  0.01602  1.0000
  H   H1493     1.0  0.50750  0.59412  0.19804  1.0000
  C   C1258     1.0  0.49503  0.55010  0.37806  1.0000
  C   C1259     1.0  0.98824  0.66352  0.31211  1.0000
  H   H1494     1.0  0.98640  0.57623  0.18627  1.0000
  H   H1495     1.0  0.97514  0.70647  0.24178  1.0000
  S   S329      1.0  0.64270  0.75193  0.12999  1.0000
  C   C1260     1.0  0.57203  0.51110  0.23697  1.0000
  H   H1496     1.0  0.67783  0.51536  0.16790  1.0000
  C   C1261     1.0  0.77175  0.63668  0.99751  1.0000
  H   H1497     1.0  0.49432  0.62218  0.26880  1.0000
  H   H1498     1.0  0.98876  0.65928  0.22061  1.0000
  C   C1262     1.0  0.89641  0.72800  0.00217  1.0000
  C   C1263     1.0  0.85572  0.69993  0.00670  1.0000
  H   H1499     1.0  0.70692  0.71077  0.00549  1.0000
  H   H1500     1.0  0.66023  0.50788  0.19922  1.0000
  H   H1501     1.0  0.97946  0.64920  0.47691  1.0000
  H   H1502     1.0  0.81238  0.66936  0.49479  1.0000
  C   C1264     1.0  0.82282  0.69925  0.00400  1.0000
  H   H1503     1.0  0.80731  0.69257  0.01084  1.0000
  H   H1504     1.0  0.99240  0.55569  0.19089  1.0000
  H   H1505     1.0  0.85882  0.55853  0.49554  1.0000
  C   C1265     1.0  0.66218  0.50648  0.17503  1.0000
  H   H1506     1.0  0.84943  0.58591  0.49581  1.0000
  Fe  Fe163     1.0  0.93112  0.57009  0.71843  1.0000
  S   S330      1.0  0.94989  0.58466  0.67576  1.0000
  Fe  Fe164     1.0  0.91698  0.60242  0.72652  1.0000
  S   S331      1.0  0.93472  0.61930  0.68435  1.0000
  S   S332      1.0  0.89991  0.61772  0.74910  1.0000
  Fe  Fe165     1.0  0.92447  0.59241  0.66306  1.0000
  S   S333      1.0  0.91531  0.59636  0.61594  1.0000
  Fe  Fe166     1.0  0.95852  0.61035  0.70010  1.0000
  H   H1507     1.0  0.52763  0.71337  0.53650  1.0000
  S   S334      1.0  0.90462  0.57582  0.70409  1.0000
  S   S335      1.0  0.94180  0.59538  0.74388  1.0000
  H   H1508     1.0  0.88143  0.56880  0.58267  1.0000
  Fe  Fe167     1.0  0.86037  0.67547  0.91090  1.0000
  S   S336      1.0  0.84703  0.66674  0.95831  1.0000
  S   S337      1.0  0.86265  0.70281  0.88416  1.0000
  Fe  Fe168     1.0  0.87342  0.64246  0.90968  1.0000
  S   S338      1.0  0.86116  0.63134  0.95746  1.0000
  S   S339      1.0  0.88878  0.62545  0.88805  1.0000
  Fe  Fe169     1.0  0.83493  0.63749  0.94430  1.0000
  S   S340      1.0  0.80515  0.61578  0.96322  1.0000
  Fe  Fe170     1.0  0.87446  0.66147  0.96772  1.0000
  H   H1509     1.0  0.96310  0.60965  0.60754  1.0000
  S   S341      1.0  0.84623  0.64662  0.89574  1.0000
  S   S342      1.0  0.88871  0.67218  0.92089  1.0000
  Fe  Fe171     1.0  0.77718  0.73663  0.90776  1.0000
  S   S343      1.0  0.75962  0.70739  0.89722  1.0000
  H   H1510     1.0  0.97058  0.61145  0.55723  1.0000
  H   H1511     1.0  0.67306  0.74712  0.49951  1.0000
  S   S344      1.0  0.72204  0.72064  0.90079  1.0000
  Fe  Fe172     1.0  0.73771  0.70802  0.93259  1.0000
  S   S345      1.0  0.72248  0.68365  0.96853  1.0000
  Fe  Fe173     1.0  0.74536  0.72214  0.86579  1.0000
  S   S346      1.0  0.75656  0.73588  0.94638  1.0000
  H   H1512     1.0  0.78874  0.70719  0.70521  1.0000
  S   S347      1.0  0.67629  0.54973  0.92796  1.0000
  Fe  Fe174     1.0  0.66296  0.59404  0.92196  1.0000
  S   S348      1.0  0.67543  0.58546  0.88240  1.0000
  S   S349      1.0  0.65514  0.61962  0.91628  1.0000
  Fe  Fe175     1.0  0.65448  0.55594  0.89905  1.0000
  S   S350      1.0  0.63789  0.53567  0.86649  1.0000
  Fe  Fe176     1.0  0.69623  0.58031  0.91410  1.0000
  S   S351      1.0  0.72790  0.59333  0.89422  1.0000
  S   S352      1.0  0.64055  0.56515  0.93645  1.0000
  S   S353      1.0  0.68521  0.59133  0.95252  1.0000
  Fe  Fe177     1.0  0.75950  0.72541  0.65062  1.0000
  S   S354      1.0  0.77521  0.73765  0.69074  1.0000
  Fe  Fe178     1.0  0.72443  0.69582  0.62789  1.0000
  S   S355      1.0  0.73563  0.70491  0.57945  1.0000
  S   S356      1.0  0.69588  0.67277  0.64626  1.0000
  Fe  Fe179     1.0  0.76479  0.70679  0.59471  1.0000
  S   S357      1.0  0.78624  0.69478  0.57533  1.0000
  S   S358      1.0  0.75277  0.69527  0.64262  1.0000
  Fe  Fe180     1.0  0.56895  0.62943  0.59413  1.0000
  S   S359      1.0  0.58005  0.62527  0.54876  1.0000
  S   S360      1.0  0.54503  0.60814  0.62760  1.0000
  Fe  Fe181     1.0  0.59549  0.67170  0.58783  1.0000
  S   S361      1.0  0.60898  0.67056  0.54333  1.0000
  S   S362      1.0  0.60516  0.69886  0.60958  1.0000
  H   H1513     1.0  0.95997  0.63722  0.74377  1.0000
  Fe  Fe182     1.0  0.60943  0.64281  0.56313  1.0000
  S   S363      1.0  0.63707  0.63866  0.55019  1.0000
  S   S364      1.0  0.56488  0.65629  0.57609  1.0000
  S   S365      1.0  0.59861  0.64526  0.60929  1.0000
  H   H1514     1.0  0.90028  0.55244  0.56632  1.0000
  H   H1515     1.0  0.95491  0.66563  0.72598  1.0000
  H   H1516     1.0  0.69064  0.74378  0.95816  1.0000
  C   C1266     1.0  0.57532  0.52385  0.83893  1.0000
  C   C1267     1.0  0.83918  0.70980  0.72970  1.0000
  C   C1268     1.0  0.78660  0.65141  0.97954  1.0000
  S   S366      1.0  0.54064  0.52702  0.68633  1.0000
  H   H1517     1.0  0.57583  0.69764  0.55664  1.0000
  C   C1269     1.0  0.54456  0.58595  0.64444  1.0000
  C   C1270     1.0  0.55750  0.57794  0.63417  1.0000
  C   C1271     1.0  0.55621  0.56000  0.64751  1.0000
  C   C1272     1.0  0.54216  0.54995  0.67144  1.0000
  C   C1273     1.0  0.52947  0.55810  0.68214  1.0000
  C   C1274     1.0  0.53062  0.57596  0.66856  1.0000
  H   H1518     1.0  0.56831  0.58546  0.61569  1.0000
  H   H1519     1.0  0.56612  0.55384  0.63911  1.0000
  H   H1520     1.0  0.51850  0.55050  0.70040  1.0000
  C   C1275     1.0  0.57399  0.73542  0.51549  1.0000
  C   C1276     1.0  0.68014  0.66196  0.61956  1.0000
  C   C1277     1.0  0.66041  0.65142  0.62866  1.0000
  C   C1278     1.0  0.64724  0.64386  0.60739  1.0000
  C   C1279     1.0  0.65380  0.64663  0.57706  1.0000
  C   C1280     1.0  0.67365  0.65655  0.56805  1.0000
  C   C1281     1.0  0.68680  0.66430  0.58929  1.0000
  H   H1521     1.0  0.65524  0.64942  0.65210  1.0000
  H   H1522     1.0  0.63205  0.63575  0.61448  1.0000
  H   H1523     1.0  0.67882  0.65853  0.54463  1.0000
  H   H1524     1.0  0.70208  0.67190  0.58226  1.0000
  C   C1282     1.0  0.61221  0.72114  0.58755  1.0000
  C   C1283     1.0  0.61524  0.73738  0.60184  1.0000
  H   H1525     1.0  0.61192  0.71054  0.54487  1.0000
  H   H1526     1.0  0.61398  0.73617  0.62609  1.0000
  C   C1284     1.0  0.61416  0.53233  0.85512  1.0000
  C   C1285     1.0  0.60188  0.53953  0.86980  1.0000
  C   C1286     1.0  0.58256  0.53520  0.86186  1.0000
  C   C1287     1.0  0.56487  0.70314  0.56510  1.0000
  H   H1527     1.0  0.52900  0.68322  0.52015  1.0000
  H   H1528     1.0  0.95032  0.72275  0.99473  1.0000
  H   H1529     1.0  0.60715  0.54815  0.88762  1.0000
  H   H1530     1.0  0.57307  0.54052  0.87383  1.0000
  H   H1531     1.0  0.79274  0.71878  0.65632  1.0000
  H   H1532     1.0  0.57495  0.74171  0.53618  1.0000
  H   H1533     1.0  0.90235  0.55918  0.50935  1.0000
  H   H1534     1.0  0.73091  0.62507  0.84972  1.0000
  H   H1535     1.0  0.61573  0.61651  0.66167  1.0000
  C   C1288     1.0  0.74532  0.71500  0.73307  1.0000
  C   C1289     1.0  0.73654  0.70895  0.76260  1.0000
  H   H1536     1.0  0.73777  0.70839  0.71455  1.0000
  H   H1537     1.0  0.72222  0.69770  0.76656  1.0000
  C   C1290     1.0  0.70266  0.66620  0.95528  1.0000
  C   C1291     1.0  0.69612  0.66979  0.92749  1.0000
  C   C1292     1.0  0.68050  0.65579  0.91663  1.0000
  C   C1293     1.0  0.67209  0.63777  0.93278  1.0000
  C   C1294     1.0  0.67845  0.63408  0.96077  1.0000
  C   C1295     1.0  0.69350  0.64845  0.97230  1.0000
  H   H1538     1.0  0.70315  0.68322  0.91401  1.0000
  H   H1539     1.0  0.67552  0.65866  0.89504  1.0000
  H   H1540     1.0  0.93314  0.65731  0.75045  1.0000
  H   H1541     1.0  0.96228  0.63119  0.78257  1.0000
  C   C1296     1.0  0.78362  0.61064  0.94424  1.0000
  C   C1297     1.0  0.78379  0.61915  0.91520  1.0000
  C   C1298     1.0  0.76645  0.61407  0.90047  1.0000
  C   C1299     1.0  0.74877  0.60070  0.91479  1.0000
  C   C1300     1.0  0.74852  0.59250  0.94409  1.0000
  C   C1301     1.0  0.76592  0.59735  0.95863  1.0000
  H   H1542     1.0  0.79735  0.62929  0.90381  1.0000
  H   H1543     1.0  0.76684  0.62023  0.87761  1.0000
  H   H1544     1.0  0.73510  0.58184  0.95502  1.0000
  H   H1545     1.0  0.97339  0.52630  0.67586  1.0000
  C   C1302     1.0  0.84726  0.71464  0.89378  1.0000
  C   C1303     1.0  0.85472  0.73444  0.88829  1.0000
  H   H1546     1.0  0.77194  0.73875  0.79998  1.0000
  C   C1304     1.0  0.82333  0.73501  0.90517  1.0000
  C   C1305     1.0  0.81561  0.71511  0.91028  1.0000
  C   C1306     1.0  0.82773  0.70492  0.90521  1.0000
  C   C1307     1.0  0.86345  0.71656  0.98566  1.0000
  H   H1547     1.0  0.53159  0.67508  0.55793  1.0000
  H   H1548     1.0  0.80045  0.70768  0.91853  1.0000
  H   H1549     1.0  0.82191  0.68961  0.90926  1.0000
  C   C1308     1.0  0.74598  0.71755  0.78688  1.0000
  C   C1309     1.0  0.87118  0.56078  0.53880  1.0000
  C   C1310     1.0  0.78820  0.68988  0.53771  1.0000
  H   H1550     1.0  0.57060  0.53350  0.76782  1.0000
  C   C1311     1.0  0.53742  0.71175  0.55385  1.0000
  H   H1551     1.0  0.80833  0.67602  0.54718  1.0000
  H   H1552     1.0  0.93289  0.65640  0.88689  1.0000
  H   H1553     1.0  0.87228  0.59597  0.58151  1.0000
  H   H1554     1.0  0.58951  0.58329  0.78705  1.0000
  C   C1312     1.0  0.88923  0.54583  0.51120  1.0000
  H   H1555     1.0  0.84752  0.52512  0.55741  1.0000
  C   C1313     1.0  0.77818  0.69547  0.51529  1.0000
  C   C1314     1.0  0.89679  0.61945  0.78792  1.0000
  C   C1315     1.0  0.90434  0.61028  0.80966  1.0000
  C   C1316     1.0  0.90178  0.61232  0.84018  1.0000
  C   C1317     1.0  0.89161  0.62346  0.84931  1.0000
  C   C1318     1.0  0.88396  0.63254  0.82762  1.0000
  C   C1319     1.0  0.88658  0.63055  0.79707  1.0000
  H   H1556     1.0  0.91209  0.60157  0.80300  1.0000
  H   H1557     1.0  0.90775  0.60525  0.85682  1.0000
  H   H1558     1.0  0.87614  0.64118  0.83432  1.0000
  H   H1559     1.0  0.88068  0.63768  0.78041  1.0000
  C   C1320     1.0  0.92516  0.58992  0.58434  1.0000
  C   C1321     1.0  0.93585  0.57821  0.58724  1.0000
  C   C1322     1.0  0.94282  0.57280  0.56149  1.0000
  C   C1323     1.0  0.93885  0.57878  0.53280  1.0000
  C   C1324     1.0  0.92830  0.59063  0.52990  1.0000
  C   C1325     1.0  0.92161  0.59627  0.55559  1.0000
  H   H1560     1.0  0.93855  0.57313  0.60930  1.0000
  H   H1561     1.0  0.95103  0.56368  0.56387  1.0000
  H   H1562     1.0  0.85323  0.71058  0.73705  1.0000
  H   H1563     1.0  0.91350  0.60548  0.55321  1.0000
  H   H1564     1.0  0.58019  0.60741  0.67281  1.0000
  H   H1565     1.0  0.95333  0.54477  0.68913  1.0000
  H   H1566     1.0  0.76580  0.59049  0.98090  1.0000
  C   C1326     1.0  0.95897  0.50692  0.74837  1.0000
  H   H1567     1.0  0.98922  0.53518  0.77293  1.0000
  C   C1327     1.0  0.79439  0.68461  0.65942  1.0000
  C   C1328     1.0  0.88953  0.71160  0.95833  1.0000
  H   H1568     1.0  0.91757  0.66773  0.84559  1.0000
  C   C1329     1.0  0.85672  0.58216  0.51446  1.0000
  H   H1569     1.0  0.98006  0.61816  0.63456  1.0000
  C   C1330     1.0  0.94745  0.51718  0.75568  1.0000
  H   H1570     1.0  0.78977  0.68194  0.63644  1.0000
  C   C1331     1.0  0.96058  0.65198  0.82786  1.0000
  N   N84       1.0  0.66993  0.71436  0.59414  1.0000
  C   C1332     1.0  0.65612  0.69631  0.58524  1.0000
  C   C1333     1.0  0.69005  0.71458  0.59117  1.0000
  C   C1334     1.0  0.66480  0.71454  0.62639  1.0000
  H   H1571     1.0  0.66065  0.69327  0.56312  1.0000
  H   H1572     1.0  0.65499  0.68390  0.60142  1.0000
  H   H1573     1.0  0.64115  0.69647  0.58436  1.0000
  H   H1574     1.0  0.69160  0.70291  0.60636  1.0000
  N   N85       1.0  0.55133  0.70377  0.54194  1.0000
  H   H1575     1.0  0.66514  0.70181  0.64047  1.0000
  H   H1576     1.0  0.61884  0.74167  0.51507  1.0000
  H   H1577     1.0  0.98966  0.67672  0.50533  1.0000
  N   N86       1.0  0.82612  0.58235  0.89341  1.0000
  C   C1335     1.0  0.84291  0.59225  0.87061  1.0000
  C   C1336     1.0  0.83029  0.59227  0.92055  1.0000
  C   C1337     1.0  0.82525  0.56272  0.90100  1.0000
  C   C1338     1.0  0.80713  0.58184  0.88320  1.0000
  C   C1339     1.0  0.80526  0.59014  0.85430  1.0000
  C   C1340     1.0  0.78972  0.57279  0.90250  1.0000
  C   C1341     1.0  0.78700  0.58908  0.84535  1.0000
  C   C1342     1.0  0.77155  0.57172  0.89323  1.0000
  C   C1343     1.0  0.77018  0.57982  0.86471  1.0000
  H   H1578     1.0  0.85685  0.59197  0.87877  1.0000
  H   H1579     1.0  0.84102  0.58546  0.84957  1.0000
  H   H1580     1.0  0.84531  0.60752  0.86519  1.0000
  H   H1581     1.0  0.82939  0.60647  0.91643  1.0000
  H   H1582     1.0  0.84519  0.59439  0.92755  1.0000
  H   H1583     1.0  0.81977  0.58451  0.94022  1.0000
  H   H1584     1.0  0.82155  0.55462  0.88136  1.0000
  H   H1585     1.0  0.83951  0.56260  0.90800  1.0000
  H   H1586     1.0  0.81416  0.55474  0.91988  1.0000
  H   H1587     1.0  0.81768  0.59765  0.83824  1.0000
  H   H1588     1.0  0.79004  0.56667  0.92510  1.0000
  H   H1589     1.0  0.78587  0.59561  0.82333  1.0000
  H   H1590     1.0  0.89039  0.52762  0.56372  1.0000
  N   N87       1.0  0.59997  0.50918  0.95840  1.0000
  H   H1591     1.0  0.96770  0.64336  0.63703  1.0000
  H   H1592     1.0  0.70084  0.72821  0.59680  1.0000
  Fe  Fe183     1.0  0.57870  0.65349  0.53213  1.0000
  C   C1344     1.0  0.59804  0.52721  0.96424  1.0000
  H   H1593     1.0  0.72612  0.60529  0.98315  1.0000
  N   N88       1.0  0.95891  0.65796  0.77214  1.0000
  C   C1345     1.0  0.94917  0.66588  0.74918  1.0000
  C   C1346     1.0  0.98031  0.66895  0.76683  1.0000
  C   C1347     1.0  0.95385  0.65148  0.85758  1.0000
  C   C1348     1.0  0.95201  0.65829  0.80341  1.0000
  C   C1349     1.0  0.97834  0.61930  0.61001  1.0000
  C   C1350     1.0  0.68229  0.72853  0.95653  1.0000
  H   H1594     1.0  0.81976  0.72139  0.97372  1.0000
  H   H1595     1.0  0.79687  0.71290  0.75608  1.0000
  C   C1351     1.0  0.80747  0.71101  0.74059  1.0000
  H   H1596     1.0  0.64974  0.71444  0.63006  1.0000
  H   H1597     1.0  0.55710  0.69376  0.58595  1.0000
  H   H1598     1.0  0.82902  0.71453  0.77262  1.0000
  C   C1352     1.0  0.96724  0.64487  0.61216  1.0000
  H   H1599     1.0  0.58352  0.52503  0.97525  1.0000
  H   H1600     1.0  0.98412  0.68376  0.77199  1.0000
  C   C1353     1.0  0.96628  0.52383  0.69824  1.0000
  Fe  Fe184     1.0  0.74245  0.74860  0.91200  1.0000
  H   H1601     1.0  0.98897  0.66255  0.78061  1.0000
  C   C1354     1.0  0.67191  0.73162  0.54276  1.0000
  C   C1355     1.0  0.53984  0.68390  0.53691  1.0000
  H   H1602     1.0  0.98942  0.56476  0.72552  1.0000
  H   H1603     1.0  0.80353  0.71747  0.62114  1.0000
  H   H1604     1.0  0.92542  0.59553  0.50789  1.0000
  N   N89       1.0  0.81144  0.70270  0.65888  1.0000
  H   H1605     1.0  0.80124  0.65127  0.97742  1.0000
  H   H1606     1.0  0.54501  0.72590  0.56130  1.0000
  N   N90       1.0  0.72582  0.64886  0.86450  1.0000
  C   C1356     1.0  0.71757  0.63894  0.89503  1.0000
  C   C1357     1.0  0.71446  0.66072  0.85543  1.0000
  C   C1358     1.0  0.72271  0.63437  0.84368  1.0000
  C   C1359     1.0  0.74704  0.66044  0.86313  1.0000
  C   C1360     1.0  0.75934  0.65670  0.88434  1.0000
  C   C1361     1.0  0.75634  0.67495  0.83896  1.0000
  C   C1362     1.0  0.77949  0.66725  0.88185  1.0000
  C   C1363     1.0  0.77642  0.68568  0.83705  1.0000
  C   C1364     1.0  0.78798  0.68184  0.85844  1.0000
  H   H1607     1.0  0.72091  0.64909  0.91202  1.0000
  H   H1608     1.0  0.70137  0.63150  0.89619  1.0000
  H   H1609     1.0  0.72304  0.62758  0.90189  1.0000
  H   H1610     1.0  0.71823  0.67325  0.86804  1.0000
  H   H1611     1.0  0.69839  0.65262  0.85935  1.0000
  H   H1612     1.0  0.71692  0.66606  0.83112  1.0000
  H   H1613     1.0  0.52807  0.70250  0.57378  1.0000
  H   H1614     1.0  0.70697  0.62502  0.84422  1.0000
  H   H1615     1.0  0.72776  0.64099  0.82012  1.0000
  H   H1616     1.0  0.75377  0.64551  0.90286  1.0000
  H   H1617     1.0  0.74828  0.67827  0.82122  1.0000
  H   H1618     1.0  0.78860  0.66396  0.89803  1.0000
  H   H1619     1.0  0.78299  0.69704  0.81881  1.0000
  H   H1620     1.0  0.80358  0.69010  0.85673  1.0000
  C   C1365     1.0  0.83488  0.70675  0.70014  1.0000
  H   H1621     1.0  0.93996  0.51437  0.77787  1.0000
  N   N91       1.0  0.88461  0.72488  0.97578  1.0000
  N   N92       1.0  0.68397  0.71598  0.98277  1.0000
  H   H1622     1.0  0.67493  0.72064  0.53271  1.0000
  H   H1623     1.0  0.88668  0.69781  0.97202  1.0000
  C   C1366     1.0  0.56267  0.71592  0.51451  1.0000
  C   C1367     1.0  0.86209  0.56645  0.51451  1.0000
  H   H1624     1.0  0.97229  0.64699  0.82415  1.0000
  N   N93       1.0  0.87622  0.54376  0.53846  1.0000
  H   H1625     1.0  0.79429  0.67744  0.95019  1.0000
  Fe  Fe185     1.0  0.66375  0.56136  0.96431  1.0000
  H   H1626     1.0  0.68131  0.69367  0.95531  1.0000
  C   C1368     1.0  0.86036  0.59278  0.53853  1.0000
  H   H1627     1.0  0.63380  0.60107  0.69261  1.0000
  H   H1628     1.0  0.61514  0.64472  0.50383  1.0000
  H   H1629     1.0  0.62600  0.52328  0.92843  1.0000
  H   H1630     1.0  0.81808  0.73253  0.64660  1.0000
  H   H1631     1.0  0.52053  0.58203  0.67663  1.0000
  C   C1369     1.0  0.67108  0.74680  0.52358  1.0000
  H   H1632     1.0  0.90523  0.71736  0.94974  1.0000
  C   C1370     1.0  0.57808  0.58695  0.71080  1.0000
  C   C1371     1.0  0.58808  0.60075  0.68678  1.0000
  C   C1372     1.0  0.61823  0.59713  0.69788  1.0000
  C   C1373     1.0  0.60810  0.60586  0.68038  1.0000
  H   H1633     1.0  0.56252  0.58350  0.71400  1.0000
  C   C1374     1.0  0.76371  0.72967  0.72757  1.0000
  H   H1634     1.0  0.68820  0.72564  0.93518  1.0000
  C   C1375     1.0  0.61396  0.72286  0.55619  1.0000
  H   H1635     1.0  0.83151  0.68952  0.64683  1.0000
  C   C1376     1.0  0.81658  0.70577  0.68997  1.0000
  H   H1636     1.0  0.98038  0.61514  0.75392  1.0000
  C   C1377     1.0  0.66910  0.73069  0.57440  1.0000
  C   C1378     1.0  0.85808  0.52679  0.53793  1.0000
  C   C1379     1.0  0.95499  0.53435  0.70573  1.0000
  H   H1637     1.0  0.90674  0.74959  0.95042  1.0000
  S   S367      1.0  0.73411  0.70946  0.82347  1.0000
  H   H1638     1.0  0.61682  0.57678  0.73466  1.0000
  C   C1380     1.0  0.76450  0.73207  0.78147  1.0000
  S   S368      1.0  0.93024  0.54296  0.74466  1.0000
  H   H1639     1.0  0.58245  0.50841  0.80586  1.0000
  H   H1640     1.0  0.67160  0.62022  0.97358  1.0000
  H   H1641     1.0  0.75607  0.57930  0.85794  1.0000
  C   C1381     1.0  0.77333  0.73808  0.75190  1.0000
  H   H1642     1.0  0.96032  0.64626  0.87590  1.0000
  S   S369      1.0  0.55055  0.51831  0.83099  1.0000
  C   C1382     1.0  0.58803  0.57797  0.72948  1.0000
  C   C1383     1.0  0.60706  0.52130  0.83174  1.0000
  C   C1384     1.0  0.93849  0.65730  0.86386  1.0000
  S   S370      1.0  0.73562  0.75472  0.55999  1.0000
  S   S371      1.0  0.51540  0.51847  0.77177  1.0000
  H   H1643     1.0  0.60019  0.53676  0.94290  1.0000
  H   H1644     1.0  0.60293  0.56826  0.78191  1.0000
  C   C1385     1.0  0.94536  0.53089  0.73444  1.0000
  C   C1386     1.0  0.60838  0.58332  0.72199  1.0000
  H   H1645     1.0  0.59351  0.54525  0.74610  1.0000
  C   C1387     1.0  0.70495  0.71967  0.98570  1.0000
  S   S372      1.0  0.76455  0.75165  0.87373  1.0000
  H   H1646     1.0  0.66419  0.74701  0.60933  1.0000
  H   H1647     1.0  0.65871  0.69238  0.97281  1.0000
  S   S373      1.0  0.77366  0.73720  0.60371  1.0000
  S   S374      1.0  0.73008  0.72512  0.63962  1.0000
  H   H1648     1.0  0.84612  0.70528  0.68571  1.0000
  C   C1388     1.0  0.80283  0.67660  0.50033  1.0000
  H   H1649     1.0  0.78758  0.74941  0.74781  1.0000
  H   H1650     1.0  0.98577  0.66952  0.74311  1.0000
  H   H1651     1.0  0.82286  0.69952  0.61564  1.0000
  C   C1389     1.0  0.80051  0.68041  0.53004  1.0000
  H   H1652     1.0  0.78139  0.68449  0.67288  1.0000
  C   C1390     1.0  0.82555  0.71199  0.74984  1.0000
  C   C1391     1.0  0.61783  0.74053  0.53931  1.0000
  H   H1653     1.0  0.69456  0.71298  0.56804  1.0000
  C   C1392     1.0  0.58809  0.56875  0.78291  1.0000
  H   H1654     1.0  0.75846  0.56500  0.90847  1.0000
  C   C1393     1.0  0.57838  0.54490  0.74909  1.0000
  H   H1655     1.0  0.54952  0.67680  0.52900  1.0000
  C   C1394     1.0  0.80298  0.70782  0.71123  1.0000
  C   C1395     1.0  0.93634  0.66411  0.81063  1.0000
  H   H1656     1.0  0.57118  0.54053  0.72825  1.0000
  H   H1657     1.0  0.61643  0.51565  0.82025  1.0000
  H   H1658     1.0  0.93899  0.62942  0.77055  1.0000
  H   H1659     1.0  0.57998  0.55884  0.80315  1.0000
  N   N94       1.0  0.57800  0.56344  0.75532  1.0000
  C   C1396     1.0  0.97438  0.62876  0.51600  1.0000
  C   C1397     1.0  0.84297  0.74457  0.89459  1.0000
  C   C1398     1.0  0.98544  0.66253  0.51718  1.0000
  C   C1399     1.0  0.88638  0.54023  0.56489  1.0000
  C   C1400     1.0  0.87457  0.57186  0.56311  1.0000
  C   C1401     1.0  0.76381  0.66601  0.96596  1.0000
  C   C1402     1.0  0.80627  0.71852  0.64519  1.0000
  H   H1660     1.0  0.71362  0.62065  0.99052  1.0000
  C   C1403     1.0  0.92988  0.66372  0.84047  1.0000
  H   H1661     1.0  0.66678  0.72671  0.95416  1.0000
  C   C1404     1.0  0.78268  0.66608  0.96395  1.0000
  H   H1662     1.0  0.76069  0.67739  0.95366  1.0000
  S   S375      1.0  0.80944  0.74864  0.91318  1.0000
  H   H1663     1.0  0.96978  0.61667  0.50339  1.0000
  H   H1664     1.0  0.92082  0.69827  0.97820  1.0000
  C   C1405     1.0  0.86934  0.58768  0.56273  1.0000
  C   C1406     1.0  0.89065  0.74335  0.95643  1.0000
  C   C1407     1.0  0.74885  0.65138  0.98389  1.0000
  H   H1665     1.0  0.88680  0.75389  0.96792  1.0000
  H   H1666     1.0  0.67545  0.72701  0.63539  1.0000
  H   H1667     1.0  0.87706  0.53751  0.58624  1.0000
  H   H1668     1.0  0.60898  0.53502  0.97945  1.0000
  H   H1669     1.0  0.95149  0.68087  0.75166  1.0000
  S   S376      1.0  0.98872  0.63284  0.69209  1.0000
  H   H1670     1.0  0.84058  0.71507  0.63674  1.0000
  H   H1671     1.0  0.57311  0.71733  0.57198  1.0000
  C   C1408     1.0  0.58778  0.51716  0.82353  1.0000
  C   C1409     1.0  0.55723  0.56085  0.76182  1.0000
  H   H1672     1.0  0.79777  0.67236  0.66926  1.0000
  H   H1673     1.0  0.92845  0.66857  0.79374  1.0000
  C   C1410     1.0  0.97496  0.62595  0.54715  1.0000
  Fe  Fe186     1.0  0.74341  0.73441  0.59220  1.0000
  C   C1411     1.0  0.66617  0.74625  0.58567  1.0000
  H   H1674     1.0  0.85604  0.60486  0.53860  1.0000
  C   C1412     1.0  0.95492  0.63811  0.76707  1.0000
  H   H1675     1.0  0.55584  0.57438  0.76620  1.0000
  H   H1676     1.0  0.55037  0.55046  0.78216  1.0000
  H   H1677     1.0  0.86117  0.51358  0.53864  1.0000
  H   H1678     1.0  0.54829  0.55521  0.74303  1.0000
  H   H1679     1.0  0.89448  0.53394  0.51118  1.0000
  H   H1680     1.0  0.85055  0.52759  0.51716  1.0000
  H   H1681     1.0  0.97760  0.56137  0.76246  1.0000
  C   C1413     1.0  0.82742  0.70168  0.63884  1.0000
  H   H1682     1.0  0.86970  0.74201  0.87912  1.0000
  H   H1683     1.0  0.76873  0.70283  0.52080  1.0000
  H   H1684     1.0  0.88067  0.70855  0.93869  1.0000
  H   H1685     1.0  0.71179  0.71639  0.96565  1.0000
  C   C1414     1.0  0.98593  0.65988  0.54835  1.0000
  C   C1415     1.0  0.67446  0.69608  0.97626  1.0000
  H   H1686     1.0  0.69822  0.64569  0.99411  1.0000
  H   H1687     1.0  0.98874  0.61385  0.59943  1.0000
  H   H1688     1.0  0.63056  0.52083  0.96707  1.0000
  Fe  Fe187     1.0  0.52413  0.50906  0.72966  1.0000
  H   H1689     1.0  0.88379  0.74171  0.93470  1.0000
  H   H1690     1.0  0.67601  0.68582  0.99441  1.0000
  H   H1691     1.0  0.85411  0.73625  0.95715  1.0000
  H   H1692     1.0  0.95216  0.63590  0.60718  1.0000
  N   N95       1.0  0.98205  0.63912  0.59725  1.0000
  H   H1693     1.0  0.96951  0.65990  0.60492  1.0000
  S   S377      1.0  0.94756  0.57141  0.50116  1.0000
  C   C1416     1.0  0.96831  0.51009  0.71956  1.0000
  C   C1417     1.0  0.84982  0.72401  0.97390  1.0000
  C   C1418     1.0  0.62099  0.51360  0.94985  1.0000
  H   H1694     1.0  0.73448  0.65199  0.98471  1.0000
  H   H1695     1.0  0.71366  0.73472  0.98796  1.0000
  C   C1419     1.0  0.61942  0.75513  0.58494  1.0000
  C   C1420     1.0  0.98101  0.64151  0.56430  1.0000
  C   C1421     1.0  0.82985  0.71547  0.98316  1.0000
  C   C1422     1.0  0.97971  0.64701  0.50106  1.0000
  C   C1423     1.0  0.99169  0.56907  0.74846  1.0000
  H   H1696     1.0  0.99028  0.67237  0.55986  1.0000
  H   H1697     1.0  0.90160  0.62662  0.49660  1.0000
  H   H1698     1.0  0.91239  0.73502  0.99541  1.0000
  H   H1699     1.0  0.50590  0.93866  0.20566  1.0000
  C   C1424     1.0  0.70549  0.88436  0.46860  1.0000
  H   H1700     1.0  0.76621  0.91935  0.12788  1.0000
  H   H1701     1.0  0.66079  0.85900  0.16814  1.0000
  H   H1702     1.0  0.58628  0.97034  0.31468  1.0000
  H   H1703     1.0  0.67927  0.75992  0.15378  1.0000
  H   H1704     1.0  0.77728  0.99297  0.27302  1.0000
  C   C1425     1.0  0.56694  0.85715  0.99933  1.0000
  S   S378      1.0  0.50728  0.96958  0.24075  1.0000
  Fe  Fe188     1.0  0.53629  0.96724  0.24710  1.0000
  S   S379      1.0  0.55175  0.95046  0.22512  1.0000
  H   H1705     1.0  0.65844  0.86440  0.11398  1.0000
  S   S380      1.0  0.52902  0.95878  0.29670  1.0000
  N   N96       1.0  0.63593  0.86195  0.14777  1.0000
  Fe  Fe189     1.0  0.65596  0.78296  0.10876  1.0000
  S   S381      1.0  0.66104  0.78512  0.05844  1.0000
  Fe  Fe190     1.0  0.68079  0.82599  0.10788  1.0000
  S   S382      1.0  0.68835  0.83003  0.05839  1.0000
  S   S383      1.0  0.68933  0.85171  0.13361  1.0000
  Fe  Fe191     1.0  0.65643  0.81268  0.05704  1.0000
  S   S384      1.0  0.64151  0.82581  0.02389  1.0000
  Fe  Fe192     1.0  0.69229  0.80219  0.06488  1.0000
  S   S385      1.0  0.71791  0.79492  0.04867  1.0000
  S   S386      1.0  0.64854  0.80917  0.10657  1.0000
  S   S387      1.0  0.68754  0.79951  0.11518  1.0000
  H   H1706     1.0  0.68322  0.95460  0.02693  1.0000
  C   C1426     1.0  0.65238  0.92258  0.14393  1.0000
  Fe  Fe193     1.0  0.73895  0.96222  0.08317  1.0000
  S   S388      1.0  0.72808  0.96328  0.12987  1.0000
  S   S389      1.0  0.73848  0.93483  0.06706  1.0000
  Fe  Fe194     1.0  0.71254  0.98049  0.10753  1.0000
  S   S390      1.0  0.68196  0.97527  0.12496  1.0000
  Fe  Fe195     1.0  0.75340  0.99121  0.12704  1.0000
  H   H1707     1.0  0.65973  0.90300  0.43916  1.0000
  S   S391      1.0  0.72148  0.97745  0.06076  1.0000
  S   S392      1.0  0.76596  0.98912  0.08150  1.0000
  Fe  Fe196     1.0  0.58408  0.88945  0.05916  1.0000
  S   S393      1.0  0.69042  0.85998  0.47555  1.0000
  S   S394      1.0  0.58783  0.86355  0.08240  1.0000
  Fe  Fe197     1.0  0.56261  0.91627  0.06704  1.0000
  S   S395      1.0  0.57409  0.93225  0.02108  1.0000
  S   S396      1.0  0.54172  0.92541  0.09429  1.0000
  H   H1708     1.0  0.64498  0.92727  0.44479  1.0000
  C   C1427     1.0  0.65642  0.89386  0.16419  1.0000
  Fe  Fe198     1.0  0.60259  0.93075  0.03303  1.0000
  S   S397      1.0  0.63035  0.95564  0.01750  1.0000
  S   S398      1.0  0.55392  0.88789  0.04969  1.0000
  S   S399      1.0  0.59169  0.91648  0.08012  1.0000
  Fe  Fe199     1.0  0.74313  0.96561  0.40480  1.0000
  S   S400      1.0  0.72048  0.95347  0.37302  1.0000
  S   S401      1.0  0.74404  0.94783  0.44808  1.0000
  Fe  Fe200     1.0  0.71400  0.97962  0.37534  1.0000
  Fe  Fe201     1.0  0.74397  0.97125  0.33694  1.0000
  S   S402      1.0  0.74489  0.95760  0.29477  1.0000
  S   S403      1.0  0.73497  0.99081  0.40973  1.0000
  S   S404      1.0  0.76752  0.98201  0.36863  1.0000
  C   C1428     1.0  0.76349  0.99138  0.20128  1.0000
  Fe  Fe202     1.0  0.74732  0.00457  0.06297  1.0000
  C   C1429     1.0  0.76838  0.98823  0.25467  1.0000
  C   C1430     1.0  0.75118  0.97199  0.25981  1.0000
  C   C1431     1.0  0.73991  0.96585  0.23579  1.0000
  C   C1432     1.0  0.74588  0.97564  0.20676  1.0000
  H   H1709     1.0  0.71521  0.89733  0.24849  1.0000
  H   H1710     1.0  0.66059  0.88857  0.06992  1.0000
  H   H1711     1.0  0.72659  0.95332  0.23959  1.0000
  H   H1712     1.0  0.73697  0.97073  0.18865  1.0000
  C   C1433     1.0  0.66694  0.97373  0.09547  1.0000
  C   C1434     1.0  0.67509  0.98090  0.06609  1.0000
  C   C1435     1.0  0.66339  0.97658  0.04203  1.0000
  C   C1436     1.0  0.64356  0.96506  0.04744  1.0000
  C   C1437     1.0  0.63509  0.95944  0.07691  1.0000
  C   C1438     1.0  0.64677  0.96378  0.10096  1.0000
  H   H1713     1.0  0.69043  0.98965  0.06188  1.0000
  H   H1714     1.0  0.66987  0.98150  0.01924  1.0000
  H   H1715     1.0  0.61960  0.95165  0.08121  1.0000
  H   H1716     1.0  0.64023  0.95892  0.12373  1.0000
  C   C1439     1.0  0.70241  0.87476  0.11435  1.0000
  C   C1440     1.0  0.70226  0.89075  0.12717  1.0000
  C   C1441     1.0  0.71289  0.90923  0.11275  1.0000
  C   C1442     1.0  0.72401  0.91191  0.08548  1.0000
  C   C1443     1.0  0.72411  0.89593  0.07270  1.0000
  C   C1444     1.0  0.71335  0.87748  0.08698  1.0000
  H   H1717     1.0  0.69403  0.88886  0.14846  1.0000
  H   H1718     1.0  0.71269  0.92137  0.12297  1.0000
  H   H1719     1.0  0.73267  0.89781  0.05167  1.0000
  H   H1720     1.0  0.71392  0.86540  0.07703  1.0000
  C   C1445     1.0  0.60275  0.85338  0.06535  1.0000
  C   C1446     1.0  0.61542  0.86262  0.03979  1.0000
  C   C1447     1.0  0.62735  0.85413  0.02720  1.0000
  C   C1448     1.0  0.62693  0.83656  0.04039  1.0000
  C   C1449     1.0  0.61447  0.82748  0.06617  1.0000
  C   C1450     1.0  0.60231  0.83579  0.07846  1.0000
  H   H1721     1.0  0.61606  0.87627  0.02969  1.0000
  H   H1722     1.0  0.80225  0.94390  0.15102  1.0000
  H   H1723     1.0  0.61383  0.81379  0.07620  1.0000
  H   H1724     1.0  0.59249  0.82853  0.09816  1.0000
  C   C1451     1.0  0.55097  0.94580  0.18727  1.0000
  C   C1452     1.0  0.54052  0.95262  0.16711  1.0000
  C   C1453     1.0  0.53823  0.94665  0.13835  1.0000
  C   C1454     1.0  0.54695  0.93436  0.12912  1.0000
  C   C1455     1.0  0.55820  0.92827  0.14879  1.0000
  C   C1456     1.0  0.56006  0.93385  0.17782  1.0000
  H   H1725     1.0  0.53386  0.96221  0.17382  1.0000
  H   H1726     1.0  0.52964  0.95155  0.12315  1.0000
  H   H1727     1.0  0.56490  0.91873  0.14200  1.0000
  H   H1728     1.0  0.56825  0.92855  0.19321  1.0000
  C   C1457     1.0  0.72208  0.91246  0.43216  1.0000
  C   C1458     1.0  0.72924  0.92335  0.45539  1.0000
  H   H1729     1.0  0.60114  0.97050  0.23438  1.0000
  C   C1459     1.0  0.61433  0.85238  0.15312  1.0000
  C   C1460     1.0  0.66827  0.99842  0.46461  1.0000
  H   H1730     1.0  0.75318  0.93525  0.12525  1.0000
  H   H1731     1.0  0.53959  0.82061  0.01050  1.0000
  N   N97       1.0  0.77187  0.93880  0.16149  1.0000
  C   C1461     1.0  0.74668  0.87302  0.45983  1.0000
  H   H1732     1.0  0.78616  0.96819  0.14195  1.0000
  H   H1733     1.0  0.63705  0.86126  0.00730  1.0000
  H   H1734     1.0  0.77858  0.94355  0.11321  1.0000
  H   H1735     1.0  0.62234  0.88529  0.11254  1.0000
  H   H1736     1.0  0.72573  0.91896  0.40909  1.0000
  H   H1737     1.0  0.63970  0.83785  0.17212  1.0000
  H   H1738     1.0  0.64038  0.85631  0.19433  1.0000
  H   H1739     1.0  0.73893  0.90543  0.15794  1.0000
  C   C1462     1.0  0.68697  0.94252  0.02097  1.0000
  S   S405      1.0  0.51516  0.99428  0.29951  1.0000
  C   C1463     1.0  0.77572  0.95930  0.16110  1.0000
  C   C1464     1.0  0.68791  0.87605  0.02058  1.0000
  S   S406      1.0  0.55196  0.99809  0.25144  1.0000
  H   H1740     1.0  0.77269  0.92068  0.44940  1.0000
  C   C1465     1.0  0.71255  0.89526  0.49187  1.0000
  C   C1466     1.0  0.69150  0.94175  0.46571  1.0000
  C   C1467     1.0  0.78995  0.93565  0.16820  1.0000
  S   S407      1.0  0.59785  0.90372  0.01345  1.0000
  H   H1741     1.0  0.49865  0.93327  0.16924  1.0000
  C   C1468     1.0  0.68201  0.92920  0.07256  1.0000
  H   H1742     1.0  0.60882  0.85640  0.17376  1.0000
  C   C1469     1.0  0.63830  0.91223  0.12606  1.0000
  C   C1470     1.0  0.63322  0.89264  0.12708  1.0000
  H   H1743     1.0  0.65621  0.93771  0.14335  1.0000
  Fe  Fe203     1.0  0.50136  0.96390  0.29060  1.0000
  H   H1744     1.0  0.70304  0.76047  0.14469  1.0000
  H   H1745     1.0  0.66668  0.86070  0.05716  1.0000
  H   H1746     1.0  0.73734  0.83364  0.46888  1.0000
  C   C1471     1.0  0.68270  0.99078  0.46320  1.0000
  S   S408      1.0  0.56617  0.99312  0.33630  1.0000
  H   H1747     1.0  0.78223  0.96520  0.18152  1.0000
  C   C1472     1.0  0.66196  0.99291  0.41316  1.0000
  C   C1473     1.0  0.64182  0.88276  0.14668  1.0000
  S   S409      1.0  0.73527  0.99625  0.33659  1.0000
  H   H1748     1.0  0.71587  0.83839  0.47980  1.0000
  C   C1474     1.0  0.75657  0.93228  0.21462  1.0000
  C   C1475     1.0  0.63656  0.98090  0.26294  1.0000
  H   H1749     1.0  0.60492  0.00499  0.30520  1.0000
  C   C1476     1.0  0.72020  0.78750  0.01320  1.0000
  N   N98       1.0  0.67174  0.92763  0.46245  1.0000
  H   H1750     1.0  0.63121  0.91945  0.11149  1.0000
  C   C1477     1.0  0.75606  0.92737  0.18492  1.0000
  H   H1751     1.0  0.67270  0.92176  0.17619  1.0000
  H   H1752     1.0  0.78034  0.82145  0.01059  1.0000
  Fe  Fe204     1.0  0.52213  0.99987  0.24941  1.0000
  H   H1753     1.0  0.68144  0.92116  0.42032  1.0000
  H   H1754     1.0  0.69750  0.76656  0.18054  1.0000
  H   H1755     1.0  0.71395  0.88733  0.19752  1.0000
  C   C1478     1.0  0.71052  0.89299  0.43874  1.0000
  C   C1479     1.0  0.74035  0.91064  0.17951  1.0000
  C   C1480     1.0  0.74192  0.92157  0.23712  1.0000
  C   C1481     1.0  0.72653  0.90552  0.23093  1.0000
  H   H1756     1.0  0.76820  0.94451  0.22088  1.0000
  N   N99       1.0  0.60434  0.98512  0.27376  1.0000
  C   C1482     1.0  0.72581  0.89999  0.20224  1.0000
  C   C1483     1.0  0.76721  0.93395  0.13076  1.0000
  H   H1757     1.0  0.51248  0.90758  0.17552  1.0000
  H   H1758     1.0  0.66404  0.88776  0.17937  1.0000
  H   H1759     1.0  0.65902  0.94910  0.45839  1.0000
  H   H1760     1.0  0.69089  0.99014  0.48242  1.0000
  C   C1484     1.0  0.67449  0.87446  0.04432  1.0000
  C   C1485     1.0  0.65778  0.99935  0.43970  1.0000
  H   H1761     1.0  0.67005  0.97745  0.31083  1.0000
  H   H1762     1.0  0.57810  0.85634  0.01468  1.0000
  H   H1763     1.0  0.63818  0.84206  0.11842  1.0000
  H   H1764     1.0  0.74243  0.77698  0.02605  1.0000
  H   H1765     1.0  0.51872  0.91348  0.21187  1.0000
  H   H1766     1.0  0.79479  0.94004  0.19037  1.0000
  H   H1767     1.0  0.58818  0.98595  0.23492  1.0000
  H   H1768     1.0  0.63492  0.98085  0.23918  1.0000
  H   H1769     1.0  0.60654  0.85598  0.13430  1.0000
  H   H1770     1.0  0.68341  0.90680  0.45260  1.0000
  H   H1771     1.0  0.58646  0.95556  0.28601  1.0000
  C   C1486     1.0  0.58689  0.96982  0.29006  1.0000
  C   C1487     1.0  0.75528  0.89156  0.44526  1.0000
  H   H1772     1.0  0.74248  0.92591  0.25949  1.0000
  C   C1488     1.0  0.65355  0.97904  0.27286  1.0000
  H   H1773     1.0  0.69836  0.97906  0.43534  1.0000
  H   H1774     1.0  0.56358  0.82231  0.01662  1.0000
  H   H1775     1.0  0.69035  0.86360  0.01503  1.0000
  C   C1489     1.0  0.50655  0.90473  0.19950  1.0000
  H   H1776     1.0  0.59424  0.99352  0.37865  1.0000
  H   H1777     1.0  0.69799  0.93296  0.07394  1.0000
  Fe  Fe205     1.0  0.56830  0.90403  0.00493  1.0000
  C   C1490     1.0  0.66158  0.91348  0.16263  1.0000
  C   C1491     1.0  0.68719  0.98482  0.43640  1.0000
  H   H1778     1.0  0.65148  0.93310  0.04533  1.0000
  H   H1779     1.0  0.73730  0.86260  0.44697  1.0000
  C   C1492     1.0  0.67704  0.98608  0.41125  1.0000
  H   H1780     1.0  0.65025  0.91694  0.01854  1.0000
  H   H1781     1.0  0.64593  0.98054  0.34725  1.0000
  H   H1782     1.0  0.69097  0.95375  0.47725  1.0000
  Fe  Fe206     1.0  0.54377  0.98987  0.30124  1.0000
  C   C1493     1.0  0.73380  0.77902  0.00814  1.0000
  H   H1783     1.0  0.57306  0.97089  0.28282  1.0000
  C   C1494     1.0  0.65519  0.92072  0.04096  1.0000
  H   H1784     1.0  0.64607  0.90892  0.05808  1.0000
  C   C1495     1.0  0.67107  0.89042  0.05135  1.0000
  S   S410      1.0  0.68349  0.97967  0.37721  1.0000
  H   H1785     1.0  0.61954  0.76235  0.17507  1.0000
  H   H1786     1.0  0.60953  0.83665  0.15557  1.0000
  C   C1496     1.0  0.67408  0.91398  0.44283  1.0000
  H   H1787     1.0  0.78765  0.92038  0.16886  1.0000
  C   C1497     1.0  0.64227  0.85758  0.11870  1.0000
  H   H1788     1.0  0.66685  0.94387  0.42365  1.0000
  C   C1498     1.0  0.64457  0.85352  0.17175  1.0000
  C   C1499     1.0  0.66014  0.93736  0.44675  1.0000
  C   C1500     1.0  0.76673  0.90621  0.46050  1.0000
  H   H1789     1.0  0.61411  0.99605  0.22721  1.0000
  H   H1790     1.0  0.67855  0.94138  0.07909  1.0000
  C   C1501     1.0  0.65689  0.97895  0.30316  1.0000
  C   C1502     1.0  0.62235  0.98280  0.28335  1.0000
  H   H1791     1.0  0.61622  0.98422  0.33086  1.0000
  H   H1792     1.0  0.70522  0.88463  0.42060  1.0000
  H   H1793     1.0  0.70312  0.94719  0.02162  1.0000
  H   H1794     1.0  0.67439  0.91696  0.08992  1.0000
  C   C1503     1.0  0.77460  0.99779  0.22542  1.0000
  H   H1795     1.0  0.63551  0.86252  0.09973  1.0000
  H   H1796     1.0  0.75245  0.89476  0.42228  1.0000
  C   C1504     1.0  0.64327  0.98074  0.32370  1.0000
  H   H1797     1.0  0.76198  0.96192  0.15921  1.0000
  N   N100      1.0  0.67646  0.92501  0.04196  1.0000
  C   C1505     1.0  0.72462  0.91460  0.48523  1.0000
  H   H1798     1.0  0.50352  0.88960  0.20750  1.0000
  H   H1799     1.0  0.70003  0.94791  0.44360  1.0000
  C   C1506     1.0  0.68094  0.90851  0.03463  1.0000
  C   C1507     1.0  0.72827  0.83492  0.48829  1.0000
  C   C1508     1.0  0.62629  0.98272  0.31406  1.0000
  H   H1800     1.0  0.70016  0.93517  0.47916  1.0000
  C   C1509     1.0  0.76999  0.90234  0.49028  1.0000
  C   C1510     1.0  0.60202  0.98439  0.24114  1.0000
  H   H1801     1.0  0.55393  0.85649  0.01350  1.0000
  C   C1511     1.0  0.74964  0.86858  0.49030  1.0000
  H   H1802     1.0  0.66424  0.97766  0.25693  1.0000
  H   H1803     1.0  0.65387  0.99378  0.39397  1.0000
  H   H1804     1.0  0.64652  0.00520  0.44080  1.0000
  C   C1512     1.0  0.49376  0.92956  0.19361  1.0000
  H   H1805     1.0  0.59364  0.76197  0.49152  1.0000
  C   C1513     1.0  0.69499  0.90975  0.01107  1.0000
  H   H1806     1.0  0.68311  0.94053  0.99753  1.0000
  C   C1514     1.0  0.60457  0.00374  0.28079  1.0000
  S   S411      1.0  0.77259  0.00235  0.16428  1.0000
  C   C1515     1.0  0.69829  0.89368  0.00421  1.0000
  H   H1807     1.0  0.50845  0.92344  0.25182  1.0000
  H   H1808     1.0  0.49599  0.91792  0.30440  1.0000
  H   H1809     1.0  0.66023  0.88948  0.48881  1.0000
  C   C1516     1.0  0.49349  0.91374  0.25774  1.0000
  C   C1517     1.0  0.66211  0.91862  0.49264  1.0000
  H   H1810     1.0  0.70370  0.92295  0.99764  1.0000
  C   C1518     1.0  0.55404  0.82330  0.99854  1.0000
  H   H1811     1.0  0.66425  0.75759  0.19924  1.0000
  H   H1812     1.0  0.68132  0.75711  0.05137  1.0000
  C   C1519     1.0  0.69148  0.75675  0.16355  1.0000
  H   H1813     1.0  0.59365  0.83383  0.99669  1.0000
  Fe  Fe207     1.0  0.75699  0.00621  0.37101  1.0000
  H   H1814     1.0  0.59120  0.00606  0.27414  1.0000
  H   H1815     1.0  0.94326  0.75661  0.31411  1.0000
  H   H1816     1.0  0.75238  0.83015  0.99762  1.0000
  C   C1520     1.0  0.57972  0.84422  0.96074  1.0000
  H   H1817     1.0  0.64657  0.93044  0.55812  1.0000
  H   H1818     1.0  0.62119  0.82492  0.74793  1.0000
  Fe  Fe208     1.0  0.65188  0.84072  0.57950  1.0000
  S   S412      1.0  0.64374  0.83460  0.53277  1.0000
  S   S413      1.0  0.64288  0.86141  0.60331  1.0000
  Fe  Fe209     1.0  0.68120  0.82144  0.57813  1.0000
  S   S414      1.0  0.67569  0.81438  0.53146  1.0000
  S   S415      1.0  0.70197  0.81332  0.60673  1.0000
  Fe  Fe210     1.0  0.67603  0.84383  0.52096  1.0000
  H   H1819     1.0  0.64545  0.87634  0.53909  1.0000
  Fe  Fe211     1.0  0.64412  0.80567  0.54729  1.0000
  S   S416      1.0  0.62401  0.77840  0.53178  1.0000
  S   S417      1.0  0.68425  0.85173  0.56659  1.0000
  S   S418      1.0  0.64950  0.81097  0.59503  1.0000
  H   H1820     1.0  0.56430  0.95753  0.68830  1.0000
  C   C1521     1.0  0.61482  0.84955  0.92616  1.0000
  H   H1821     1.0  0.62203  0.00415  0.76894  1.0000
  H   H1822     1.0  0.59057  0.93071  0.84554  1.0000
  Fe  Fe212     1.0  0.58783  0.87088  0.74533  1.0000
  S   S419      1.0  0.61263  0.89531  0.75941  1.0000
  S   S420      1.0  0.59058  0.84552  0.72628  1.0000
  Fe  Fe213     1.0  0.55754  0.88748  0.76232  1.0000
  S   S421      1.0  0.57970  0.91300  0.77819  1.0000
  S   S422      1.0  0.52651  0.88416  0.75520  1.0000
  Fe  Fe214     1.0  0.59805  0.91350  0.73698  1.0000
  S   S423      1.0  0.61129  0.94023  0.70506  1.0000
  Fe  Fe215     1.0  0.59202  0.89255  0.79963  1.0000
  S   S424      1.0  0.60468  0.89597  0.84466  1.0000
  S   S425      1.0  0.57510  0.88942  0.71955  1.0000
  S   S426      1.0  0.56814  0.86660  0.78732  1.0000
  C   C1522     1.0  0.59033  0.89625  0.87678  1.0000
  C   C1523     1.0  0.59933  0.90068  0.90340  1.0000
  C   C1524     1.0  0.58839  0.90100  0.92949  1.0000
  C   C1525     1.0  0.56832  0.89680  0.92920  1.0000
  C   C1526     1.0  0.55931  0.89246  0.90250  1.0000
  C   C1527     1.0  0.57029  0.89224  0.87631  1.0000
  H   H1823     1.0  0.61484  0.90382  0.90393  1.0000
  H   H1824     1.0  0.50146  0.90147  0.72902  1.0000
  H   H1825     1.0  0.54377  0.88919  0.90211  1.0000
  H   H1826     1.0  0.56322  0.88883  0.85586  1.0000
  C   C1528     1.0  0.62738  0.95836  0.72278  1.0000
  C   C1529     1.0  0.63397  0.95425  0.75032  1.0000
  C   C1530     1.0  0.64617  0.96906  0.76492  1.0000
  H   H1827     1.0  0.64134  0.97472  0.88955  1.0000
  C   C1531     1.0  0.63307  0.97716  0.70979  1.0000
  H   H1828     1.0  0.62981  0.93969  0.76023  1.0000
  H   H1829     1.0  0.62804  0.98037  0.68843  1.0000
  C   C1532     1.0  0.51932  0.90229  0.76601  1.0000
  C   C1533     1.0  0.50657  0.90802  0.74893  1.0000
  C   C1534     1.0  0.72568  0.77634  0.95651  1.0000
  C   C1535     1.0  0.72596  0.77051  0.57388  1.0000
  H   H1830     1.0  0.79718  0.81030  0.97342  1.0000
  C   C1536     1.0  0.53953  0.85393  0.68254  1.0000
  C   C1537     1.0  0.52190  0.81990  0.69559  1.0000
  H   H1831     1.0  0.62823  0.85163  0.91297  1.0000
  C   C1538     1.0  0.62843  0.85642  0.63770  1.0000
  C   C1539     1.0  0.61837  0.83788  0.65157  1.0000
  C   C1540     1.0  0.60667  0.83466  0.67864  1.0000
  C   C1541     1.0  0.60514  0.84992  0.69212  1.0000
  C   C1542     1.0  0.61531  0.86843  0.67833  1.0000
  C   C1543     1.0  0.62683  0.87164  0.65118  1.0000
  H   H1832     1.0  0.61940  0.82606  0.64127  1.0000
  H   H1833     1.0  0.59885  0.82031  0.68924  1.0000
  H   H1834     1.0  0.61425  0.88028  0.68854  1.0000
  H   H1835     1.0  0.63457  0.88601  0.64060  1.0000
  C   C1544     1.0  0.62681  0.96695  0.90032  1.0000
  H   H1836     1.0  0.56007  0.94515  0.77131  1.0000
  N   N101      1.0  0.56397  0.96563  0.73283  1.0000
  H   H1837     1.0  0.71890  0.83564  0.54483  1.0000
  C   C1545     1.0  0.61119  0.95677  0.88367  1.0000
  H   H1838     1.0  0.49954  0.84107  0.69013  1.0000
  C   C1546     1.0  0.71086  0.79661  0.59398  1.0000
  C   C1547     1.0  0.71046  0.79335  0.56392  1.0000
  C   C1548     1.0  0.71806  0.78046  0.55388  1.0000
  C   C1549     1.0  0.60577  0.95698  0.94652  1.0000
  C   C1550     1.0  0.72626  0.77360  0.60406  1.0000
  C   C1551     1.0  0.71887  0.78675  0.61401  1.0000
  H   H1839     1.0  0.70433  0.80073  0.54828  1.0000
  C   C1552     1.0  0.57016  0.86668  0.64977  1.0000
  S   S427      1.0  0.51327  0.99710  0.75815  1.0000
  H   H1840     1.0  0.71939  0.78924  0.63729  1.0000
  C   C1553     1.0  0.65800  0.92971  0.51353  1.0000
  C   C1554     1.0  0.71205  0.78478  0.96158  1.0000
  H   H1841     1.0  0.50768  0.98480  0.82638  1.0000
  H   H1842     1.0  0.65166  0.96599  0.78589  1.0000
  H   H1843     1.0  0.58012  0.93776  0.88966  1.0000
  H   H1844     1.0  0.70371  0.78721  0.94349  1.0000
  C   C1555     1.0  0.54584  0.84337  0.96165  1.0000
  C   C1556     1.0  0.57245  0.96924  0.70132  1.0000
  H   H1845     1.0  0.54104  0.97520  0.71984  1.0000
  H   H1846     1.0  0.57315  0.85739  0.91892  1.0000
  C   C1557     1.0  0.70917  0.79018  0.98989  1.0000
  H   H1847     1.0  0.52580  0.82882  0.75203  1.0000
  N   N102      1.0  0.67342  0.83266  0.67760  1.0000
  C   C1558     1.0  0.69349  0.83698  0.68690  1.0000
  C   C1559     1.0  0.66444  0.81190  0.67602  1.0000
  C   C1560     1.0  0.67474  0.84233  0.64687  1.0000
  C   C1561     1.0  0.66229  0.83954  0.69855  1.0000
  C   C1562     1.0  0.66859  0.85919  0.70149  1.0000
  C   C1563     1.0  0.64503  0.82726  0.71629  1.0000
  C   C1564     1.0  0.65806  0.86614  0.72042  1.0000
  C   C1565     1.0  0.63471  0.83437  0.73534  1.0000
  C   C1566     1.0  0.64114  0.85375  0.73727  1.0000
  H   H1848     1.0  0.69314  0.83038  0.71025  1.0000
  H   H1849     1.0  0.70209  0.83152  0.67194  1.0000
  H   H1850     1.0  0.70189  0.85247  0.68602  1.0000
  H   H1851     1.0  0.64943  0.80775  0.66831  1.0000
  H   H1852     1.0  0.66379  0.80357  0.69806  1.0000
  H   H1853     1.0  0.67303  0.80729  0.65970  1.0000
  H   H1854     1.0  0.68271  0.85792  0.64501  1.0000
  H   H1855     1.0  0.68262  0.83713  0.63043  1.0000
  H   H1856     1.0  0.65991  0.83985  0.63944  1.0000
  H   H1857     1.0  0.68154  0.86941  0.68875  1.0000
  H   H1858     1.0  0.63892  0.81215  0.71547  1.0000
  H   H1859     1.0  0.66280  0.88125  0.72165  1.0000
  C   C1567     1.0  0.66778  0.76162  0.53533  1.0000
  H   H1860     1.0  0.54227  0.83312  0.94481  1.0000
  H   H1861     1.0  0.49608  0.00136  0.81802  1.0000
  C   C1568     1.0  0.66317  0.98331  0.64968  1.0000
  S   S428      1.0  0.55393  0.89612  0.96197  1.0000
  H   H1862     1.0  0.77872  0.91386  0.50213  1.0000
  C   C1569     1.0  0.59274  0.94647  0.90002  1.0000
  H   H1863     1.0  0.81246  0.83229  0.90277  1.0000
  H   H1864     1.0  0.78887  0.79871  0.86918  1.0000
  C   C1570     1.0  0.59529  0.98547  0.75318  1.0000
  H   H1865     1.0  0.59976  0.94666  0.81200  1.0000
  H   H1866     1.0  0.54955  0.85789  0.94983  1.0000
  C   C1571     1.0  0.50637  0.93030  0.78373  1.0000
  H   H1867     1.0  0.74705  0.76697  0.97640  1.0000
  C   C1572     1.0  0.75389  0.82447  0.95184  1.0000
  C   C1573     1.0  0.60059  0.85498  0.91328  1.0000
  C   C1574     1.0  0.59671  0.94605  0.83664  1.0000
  H   H1868     1.0  0.54944  0.83763  0.73172  1.0000
  C   C1575     1.0  0.62046  0.75670  0.55360  1.0000
  C   C1576     1.0  0.58330  0.85245  0.93021  1.0000
  H   H1869     1.0  0.53866  0.85382  0.74200  1.0000
  C   C1577     1.0  0.53537  0.83975  0.73399  1.0000
  C   C1578     1.0  0.78530  0.81432  0.96649  1.0000
  H   H1870     1.0  0.49678  0.82891  0.72735  1.0000
  C   C1579     1.0  0.55718  0.85267  0.67120  1.0000
  H   H1871     1.0  0.63265  0.85920  0.75128  1.0000
  N   N103      1.0  0.78912  0.80518  0.91501  1.0000
  C   C1580     1.0  0.78698  0.78564  0.92666  1.0000
  C   C1581     1.0  0.78113  0.80439  0.88513  1.0000
  C   C1582     1.0  0.81025  0.81729  0.91040  1.0000
  C   C1583     1.0  0.77921  0.81263  0.93697  1.0000
  C   C1584     1.0  0.62884  0.94729  0.84625  1.0000
  H   H1872     1.0  0.51058  0.80846  0.71111  1.0000
  C   C1585     1.0  0.65111  0.98793  0.75266  1.0000
  H   H1873     1.0  0.72157  0.82056  0.50132  1.0000
  C   C1586     1.0  0.77582  0.82075  0.98794  1.0000
  H   H1874     1.0  0.77125  0.77638  0.93118  1.0000
  H   H1875     1.0  0.79372  0.77923  0.91044  1.0000
  H   H1876     1.0  0.51662  0.81932  0.67271  1.0000
  H   H1877     1.0  0.52376  0.93073  0.82120  1.0000
  C   C1587     1.0  0.64947  0.92169  0.54249  1.0000
  H   H1878     1.0  0.53497  0.81599  0.69519  1.0000
  H   H1879     1.0  0.81787  0.81712  0.93118  1.0000
  H   H1880     1.0  0.56144  0.84111  0.67942  1.0000
  H   H1881     1.0  0.62978  0.94406  0.82279  1.0000
  C   C1588     1.0  0.49952  0.99271  0.83659  1.0000
  H   H1882     1.0  0.56873  0.99877  0.61751  1.0000
  H   H1883     1.0  0.66679  0.77322  0.52048  1.0000
  H   H1884     1.0  0.73477  0.85916  0.54875  1.0000
  C   C1589     1.0  0.51269  0.99115  0.88405  1.0000
  N   N104      1.0  0.74013  0.84930  0.50695  1.0000
  H   H1885     1.0  0.81799  0.81237  0.89326  1.0000
  C   C1590     1.0  0.56620  0.88255  0.63946  1.0000
  H   H1886     1.0  0.52029  0.99886  0.90249  1.0000
  H   H1887     1.0  0.53541  0.90624  0.80531  1.0000
  C   C1591     1.0  0.59477  0.83931  0.97331  1.0000
  C   C1592     1.0  0.56493  0.94768  0.74697  1.0000
  H   H1888     1.0  0.63848  0.89628  0.57412  1.0000
  H   H1889     1.0  0.73250  0.76613  0.61961  1.0000
  H   H1890     1.0  0.62441  0.93351  0.86088  1.0000
  C   C1593     1.0  0.52576  0.91074  0.79183  1.0000
  C   C1594     1.0  0.51907  0.92451  0.80089  1.0000
  C   C1595     1.0  0.60654  0.00092  0.76733  1.0000
  H   H1891     1.0  0.58796  0.97049  0.69969  1.0000
  H   H1892     1.0  0.64386  0.95617  0.85125  1.0000
  C   C1596     1.0  0.54299  0.96280  0.73225  1.0000
  H   H1893     1.0  0.55224  0.81155  0.98475  1.0000
  H   H1894     1.0  0.76543  0.79473  0.88671  1.0000
  H   H1895     1.0  0.57648  0.89354  0.62327  1.0000
  C   C1597     1.0  0.59017  0.94671  0.93097  1.0000
  C   C1598     1.0  0.54926  0.88449  0.65060  1.0000
  H   H1896     1.0  0.60249  0.97685  0.74464  1.0000
  H   H1897     1.0  0.57992  0.94760  0.74441  1.0000
  H   H1898     1.0  0.50863  0.85387  0.72157  1.0000
  H   H1899     1.0  0.55541  0.93517  0.73660  1.0000
  H   H1900     1.0  0.54646  0.89710  0.64308  1.0000
  H   H1901     1.0  0.53463  0.95030  0.72092  1.0000
  C   C1599     1.0  0.53611  0.87050  0.67193  1.0000
  C   C1600     1.0  0.62289  0.97624  0.83546  1.0000
  C   C1601     1.0  0.50035  0.92220  0.75750  1.0000
  C   C1602     1.0  0.64883  0.89124  0.53172  1.0000
  N   N105      1.0  0.52605  0.83891  0.70534  1.0000
  H   H1902     1.0  0.64694  0.97964  0.61156  1.0000
  H   H1903     1.0  0.70885  0.88878  0.51493  1.0000
  H   H1904     1.0  0.63617  0.97473  0.94377  1.0000
  N   N106      1.0  0.61468  0.95653  0.85105  1.0000
  S   S429      1.0  0.49472  0.96692  0.70887  1.0000
  H   H1905     1.0  0.58529  0.95210  0.83983  1.0000
  H   H1906     1.0  0.58663  0.99736  0.57041  1.0000
  H   H1907     1.0  0.74128  0.82786  0.94656  1.0000
  H   H1908     1.0  0.62878  0.99436  0.58557  1.0000
  H   H1909     1.0  0.53221  0.84061  0.97606  1.0000
  C   C1603     1.0  0.64490  0.90249  0.55156  1.0000
  S   S430      1.0  0.72914  0.77022  0.92037  1.0000
  H   H1910     1.0  0.52361  0.87323  0.68026  1.0000
  H   H1911     1.0  0.57301  0.87137  0.98584  1.0000
  H   H1912     1.0  0.53586  0.96042  0.75531  1.0000
  C   C1604     1.0  0.64240  0.00321  0.57136  1.0000
  H   H1913     1.0  0.64947  0.99389  0.56285  1.0000
  H   H1914     1.0  0.60377  0.95701  0.97054  1.0000
  H   H1915     1.0  0.59555  0.90454  0.94973  1.0000
  H   H1916     1.0  0.66164  0.94475  0.50773  1.0000
  H   H1917     1.0  0.70903  0.89491  0.98615  1.0000
  C   C1605     1.0  0.50694  0.84080  0.71115  1.0000
  C   C1606     1.0  0.76317  0.81795  0.93024  1.0000
  H   H1918     1.0  0.65820  0.96815  0.65656  1.0000
  H   H1919     1.0  0.62135  0.76748  0.59617  1.0000
  C   C1607     1.0  0.61193  0.84174  0.95613  1.0000
  C   C1608     1.0  0.57525  0.98152  0.74929  1.0000
  H   H1920     1.0  0.79406  0.78496  0.94784  1.0000
  C   C1609     1.0  0.76168  0.88382  0.50499  1.0000
  H   H1921     1.0  0.84902  0.75991  0.89057  1.0000
  C   C1610     1.0  0.64480  0.99194  0.72486  1.0000
  C   C1611     1.0  0.66558  0.76145  0.56627  1.0000
  H   H1922     1.0  0.78255  0.81868  0.87464  1.0000
  H   H1923     1.0  0.55204  0.99215  0.75901  1.0000
  H   H1924     1.0  0.75702  0.81659  0.90882  1.0000
  C   C1612     1.0  0.65735  0.89906  0.50269  1.0000
  H   H1925     1.0  0.58357  0.86539  0.64162  1.0000
  H   H1926     1.0  0.60306  0.86148  0.89009  1.0000
  C   C1613     1.0  0.73643  0.77333  0.97999  1.0000
  N   N107      1.0  0.51088  0.00441  0.85892  1.0000
  C   C1614     1.0  0.75509  0.84263  0.51931  1.0000
  H   H1927     1.0  0.49808  0.98104  0.89422  1.0000
  H   H1928     1.0  0.69869  0.79674  0.99353  1.0000
  C   C1615     1.0  0.56702  0.99368  0.76131  1.0000
  H   H1929     1.0  0.71589  0.85550  0.52352  1.0000
  C   C1616     1.0  0.76012  0.82578  0.98065  1.0000
  H   H1930     1.0  0.57605  0.93854  0.94313  1.0000
  C   C1617     1.0  0.62406  0.96703  0.93128  1.0000
  S   S431      1.0  0.49883  0.94810  0.79512  1.0000
  H   H1931     1.0  0.52062  0.98236  0.87623  1.0000
  C   C1618     1.0  0.72688  0.84993  0.53211  1.0000
  H   H1932     1.0  0.73022  0.92291  0.50331  1.0000
  H   H1933     1.0  0.66318  0.77311  0.57531  1.0000
  Fe  Fe216     1.0  0.51456  0.99762  0.70840  1.0000
  N   N108      1.0  0.56186  0.84199  0.97954  1.0000
  H   H1934     1.0  0.62316  0.83775  0.96631  1.0000
  H   H1935     1.0  0.63776  0.98456  0.84177  1.0000
  C   C1619     1.0  0.65663  0.99016  0.62393  1.0000
  H   H1936     1.0  0.62452  0.97655  0.81067  1.0000
  H   H1937     1.0  0.76584  0.84272  0.50116  1.0000
  H   H1938     1.0  0.61332  0.98408  0.84043  1.0000
  C   C1620     1.0  0.67560  0.99586  0.66723  1.0000
  H   H1939     1.0  0.57188  0.98259  0.68987  1.0000
  H   H1940     1.0  0.76438  0.88161  0.52823  1.0000
  H   H1941     1.0  0.76335  0.85150  0.53608  1.0000
  H   H1942     1.0  0.68027  0.99050  0.68753  1.0000
  H   H1943     1.0  0.71768  0.77805  0.53057  1.0000
  H   H1944     1.0  0.74834  0.82787  0.53115  1.0000
  S   S432      1.0  0.66405  0.00611  0.77348  1.0000
