data_image0
_chemical_formula_structural       FeSH2SCFeS2FeSHFeSCFeS2FeS2FeHSCS2CSFeS2FeCS2FeS2FeS2FeSFeS3C6H8C3HC6H3CHCHC2H4C6H4C6H4C6H4C6SH5CH4CSH2CHCH2NC6H11CH3C2NC9H14SCNCHCFeCH3CHCH2C2HC2H2FeH4CH3C2H2C3HCHC2SFeHNCFeH5SH3CHC6H2C3HSCNCH5SH3NHCHCSCFeCSCH4FeH3CH3CHCH2CH2S2HCFeSHFeS2C2HSC2SCFeS2FeS2FeS2FeSFeS3FeS2FeS2HC6H4CH2C3H3CHC6H4FeC7H4CHCHSC4HCNH3NH4CHC2HCNHC2H4CH2NH11C2HCH2C2H2C2H4SH2C6H7NC2H11CHNCHC2H2CHC2H3C2H3NCH2C2SHS2H3C2HC2HCH2C6H6SH3C2H6NS2HFeHCNC8FeH3CH3SH3CHC3H2C2H6CHSC4NSCSHCSHC5H3FeC2HC3FeC6H2CHCHC4H2CHNC4HCHCH6CH7C2H5CFeHFeSHCH3SH3NCHC5HCH5CHCH2C2HFeSNHCHSC2H2CH2CHC2HCNC6H2C3H5C2H2FeH2C4HCSH8SC3H2C2H3CHCHSCH2CNHC2H4CH3C4HC2S2HCH2CHFeS2CHC2S2HC3H4SHFeC2HC2FeCHC6H2SHC6H6NHCH2CSHCHCHCHCNHCH2CHCH6SC2H3NCH2CH2C2H2C5H6C4FeH2CHC2FeS2FeHFeCS2HSH2S2FeS2FeSCFeS2FeS2H2SFeS2FeS2FeCFeS3CSH2FeC3FeCH3C7H4CHC4H2C6H4NC4H4FeC6H4C6HCH2C6HFeHC2HC3H8NSC7SH10C2H2NC9H15CNC2H4SCH3CFeCHC2SNCH5CHCHCFeH2CHCH2C3HCH2SH2FeHCH2C2H4CHSHCHC2H3NC2HCHFe2S2H2CSH2NCHSFeSHFeS2FeS2H2CSFeS2FeS2FeSFeS3FeS2CHSHC6H6C6H4CHC5H3SHC7H3NC6FeCH2NH15FeH3SH4CFeC2HCHCSH2CHNC2HCHC2SH3CSH3C3HCFeHC2H2C3H2CHCH2CHCH2NCH5CHC2H2CNC2HCH7CH3SHC3HFeHCH6C2H4SH2CHCHSHCSH5C2S2C2HC2H3C2FeHSHC2HCHCFeSFeC7H2C6HCH2SH2NHNC2HC6SHFeHC3H4CH2CH3C2HCH3CH4CSCNH4CH5C2HSNH2CS2CH2FeH6CHC7H2SH2CH3SHCHCH2SCNCHC3H3CH2CHCHC5H3C5HCHCH4CH2CH3FeC3H3CH3C2H2FeHC2FeC2NH3CHFeS2FeS2CFeS2FeS2FeSFeCS2CSH2FeS2CH3FeS2C6H8FeC3HC7H4C6SH2SNCH2CFeH2CH4C3HC2FeCH2CH2FeCH2CHCNC7H5SH5FeH4NC9H13CH2SH6C2SHCHNH3C2H2CH3C3H2CHSCH2CH2CSHSH2C2HCHCH2CSH2FeH2SH2SHFeS2FeS2FeSFeS3HC2S2FeS2FeCS2FeS2FeS2FeSFeS3C6H5CH2C3SHCSCH2C4NH2C6H4C6H4CHC4HCH2C6H4C6H5C4HCH3C4HNHNC9H14CHC2HC2HCFeH2C2H4CFeCH3CFeH2C2H3CHCH2C5FeHSH2CNH5CNHCH3SCHCH2CH3C2H5C3HC3S3CSH3CH4CNFeH2NCH3SHC2HFeS2FeS2FeS2FeSFeHS2FeS2H3SFeS2CSHSNSC6H4CHC4H2C6H4FeC7H4NC7HSH5CHFeH4CHSCH3C2HCH2CHC2HNHCH5CH4CHC2H6CHC2NHSH4FeH3NC11H11C2HCHCH4CHSHCFeCFeS2FeCSCSHCSHFeS2FeS2FeSFeS2CFeSHFeS2FeSFeS3HSHFeS2CS2HC2H2CHNCH2C2H2CH2C6H4C6H4C6H4C6H2CHC6H4CHC4H4NC9H14NHFeSCSHSHC5HFeCH2FeHFeCSHC2H2C3SCSH3CSC2HCHC2H2C2HSHCH6CSH2FeH2CH3SC2NH4C2H2FeCH3CH2C2HNHCH2C2HCHC2H3CHCH2CHC3H2CH2NH8C2H2C2H2SHC2H2N2SHCH4CSCFeSCS2FeNCSH2SHC2HFeHC2H2C2SH3CHSC6H4C6H4CH4C4HC2NHSHC2HCH2C3H2C2H3C3H3CH3C2HC2HCHSHNSHCSC2HC2H5C8H4CH5SHC4FeSHC2HCHC2H2NHCHC2H3CH2CHNH3C2NHCHCH7CH5FeCH2CH2CH2C3H2C2HSHC2HCHC
_chemical_formula_sum              "Fe144 S288 H1296 C1080 N72"
_cell_length_a       50.2474
_cell_length_b       49.5176
_cell_length_c       49.4715
_cell_angle_alpha    90.3692
_cell_angle_beta     89.5481
_cell_angle_gamma    89.5973

_space_group_name_H-M_alt    "P 1"
_space_group_IT_number       1

loop_
  _space_group_symop_operation_xyz
  'x, y, z'

loop_
  _atom_site_type_symbol
  _atom_site_label
  _atom_site_symmetry_multiplicity
  _atom_site_fract_x
  _atom_site_fract_y
  _atom_site_fract_z
  _atom_site_occupancy
  Fe  Fe1       1.0  0.27890  0.02784  0.14346  1.0000
  S   S1        1.0  0.27774  0.03711  0.09920  1.0000
  H   H1        1.0  0.15039  0.44141  0.25722  1.0000
  H   H2        1.0  0.04531  0.09101  0.11635  1.0000
  S   S2        1.0  0.49778  0.30167  0.23027  1.0000
  C   C1        1.0  0.50128  0.27264  0.09179  1.0000
  Fe  Fe2       1.0  0.24427  0.06522  0.11006  1.0000
  S   S3        1.0  0.24363  0.10747  0.09349  1.0000
  S   S4        1.0  0.24779  0.05871  0.15467  1.0000
  Fe  Fe3       1.0  0.12352  0.19244  0.05783  1.0000
  S   S5        1.0  0.08476  0.20680  0.04084  1.0000
  H   H3        1.0  0.35216  0.38614  0.06737  1.0000
  Fe  Fe4       1.0  0.14683  0.24869  0.06118  1.0000
  S   S6        1.0  0.11020  0.26800  0.04410  1.0000
  C   C2        1.0  0.21814  0.50096  0.21517  1.0000
  Fe  Fe5       1.0  0.08812  0.23988  0.07174  1.0000
  S   S7        1.0  0.05232  0.25611  0.09406  1.0000
  S   S8        1.0  0.12475  0.22320  0.09129  1.0000
  Fe  Fe6       1.0  0.07673  0.12942  0.20673  1.0000
  S   S9        1.0  0.07546  0.16866  0.22949  1.0000
  S   S10       1.0  0.11095  0.12568  0.17722  1.0000
  Fe  Fe7       1.0  0.03221  0.16866  0.21913  1.0000
  H   H4        1.0  0.23061  0.05770  0.21678  1.0000
  S   S11       1.0  0.03424  0.13143  0.19339  1.0000
  C   C3        1.0  0.17007  0.45348  0.13985  1.0000
  S   S12       1.0  0.42953  0.10845  0.24184  1.0000
  S   S13       1.0  0.18548  0.26946  0.07154  1.0000
  C   C4        1.0  0.22336  0.47524  0.25663  1.0000
  S   S14       1.0  0.45103  0.18267  0.21519  1.0000
  Fe  Fe8       1.0  0.45418  0.38439  0.18994  1.0000
  S   S15       1.0  0.48267  0.37982  0.22448  1.0000
  S   S16       1.0  0.41318  0.40102  0.19898  1.0000
  Fe  Fe9       1.0  0.49305  0.33980  0.20474  1.0000
  C   C5        1.0  0.13617  0.12535  0.25176  1.0000
  S   S17       1.0  0.48334  0.40618  0.16356  1.0000
  S   S18       1.0  0.46253  0.34338  0.17216  1.0000
  Fe  Fe10      1.0  0.27330  0.45635  0.07184  1.0000
  S   S19       1.0  0.26989  0.41128  0.06903  1.0000
  S   S20       1.0  0.29353  0.48222  0.03924  1.0000
  Fe  Fe11      1.0  0.25270  0.45707  0.13192  1.0000
  S   S21       1.0  0.24940  0.41186  0.13296  1.0000
  S   S22       1.0  0.23677  0.48597  0.16476  1.0000
  Fe  Fe12      1.0  0.28832  0.41136  0.11032  1.0000
  S   S23       1.0  0.32115  0.38048  0.11487  1.0000
  Fe  Fe13      1.0  0.23125  0.41597  0.09189  1.0000
  S   S24       1.0  0.19117  0.39696  0.08392  1.0000
  S   S25       1.0  0.29349  0.45634  0.11255  1.0000
  S   S26       1.0  0.23284  0.46135  0.09141  1.0000
  C   C6        1.0  0.38824  0.39596  0.17474  1.0000
  C   C7        1.0  0.36474  0.41137  0.17627  1.0000
  C   C8        1.0  0.34420  0.40720  0.15762  1.0000
  C   C9        1.0  0.34689  0.38714  0.13776  1.0000
  C   C10       1.0  0.37043  0.37180  0.13617  1.0000
  C   C11       1.0  0.39118  0.37636  0.15445  1.0000
  H   H5        1.0  0.36239  0.42657  0.19194  1.0000
  H   H6        1.0  0.32607  0.41907  0.15898  1.0000
  H   H7        1.0  0.37265  0.35639  0.12069  1.0000
  H   H8        1.0  0.40932  0.36459  0.15291  1.0000
  H   H9        1.0  0.48830  0.51292  0.22266  1.0000
  H   H10       1.0  0.04519  0.17866  0.08305  1.0000
  H   H11       1.0  0.40170  0.03952  0.23893  1.0000
  H   H12       1.0  0.20313  0.51359  0.25444  1.0000
  C   C12       1.0  0.23164  0.48090  0.20002  1.0000
  C   C13       1.0  0.24088  0.45787  0.21334  1.0000
  C   C14       1.0  0.23694  0.45520  0.24149  1.0000
  H   H13       1.0  0.25152  0.44236  0.20208  1.0000
  C   C15       1.0  0.15222  0.49421  0.21397  1.0000
  C   C16       1.0  0.46140  0.21651  0.22139  1.0000
  C   C17       1.0  0.45541  0.23676  0.20246  1.0000
  C   C18       1.0  0.46578  0.26310  0.20516  1.0000
  C   C19       1.0  0.48258  0.26942  0.22671  1.0000
  C   C20       1.0  0.19344  0.05144  0.23745  1.0000
  H   H14       1.0  0.20106  0.23996  0.11977  1.0000
  H   H15       1.0  0.44307  0.23186  0.18532  1.0000
  H   H16       1.0  0.46141  0.27821  0.19015  1.0000
  C   C21       1.0  0.04177  0.24127  0.12448  1.0000
  H   H17       1.0  0.40450  0.33733  0.19837  1.0000
  C   C22       1.0  0.40468  0.31735  0.20867  1.0000
  H   H18       1.0  0.42657  0.35837  0.23510  1.0000
  C   C23       1.0  0.04402  0.20609  0.15858  1.0000
  C   C24       1.0  0.05345  0.21759  0.13435  1.0000
  H   H19       1.0  0.10121  0.13732  0.11637  1.0000
  H   H20       1.0  0.14314  0.03122  0.12849  1.0000
  H   H21       1.0  0.05267  0.18761  0.16609  1.0000
  H   H22       1.0  0.06942  0.20806  0.12304  1.0000
  C   C25       1.0  0.18652  0.30483  0.07583  1.0000
  C   C26       1.0  0.21124  0.31739  0.07916  1.0000
  C   C27       1.0  0.21290  0.34562  0.08188  1.0000
  C   C28       1.0  0.18977  0.36145  0.08136  1.0000
  C   C29       1.0  0.16501  0.34888  0.07834  1.0000
  C   C30       1.0  0.16336  0.32065  0.07545  1.0000
  H   H23       1.0  0.14608  0.40681  0.13870  1.0000
  H   H24       1.0  0.23208  0.35510  0.08428  1.0000
  H   H25       1.0  0.14703  0.36101  0.07810  1.0000
  H   H26       1.0  0.14419  0.31118  0.07300  1.0000
  C   C31       1.0  0.15998  0.13742  0.07320  1.0000
  C   C32       1.0  0.18217  0.15292  0.06633  1.0000
  C   C33       1.0  0.20788  0.14360  0.07251  1.0000
  C   C34       1.0  0.21139  0.11896  0.08582  1.0000
  C   C35       1.0  0.18910  0.10382  0.09309  1.0000
  C   C36       1.0  0.16348  0.11293  0.08665  1.0000
  H   H27       1.0  0.17959  0.17193  0.05603  1.0000
  H   H28       1.0  0.22504  0.15546  0.06690  1.0000
  H   H29       1.0  0.19152  0.08521  0.10386  1.0000
  H   H30       1.0  0.14634  0.10114  0.09243  1.0000
  C   C37       1.0  0.13066  0.09618  0.17726  1.0000
  C   C38       1.0  0.12310  0.07327  0.19177  1.0000
  C   C39       1.0  0.13930  0.04999  0.19115  1.0000
  C   C40       1.0  0.16317  0.04967  0.17625  1.0000
  C   C41       1.0  0.17072  0.07265  0.16194  1.0000
  C   C42       1.0  0.15444  0.09576  0.16230  1.0000
  H   H31       1.0  0.10464  0.07334  0.20317  1.0000
  H   H32       1.0  0.38329  0.46104  0.03951  1.0000
  H   H33       1.0  0.18908  0.07258  0.15045  1.0000
  H   H34       1.0  0.16037  0.11336  0.15095  1.0000
  C   C43       1.0  0.34142  0.08394  0.22930  1.0000
  C   C44       1.0  0.31490  0.07628  0.22548  1.0000
  C   C45       1.0  0.30819  0.05841  0.20452  1.0000
  C   C46       1.0  0.32807  0.04787  0.18752  1.0000
  C   C47       1.0  0.35463  0.05540  0.19143  1.0000
  C   C48       1.0  0.36126  0.07371  0.21205  1.0000
  S   S27       1.0  0.40018  0.16292  0.26695  1.0000
  H   H35       1.0  0.28770  0.05252  0.20174  1.0000
  H   H36       1.0  0.37004  0.04742  0.17816  1.0000
  H   H37       1.0  0.38166  0.08003  0.21444  1.0000
  H   H38       1.0  0.19453  0.40761  0.14834  1.0000
  H   H39       1.0  0.06689  0.14203  0.06527  1.0000
  C   C49       1.0  0.38729  0.27415  0.24724  1.0000
  H   H40       1.0  0.19348  0.02989  0.23324  1.0000
  H   H41       1.0  0.13975  0.40299  0.17405  1.0000
  H   H42       1.0  0.18868  0.32645  0.02139  1.0000
  H   H43       1.0  0.15841  0.41632  0.21529  1.0000
  C   C50       1.0  0.08176  0.14828  0.11637  1.0000
  S   S28       1.0  0.12767  0.14798  0.06509  1.0000
  H   H44       1.0  0.33478  0.40339  0.04099  1.0000
  H   H45       1.0  0.34246  0.42873  0.09361  1.0000
  C   C51       1.0  0.38126  0.33468  0.24784  1.0000
  H   H46       1.0  0.18729  0.46721  0.14281  1.0000
  C   C52       1.0  0.15199  0.03547  0.07315  1.0000
  H   H47       1.0  0.16623  0.06723  0.04720  1.0000
  H   H48       1.0  0.05910  0.10942  0.14473  1.0000
  N   N1        1.0  0.13518  0.21611  0.18323  1.0000
  C   C53       1.0  0.13440  0.24492  0.19185  1.0000
  C   C54       1.0  0.10870  0.20945  0.17226  1.0000
  C   C55       1.0  0.13986  0.19955  0.20768  1.0000
  C   C56       1.0  0.15574  0.21007  0.16239  1.0000
  C   C57       1.0  0.16028  0.18307  0.15354  1.0000
  C   C58       1.0  0.17106  0.23051  0.14962  1.0000
  H   H49       1.0  0.12876  0.25842  0.17484  1.0000
  H   H50       1.0  0.11917  0.24863  0.20800  1.0000
  H   H51       1.0  0.15391  0.25144  0.20005  1.0000
  H   H52       1.0  0.10482  0.22107  0.15349  1.0000
  H   H53       1.0  0.09240  0.21437  0.18695  1.0000
  H   H54       1.0  0.10685  0.18763  0.16716  1.0000
  H   H55       1.0  0.16044  0.20238  0.21529  1.0000
  H   H56       1.0  0.12572  0.20498  0.22437  1.0000
  H   H57       1.0  0.13691  0.17762  0.20380  1.0000
  H   H58       1.0  0.14883  0.16653  0.16157  1.0000
  H   H59       1.0  0.16860  0.25171  0.15425  1.0000
  C   C59       1.0  0.01311  0.13671  0.12703  1.0000
  H   H60       1.0  0.47144  0.03148  0.25543  1.0000
  H   H61       1.0  0.11861  0.13553  0.26127  1.0000
  H   H62       1.0  0.19362  0.12866  0.24973  1.0000
  C   C60       1.0  0.43757  0.39882  0.07132  1.0000
  C   C61       1.0  0.48824  0.24930  0.24581  1.0000
  N   N2        1.0  0.32832  0.11015  0.12762  1.0000
  C   C62       1.0  0.32241  0.12807  0.10446  1.0000
  C   C63       1.0  0.34024  0.08459  0.11719  1.0000
  C   C64       1.0  0.30249  0.10340  0.14061  1.0000
  C   C65       1.0  0.34727  0.12350  0.14615  1.0000
  C   C66       1.0  0.37281  0.13134  0.13665  1.0000
  C   C67       1.0  0.34134  0.12878  0.17388  1.0000
  C   C68       1.0  0.39126  0.14355  0.15383  1.0000
  C   C69       1.0  0.35992  0.14112  0.19081  1.0000
  C   C70       1.0  0.38484  0.14839  0.18086  1.0000
  H   H63       1.0  0.34024  0.13200  0.09172  1.0000
  H   H64       1.0  0.30717  0.11908  0.09083  1.0000
  H   H65       1.0  0.31437  0.14790  0.11160  1.0000
  H   H66       1.0  0.32607  0.07315  0.10434  1.0000
  H   H67       1.0  0.34602  0.07107  0.13410  1.0000
  H   H68       1.0  0.35831  0.08795  0.10464  1.0000
  H   H69       1.0  0.29185  0.12175  0.14820  1.0000
  H   H70       1.0  0.28881  0.09344  0.12611  1.0000
  H   H71       1.0  0.30513  0.08895  0.15746  1.0000
  H   H72       1.0  0.37880  0.12785  0.11590  1.0000
  H   H73       1.0  0.32270  0.12317  0.18319  1.0000
  H   H74       1.0  0.41077  0.14917  0.14627  1.0000
  H   H75       1.0  0.35512  0.14465  0.21197  1.0000
  H   H76       1.0  0.39928  0.15767  0.19419  1.0000
  S   S29       1.0  0.06788  0.10435  0.24309  1.0000
  C   C71       1.0  0.06433  0.12383  0.07807  1.0000
  N   N3        1.0  0.36757  0.42546  0.05828  1.0000
  C   C72       1.0  0.17929  0.17686  0.13366  1.0000
  H   H77       1.0  0.22924  0.30526  0.07948  1.0000
  C   C73       1.0  0.03417  0.14567  0.10998  1.0000
  Fe  Fe14      1.0  0.02484  0.10972  0.23193  1.0000
  C   C74       1.0  0.17102  0.09172  0.25624  1.0000
  H   H78       1.0  0.12935  0.11552  0.23280  1.0000
  H   H79       1.0  0.45982  0.40081  0.10814  1.0000
  H   H80       1.0  0.15213  0.46575  0.13503  1.0000
  C   C75       1.0  0.19294  0.10706  0.24672  1.0000
  H   H81       1.0  0.17479  0.44122  0.12141  1.0000
  C   C76       1.0  0.18992  0.22404  0.12963  1.0000
  H   H82       1.0  0.11822  0.07572  0.26106  1.0000
  H   H83       1.0  0.08467  0.16619  0.10329  1.0000
  C   C77       1.0  0.47757  0.22310  0.24333  1.0000
  C   C78       1.0  0.03004  0.17038  0.09617  1.0000
  H   H84       1.0  0.16348  0.28319  0.02141  1.0000
  C   C79       1.0  0.19405  0.19731  0.12169  1.0000
  C   C80       1.0  0.06103  0.10541  0.12264  1.0000
  H   H85       1.0  0.18229  0.15609  0.12716  1.0000
  H   H86       1.0  0.36678  0.38866  0.03436  1.0000
  Fe  Fe15      1.0  0.43985  0.15275  0.24851  1.0000
  H   H87       1.0  0.38267  0.43648  0.11230  1.0000
  H   H88       1.0  0.20844  0.19252  0.10591  1.0000
  H   H89       1.0  0.32927  0.44465  0.06444  1.0000
  H   H90       1.0  0.14178  0.05018  0.08572  1.0000
  C   C81       1.0  0.34810  0.44051  0.07543  1.0000
  H   H91       1.0  0.42223  0.30576  0.20094  1.0000
  H   H92       1.0  0.38654  0.30666  0.20188  1.0000
  H   H93       1.0  0.04743  0.11206  0.06981  1.0000
  C   C82       1.0  0.14961  0.48019  0.23815  1.0000
  C   C83       1.0  0.15200  0.45218  0.23823  1.0000
  H   H94       1.0  0.22335  0.49373  0.02800  1.0000
  H   H95       1.0  0.14627  0.49107  0.25699  1.0000
  C   C84       1.0  0.35485  0.39984  0.04979  1.0000
  C   C85       1.0  0.14289  0.41826  0.15799  1.0000
  C   C86       1.0  0.21374  0.49804  0.24321  1.0000
  H   H96       1.0  0.07798  0.15557  0.13737  1.0000
  C   C87       1.0  0.01164  0.24224  0.16310  1.0000
  H   H97       1.0  0.12410  0.43012  0.15608  1.0000
  C   C88       1.0  0.42144  0.41987  0.11240  1.0000
  C   C89       1.0  0.18987  0.41928  0.16716  1.0000
  S   S30       1.0  0.32028  0.02575  0.16087  1.0000
  Fe  Fe16      1.0  0.49466  0.36460  0.14881  1.0000
  H   H98       1.0  0.36287  0.32400  0.24176  1.0000
  N   N4        1.0  0.16565  0.43620  0.16392  1.0000
  C   C90       1.0  0.21439  0.06712  0.22803  1.0000
  Fe  Fe17      1.0  0.39130  0.11888  0.26353  1.0000
  H   H99       1.0  0.48354  0.28372  0.08602  1.0000
  H   H100      1.0  0.48257  0.20775  0.25795  1.0000
  H   H101      1.0  0.08293  0.11175  0.07518  1.0000
  H   H102      1.0  0.20738  0.43205  0.17202  1.0000
  H   H103      1.0  0.29949  0.08415  0.23883  1.0000
  S   S31       1.0  0.01170  0.20585  0.20409  1.0000
  H   H104      1.0  0.42435  0.42502  0.13355  1.0000
  H   H105      1.0  0.35593  0.46045  0.08198  1.0000
  H   H106      1.0  0.37302  0.23395  0.25553  1.0000
  C   C91       1.0  0.15691  0.43804  0.21412  1.0000
  H   H107      1.0  0.18790  0.40412  0.18344  1.0000
  C   C92       1.0  0.15764  0.48033  0.18978  1.0000
  C   C93       1.0  0.16019  0.45169  0.18914  1.0000
  C   C94       1.0  0.39287  0.41937  0.07226  1.0000
  C   C95       1.0  0.17198  0.06339  0.25128  1.0000
  C   C96       1.0  0.39744  0.42640  0.09979  1.0000
  C   C97       1.0  0.02328  0.21866  0.17312  1.0000
  H   H108      1.0  0.15012  0.14163  0.24605  1.0000
  H   H109      1.0  0.49192  0.27513  0.13363  1.0000
  C   C98       1.0  0.44140  0.40611  0.09821  1.0000
  C   C99       1.0  0.18051  0.02832  0.03403  1.0000
  C   C100      1.0  0.38858  0.24858  0.25910  1.0000
  H   H110      1.0  0.16033  0.49256  0.17200  1.0000
  S   S32       1.0  0.21307  0.03383  0.10356  1.0000
  C   C101      1.0  0.41371  0.40536  0.05842  1.0000
  N   N5        1.0  0.05975  0.13086  0.10694  1.0000
  C   C102      1.0  0.37273  0.44211  0.03398  1.0000
  H   H111      1.0  0.08058  0.09495  0.11994  1.0000
  H   H112      1.0  0.49519  0.46439  0.21127  1.0000
  H   H113      1.0  0.37032  0.27859  0.23471  1.0000
  H   H114      1.0  0.24468  0.43757  0.25166  1.0000
  H   H115      1.0  0.11124  0.02839  0.11199  1.0000
  S   S33       1.0  0.34899  0.10586  0.25616  1.0000
  H   H116      1.0  0.50118  0.25390  0.26258  1.0000
  H   H117      1.0  0.23054  0.10700  0.22526  1.0000
  H   H118      1.0  0.45317  0.38776  0.06062  1.0000
  N   N6        1.0  0.40577  0.32046  0.23848  1.0000
  H   H119      1.0  0.41156  0.39904  0.03762  1.0000
  C   C103      1.0  0.21421  0.09487  0.23274  1.0000
  H   H120      1.0  0.15621  0.04999  0.25735  1.0000
  C   C104      1.0  0.02076  0.25342  0.13884  1.0000
  S   S34       1.0  0.14863  0.21620  0.02925  1.0000
  C   C105      1.0  0.16599  0.04565  0.05092  1.0000
  Fe  Fe18      1.0  0.21883  0.02516  0.14755  1.0000
  C   C106      1.0  0.40763  0.29352  0.25127  1.0000
  S   S35       1.0  0.49913  0.35803  0.10384  1.0000
  C   C107      1.0  0.42864  0.33822  0.24475  1.0000
  H   H121      1.0  0.44770  0.32937  0.23709  1.0000
  H   H122      1.0  0.37980  0.35540  0.23912  1.0000
  H   H123      1.0  0.49502  0.23772  0.16367  1.0000
  H   H124      1.0  0.29075  0.51179  0.25318  1.0000
  Fe  Fe19      1.0  0.06329  0.14396  0.26523  1.0000
  H   H125      1.0  0.15090  0.51607  0.21412  1.0000
  H   H126      1.0  0.13330  0.03218  0.20213  1.0000
  H   H127      1.0  0.11205  0.37528  0.03720  1.0000
  C   C108      1.0  0.40225  0.04501  0.26072  1.0000
  H   H128      1.0  0.35383  0.44811  0.02384  1.0000
  H   H129      1.0  0.39362  0.06568  0.26260  1.0000
  H   H130      1.0  0.43039  0.34206  0.26684  1.0000
  C   C109      1.0  0.50654  0.26800  0.11909  1.0000
  H   H131      1.0  0.01412  0.11803  0.13811  1.0000
  C   C110      1.0  0.50827  0.50457  0.22229  1.0000
  H   H132      1.0  0.42355  0.04614  0.26662  1.0000
  H   H133      1.0  0.15464  0.35764  0.02209  1.0000
  C   C111      1.0  0.11263  0.35781  0.02386  1.0000
  H   H134      1.0  0.07002  0.35358  0.02328  1.0000
  H   H135      1.0  0.35696  0.02148  0.24747  1.0000
  S   S36       1.0  0.01946  0.14736  0.25709  1.0000
  S   S37       1.0  0.18274  0.02009  0.17440  1.0000
  H   H136      1.0  0.01157  0.27166  0.13126  1.0000
  C   C112      1.0  0.42934  0.28561  0.26783  1.0000
  Fe  Fe20      1.0  0.44601  0.10130  0.28377  1.0000
  S   S38       1.0  0.08441  0.14733  0.30541  1.0000
  H   H137      1.0  0.37775  0.02243  0.32027  1.0000
  Fe  Fe21      1.0  0.41932  0.15287  0.30624  1.0000
  S   S39       1.0  0.45978  0.14476  0.28841  1.0000
  S   S40       1.0  0.41243  0.18299  0.33991  1.0000
  C   C113      1.0  0.46772  0.18945  0.40652  1.0000
  C   C114      1.0  0.46481  0.14800  0.38056  1.0000
  H   H138      1.0  0.04673  0.30115  0.38133  1.0000
  S   S41       1.0  0.40689  0.10972  0.30465  1.0000
  C   C115      1.0  0.47158  0.17516  0.38231  1.0000
  C   C116      1.0  0.12555  0.51274  0.50714  1.0000
  S   S42       1.0  0.29086  0.23904  0.48862  1.0000
  C   C117      1.0  0.12701  0.08641  0.27870  1.0000
  Fe  Fe22      1.0  0.36064  0.16657  0.48565  1.0000
  S   S43       1.0  0.36811  0.13788  0.45077  1.0000
  S   S44       1.0  0.36229  0.21156  0.48252  1.0000
  Fe  Fe23      1.0  0.10272  0.26850  0.40844  1.0000
  S   S45       1.0  0.09262  0.24681  0.44707  1.0000
  S   S46       1.0  0.08562  0.26047  0.36681  1.0000
  Fe  Fe24      1.0  0.13227  0.31345  0.43810  1.0000
  S   S47       1.0  0.12392  0.29522  0.47863  1.0000
  S   S48       1.0  0.15959  0.34950  0.43596  1.0000
  Fe  Fe25      1.0  0.13557  0.25591  0.45845  1.0000
  S   S49       1.0  0.16454  0.22621  0.47865  1.0000
  Fe  Fe26      1.0  0.08202  0.28821  0.46365  1.0000
  S   S50       1.0  0.04557  0.30580  0.48651  1.0000
  S   S51       1.0  0.14586  0.27462  0.41855  1.0000
  S   S52       1.0  0.09028  0.30935  0.42444  1.0000
  Fe  Fe27      1.0  0.19669  0.49620  0.32357  1.0000
  S   S53       1.0  0.15207  0.49727  0.32107  1.0000
  S   S54       1.0  0.22135  0.47199  0.29246  1.0000
  Fe  Fe28      1.0  0.15305  0.48793  0.36551  1.0000
  S   S55       1.0  0.12273  0.46049  0.38479  1.0000
  S   S56       1.0  0.19753  0.48377  0.36769  1.0000
  H   H139      1.0  0.26887  0.20983  0.41050  1.0000
  C   C118      1.0  0.14897  0.37964  0.42059  1.0000
  C   C119      1.0  0.16794  0.39933  0.41431  1.0000
  C   C120      1.0  0.16018  0.42388  0.40259  1.0000
  C   C121      1.0  0.13331  0.42906  0.39749  1.0000
  C   C122      1.0  0.11428  0.40951  0.40409  1.0000
  C   C123      1.0  0.12210  0.38473  0.41538  1.0000
  H   H140      1.0  0.18875  0.39550  0.41835  1.0000
  H   H141      1.0  0.17495  0.43887  0.39786  1.0000
  H   H142      1.0  0.09343  0.41352  0.40040  1.0000
  H   H143      1.0  0.10732  0.36977  0.42040  1.0000
  C   C124      1.0  0.25628  0.23270  0.48386  1.0000
  H   H144      1.0  0.01674  0.32020  0.37701  1.0000
  H   H145      1.0  0.17197  0.33540  0.49446  1.0000
  C   C125      1.0  0.20006  0.22802  0.47892  1.0000
  C   C126      1.0  0.21397  0.24723  0.46389  1.0000
  C   C127      1.0  0.24185  0.24956  0.46642  1.0000
  H   H146      1.0  0.23531  0.36614  0.48237  1.0000
  H   H147      1.0  0.20314  0.26049  0.45058  1.0000
  H   H148      1.0  0.25234  0.26477  0.45506  1.0000
  C   C128      1.0  0.45423  0.13500  0.40304  1.0000
  H   H149      1.0  0.44649  0.15965  0.48303  1.0000
  C   C129      1.0  0.39971  0.17022  0.37043  1.0000
  C   C130      1.0  0.39279  0.18822  0.39131  1.0000
  C   C131      1.0  0.38276  0.17853  0.41592  1.0000
  C   C132      1.0  0.37975  0.15079  0.41985  1.0000
  C   C133      1.0  0.38637  0.13280  0.39885  1.0000
  C   C134      1.0  0.39636  0.14249  0.37420  1.0000
  H   H150      1.0  0.39517  0.20970  0.38840  1.0000
  H   H151      1.0  0.37744  0.19256  0.43175  1.0000
  H   H152      1.0  0.38411  0.11131  0.40178  1.0000
  H   H153      1.0  0.40190  0.12845  0.35839  1.0000
  Fe  Fe29      1.0  0.32345  0.21129  0.50570  1.0000
  C   C135      1.0  0.26877  0.51823  0.37635  1.0000
  C   C136      1.0  0.08432  0.17874  0.32257  1.0000
  C   C137      1.0  0.07261  0.20163  0.31118  1.0000
  C   C138      1.0  0.07321  0.22650  0.32504  1.0000
  C   C139      1.0  0.08543  0.22869  0.35040  1.0000
  C   C140      1.0  0.09706  0.20577  0.36188  1.0000
  C   C141      1.0  0.09655  0.18088  0.34794  1.0000
  H   H154      1.0  0.06308  0.20020  0.29169  1.0000
  H   H155      1.0  0.06417  0.24415  0.31605  1.0000
  H   H156      1.0  0.10648  0.20724  0.38142  1.0000
  H   H157      1.0  0.47710  0.21029  0.48586  1.0000
  C   C142      1.0  0.26746  0.18821  0.41622  1.0000
  H   H158      1.0  0.19452  0.30746  0.46165  1.0000
  C   C143      1.0  0.45623  0.17707  0.42961  1.0000
  H   H159      1.0  0.45134  0.23301  0.43823  1.0000
  S   S57       1.0  0.32078  0.16603  0.50652  1.0000
  C   C144      1.0  0.28982  0.14807  0.43116  1.0000
  C   C145      1.0  0.19434  0.28947  0.51643  1.0000
  C   C146      1.0  0.30914  0.19118  0.43966  1.0000
  C   C147      1.0  0.24430  0.51690  0.48022  1.0000
  H   H160      1.0  0.02701  0.26276  0.36300  1.0000
  C   C148      1.0  0.21469  0.21020  0.49533  1.0000
  N   N7        1.0  0.29401  0.17536  0.41958  1.0000
  H   H161      1.0  0.13340  0.46023  0.44471  1.0000
  H   H162      1.0  0.25998  0.30727  0.51858  1.0000
  H   H163      1.0  0.29901  0.19123  0.45969  1.0000
  N   N8        1.0  0.38760  0.02564  0.27787  1.0000
  H   H164      1.0  0.43230  0.19081  0.49380  1.0000
  H   H165      1.0  0.46727  0.13715  0.36158  1.0000
  H   H166      1.0  0.44084  0.13798  0.44351  1.0000
  H   H167      1.0  0.10557  0.16322  0.35692  1.0000
  C   C149      1.0  0.16738  0.49966  0.44374  1.0000
  H   H168      1.0  0.11869  0.50462  0.42556  1.0000
  C   C150      1.0  0.21287  0.31955  0.46480  1.0000
  C   C151      1.0  0.43026  0.26009  0.27978  1.0000
  H   H169      1.0  0.27807  0.13503  0.41737  1.0000
  C   C152      1.0  0.02759  0.30699  0.39137  1.0000
  N   N9        1.0  0.21486  0.32938  0.49301  1.0000
  H   H170      1.0  0.47370  0.21034  0.40689  1.0000
  C   C153      1.0  0.43882  0.21878  0.44988  1.0000
  C   C154      1.0  0.14657  0.51260  0.48775  1.0000
  H   H171      1.0  0.37889  0.05628  0.30804  1.0000
  H   H172      1.0  0.16783  0.10528  0.30870  1.0000
  H   H173      1.0  0.43356  0.22966  0.46903  1.0000
  H   H174      1.0  0.26935  0.47594  0.36658  1.0000
  C   C155      1.0  0.47419  0.01880  0.27292  1.0000
  H   H175      1.0  0.47939  0.18528  0.36460  1.0000
  H   H176      1.0  0.10658  0.50369  0.50265  1.0000
  N   N10       1.0  0.14301  0.49953  0.46097  1.0000
  H   H177      1.0  0.20421  0.19510  0.50691  1.0000
  H   H178      1.0  0.18428  0.48919  0.45372  1.0000
  H   H179      1.0  0.25084  0.49711  0.48661  1.0000
  H   H180      1.0  0.25563  0.18801  0.43541  1.0000
  H   H181      1.0  0.13450  0.07124  0.29334  1.0000
  H   H182      1.0  0.17176  0.13604  0.29002  1.0000
  H   H183      1.0  0.42005  0.21566  0.43858  1.0000
  H   H184      1.0  0.30623  0.49788  0.28271  1.0000
  H   H185      1.0  0.41104  0.22178  0.28459  1.0000
  H   H186      1.0  0.14081  0.12912  0.30618  1.0000
  H   H187      1.0  0.41650  0.17235  0.46730  1.0000
  C   C156      1.0  0.28763  0.50731  0.27501  1.0000
  C   C157      1.0  0.12174  0.51378  0.44597  1.0000
  H   H188      1.0  0.40940  0.03853  0.31311  1.0000
  C   C158      1.0  0.15769  0.11952  0.29475  1.0000
  H   H189      1.0  0.01401  0.25596  0.48124  1.0000
  H   H190      1.0  0.24176  0.35412  0.51590  1.0000
  C   C159      1.0  0.44982  0.14920  0.42721  1.0000
  C   C160      1.0  0.19078  0.34590  0.49955  1.0000
  H   H191      1.0  0.47487  0.02160  0.34147  1.0000
  H   H192      1.0  0.23018  0.30660  0.45915  1.0000
  C   C161      1.0  0.02747  0.26673  0.41800  1.0000
  C   C162      1.0  0.24263  0.21246  0.49778  1.0000
  H   H193      1.0  0.21211  0.33652  0.45017  1.0000
  H   H194      1.0  0.25575  0.17764  0.40042  1.0000
  H   H195      1.0  0.35030  0.17625  0.32601  1.0000
  H   H196      1.0  0.10220  0.51302  0.45656  1.0000
  S   S58       1.0  0.46626  0.06526  0.30473  1.0000
  H   H197      1.0  0.16416  0.48908  0.42408  1.0000
  H   H198      1.0  0.18994  0.36477  0.48742  1.0000
  C   C163      1.0  0.30871  0.17502  0.39350  1.0000
  C   C164      1.0  0.31434  0.19958  0.38000  1.0000
  C   C165      1.0  0.31848  0.15083  0.38115  1.0000
  C   C166      1.0  0.32901  0.19993  0.35586  1.0000
  C   C167      1.0  0.33284  0.15142  0.35682  1.0000
  C   C168      1.0  0.33825  0.17590  0.34431  1.0000
  H   H199      1.0  0.30916  0.13787  0.43565  1.0000
  H   H200      1.0  0.32942  0.18252  0.44231  1.0000
  H   H201      1.0  0.30791  0.21878  0.38837  1.0000
  H   H202      1.0  0.31594  0.13123  0.39019  1.0000
  H   H203      1.0  0.33377  0.21896  0.34632  1.0000
  H   H204      1.0  0.34070  0.13286  0.34804  1.0000
  H   H205      1.0  0.26506  0.51511  0.39772  1.0000
  N   N11       1.0  0.45246  0.19260  0.45508  1.0000
  C   C169      1.0  0.43625  0.17811  0.47556  1.0000
  C   C170      1.0  0.47887  0.19813  0.46694  1.0000
  H   H206      1.0  0.44620  0.29851  0.27155  1.0000
  H   H207      1.0  0.27874  0.14910  0.45076  1.0000
  H   H208      1.0  0.27613  0.48236  0.31863  1.0000
  H   H209      1.0  0.23497  0.50372  0.43950  1.0000
  H   H210      1.0  0.31132  0.21275  0.43406  1.0000
  H   H211      1.0  0.44712  0.25434  0.29208  1.0000
  H   H212      1.0  0.17547  0.29333  0.50691  1.0000
  H   H213      1.0  0.48955  0.17905  0.47197  1.0000
  H   H214      1.0  0.04700  0.26056  0.40909  1.0000
  H   H215      1.0  0.03316  0.31902  0.40955  1.0000
  H   H216      1.0  0.44854  0.11397  0.40143  1.0000
  C   C171      1.0  0.27531  0.50031  0.33112  1.0000
  H   H217      1.0  0.49188  0.20967  0.45294  1.0000
  N   N12       1.0  0.01162  0.28296  0.39880  1.0000
  C   C172      1.0  0.27126  0.49626  0.35880  1.0000
  H   H218      1.0  0.15022  0.45969  0.47659  1.0000
  C   C173      1.0  0.21688  0.30579  0.51118  1.0000
  C   C174      1.0  0.01084  0.29858  0.48941  1.0000
  H   H219      1.0  0.11021  0.09724  0.28905  1.0000
  H   H220      1.0  0.27165  0.49196  0.27545  1.0000
  C   C175      1.0  0.47222  0.03009  0.29888  1.0000
  H   H221      1.0  0.03161  0.27846  0.43673  1.0000
  C   C176      1.0  0.13521  0.47089  0.46451  1.0000
  C   C177      1.0  0.40998  0.24162  0.27542  1.0000
  H   H222      1.0  0.11554  0.46872  0.47458  1.0000
  H   H223      1.0  0.01726  0.24789  0.42413  1.0000
  H   H224      1.0  0.25659  0.33779  0.48644  1.0000
  C   C178      1.0  0.23820  0.34759  0.49466  1.0000
  C   C179      1.0  0.38848  0.03599  0.30612  1.0000
  H   H225      1.0  0.34934  0.04531  0.27334  1.0000
  H   H226      1.0  0.25338  0.19927  0.51127  1.0000
  H   H227      1.0  0.38092  0.33678  0.27027  1.0000
  N   N13       1.0  0.14832  0.10528  0.27015  1.0000
  C   C180      1.0  0.35928  0.02543  0.26948  1.0000
  H   H228      1.0  0.23647  0.03889  0.63332  1.0000
  H   H229      1.0  0.26192  0.26762  0.54672  1.0000
  C   C181      1.0  0.35170  0.50801  0.59580  1.0000
  C   C182      1.0  0.50863  0.25252  0.63745  1.0000
  S   S59       1.0  0.41975  0.23835  0.52713  1.0000
  H   H230      1.0  0.47791  0.24111  0.59306  1.0000
  S   S60       1.0  0.33573  0.14510  0.58245  1.0000
  S   S61       1.0  0.34497  0.21434  0.54554  1.0000
  H   H231      1.0  0.23361  0.08569  0.57673  1.0000
  H   H232      1.0  0.26491  0.04604  0.61260  1.0000
  H   H233      1.0  0.46379  0.27387  0.59046  1.0000
  C   C183      1.0  0.01360  0.51340  0.68674  1.0000
  C   C184      1.0  0.32877  0.50845  0.55348  1.0000
  H   H234      1.0  0.49729  0.18079  0.55063  1.0000
  C   C185      1.0  0.48962  0.29816  0.62931  1.0000
  C   C186      1.0  0.45386  0.23131  0.53415  1.0000
  H   H235      1.0  0.31179  0.51653  0.54152  1.0000
  C   C187      1.0  0.49044  0.20087  0.54549  1.0000
  H   H236      1.0  0.32467  0.48652  0.55583  1.0000
  H   H237      1.0  0.22148  0.24114  0.55640  1.0000
  C   C188      1.0  0.31385  0.05538  0.57880  1.0000
  C   C189      1.0  0.31362  0.07084  0.55509  1.0000
  C   C190      1.0  0.32104  0.09823  0.55570  1.0000
  C   C191      1.0  0.32870  0.11028  0.58007  1.0000
  C   C192      1.0  0.32956  0.09461  0.60356  1.0000
  C   C193      1.0  0.32215  0.06732  0.60296  1.0000
  H   H238      1.0  0.32041  0.11010  0.53745  1.0000
  H   H239      1.0  0.30076  0.11196  0.70326  1.0000
  H   H240      1.0  0.33589  0.10367  0.62237  1.0000
  H   H241      1.0  0.32302  0.05557  0.62122  1.0000
  H   H242      1.0  0.45824  0.25436  0.62055  1.0000
  H   H243      1.0  0.26709  0.08982  0.58751  1.0000
  S   S62       1.0  0.38465  0.16495  0.52375  1.0000
  H   H244      1.0  0.23270  0.04304  0.59778  1.0000
  H   H245      1.0  0.19802  0.07957  0.60880  1.0000
  H   H246      1.0  0.46569  0.27233  0.52645  1.0000
  C   C194      1.0  0.28814  0.10615  0.68658  1.0000
  C   C195      1.0  0.46302  0.20552  0.54111  1.0000
  H   H247      1.0  0.26628  0.07703  0.70975  1.0000
  H   H248      1.0  0.44903  0.18912  0.54303  1.0000
  H   H249      1.0  0.29945  0.49826  0.59706  1.0000
  H   H250      1.0  0.17854  0.25426  0.53602  1.0000
  H   H251      1.0  0.50720  0.30900  0.63756  1.0000
  H   H252      1.0  0.37190  0.51163  0.58720  1.0000
  N   N14       1.0  0.49738  0.27155  0.61750  1.0000
  S   S63       1.0  0.29413  0.02238  0.65824  1.0000
  S   S64       1.0  0.45577  0.43432  0.76358  1.0000
  H   H253      1.0  0.30678  0.13320  0.65846  1.0000
  Fe  Fe30      1.0  0.34478  0.16869  0.54450  1.0000
  H   H254      1.0  0.35184  0.51434  0.61742  1.0000
  C   C196      1.0  0.47246  0.25234  0.53201  1.0000
  N   N15       1.0  0.23952  0.08034  0.61967  1.0000
  C   C197      1.0  0.21103  0.08562  0.62589  1.0000
  C   C198      1.0  0.47334  0.25972  0.60494  1.0000
  C   C199      1.0  0.24348  0.05085  0.61574  1.0000
  C   C200      1.0  0.25605  0.08987  0.64244  1.0000
  C   C201      1.0  0.27570  0.11024  0.63957  1.0000
  C   C202      1.0  0.25281  0.07857  0.66857  1.0000
  C   C203      1.0  0.29149  0.11809  0.66137  1.0000
  C   C204      1.0  0.26874  0.08653  0.69020  1.0000
  Fe  Fe31      1.0  0.38376  0.21029  0.52228  1.0000
  H   H255      1.0  0.27980  0.12010  0.62058  1.0000
  H   H256      1.0  0.20402  0.07411  0.64382  1.0000
  H   H257      1.0  0.20744  0.10745  0.63019  1.0000
  C   C205      1.0  0.24596  0.09360  0.59357  1.0000
  H   H258      1.0  0.23827  0.06302  0.67237  1.0000
  H   H259      1.0  0.30734  0.06172  0.53629  1.0000
  H   H260      1.0  0.24245  0.11580  0.59460  1.0000
  S   S65       1.0  0.30258  0.02166  0.57799  1.0000
  H   H261      1.0  0.47447  0.29593  0.64566  1.0000
  H   H262      1.0  0.01654  0.29834  0.65089  1.0000
  H   H263      1.0  0.34739  0.51038  0.54135  1.0000
  C   C206      1.0  0.50904  0.22193  0.54345  1.0000
  H   H264      1.0  0.48090  0.31180  0.61385  1.0000
  C   C207      1.0  0.19593  0.26682  0.53306  1.0000
  C   C208      1.0  0.22013  0.25930  0.54437  1.0000
  C   C209      1.0  0.49983  0.24771  0.53654  1.0000
  H   H265      1.0  0.34837  0.48580  0.59604  1.0000
  H   H266      1.0  0.47755  0.02677  0.63774  1.0000
  C   C210      1.0  0.24285  0.27433  0.53898  1.0000
  C   C211      1.0  0.24142  0.29720  0.52259  1.0000
  H   H267      1.0  0.19005  0.35149  0.52136  1.0000
  H   H268      1.0  0.50896  0.27974  0.67283  1.0000
  H   H269      1.0  0.50985  0.29059  0.58035  1.0000
  H   H270      1.0  0.40240  0.45535  0.76863  1.0000
  H   H271      1.0  0.08728  0.06501  0.82426  1.0000
  H   H272      1.0  0.15542  0.16070  0.95490  1.0000
  C   C212      1.0  0.36558  0.43583  0.90301  1.0000
  H   H273      1.0  0.05788  0.15192  0.94442  1.0000
  S   S66       1.0  0.10567  0.23832  0.96940  1.0000
  C   C213      1.0  0.37711  0.41074  0.90835  1.0000
  C   C214      1.0  0.07932  0.15278  0.94563  1.0000
  C   C215      1.0  0.11402  0.31257  0.99000  1.0000
  C   C216      1.0  0.06805  0.03382  0.80089  1.0000
  N   N16       1.0  0.16409  0.31169  0.98897  1.0000
  S   S67       1.0  0.05478  0.11308  0.82100  1.0000
  C   C217      1.0  0.16543  0.31107  0.95900  1.0000
  S   S68       1.0  0.32788  0.49866  0.83750  1.0000
  H   H274      1.0  0.44483  0.40228  0.81580  1.0000
  C   C218      1.0  0.42765  0.40782  0.82914  1.0000
  S   S69       1.0  0.29491  0.47818  0.90952  1.0000
  H   H275      1.0  0.20676  0.31639  0.99192  1.0000
  C   C219      1.0  0.28088  0.45958  0.98891  1.0000
  C   C220      1.0  0.28144  0.45925  0.96030  1.0000
  C   C221      1.0  0.29622  0.47838  0.94562  1.0000
  C   C222      1.0  0.40001  0.40219  0.89427  1.0000
  C   C223      1.0  0.13418  0.15816  0.95227  1.0000
  H   H276      1.0  0.45872  0.50509  0.83358  1.0000
  H   H277      1.0  0.26995  0.44436  0.94946  1.0000
  H   H278      1.0  0.45361  0.38379  0.88730  1.0000
  Fe  Fe32      1.0  0.02101  0.14400  0.82647  1.0000
  C   C224      1.0  0.07027  0.06009  0.81197  1.0000
  C   C225      1.0  0.05075  0.08001  0.80717  1.0000
  H   H279      1.0  0.32322  0.51162  0.94902  1.0000
  C   C226      1.0  0.02717  0.04733  0.77932  1.0000
  C   C227      1.0  0.18792  0.32625  0.99888  1.0000
  C   C228      1.0  0.08966  0.32315  0.99903  1.0000
  Fe  Fe33      1.0  0.10991  0.23330  0.01461  1.0000
  C   C229      1.0  0.07622  0.22606  0.95458  1.0000
  C   C230      1.0  0.07453  0.22376  0.92633  1.0000
  C   C231      1.0  0.05145  0.21341  0.91420  1.0000
  C   C232      1.0  0.03002  0.20520  0.93029  1.0000
  C   C233      1.0  0.03156  0.20793  0.95846  1.0000
  C   C234      1.0  0.05452  0.21840  0.97057  1.0000
  H   H280      1.0  0.09113  0.22995  0.91384  1.0000
  H   H281      1.0  0.05017  0.21193  0.89244  1.0000
  C   C235      1.0  0.02902  0.07336  0.79096  1.0000
  H   H282      1.0  0.05533  0.22062  0.99226  1.0000
  C   C236      1.0  0.44218  0.46065  0.78375  1.0000
  H   H283      1.0  0.32168  0.51288  0.99937  1.0000
  C   C237      1.0  0.40303  0.48524  0.80062  1.0000
  C   C238      1.0  0.41883  0.49911  0.81919  1.0000
  C   C239      1.0  0.44636  0.49429  0.81941  1.0000
  C   C240      1.0  0.45796  0.47501  0.80192  1.0000
  H   H284      1.0  0.18486  0.30294  0.95151  1.0000
  H   H285      1.0  0.38178  0.48888  0.80023  1.0000
  C   C241      1.0  0.04655  0.02733  0.78429  1.0000
  H   H286      1.0  0.47911  0.47133  0.80252  1.0000
  N   N17       1.0  0.08611  0.13947  0.89611  1.0000
  C   C242      1.0  0.41199  0.41872  0.87421  1.0000
  C   C243      1.0  0.09762  0.11288  0.88811  1.0000
  C   C244      1.0  0.05671  0.13691  0.89537  1.0000
  C   C245      1.0  0.09628  0.14764  0.92296  1.0000
  H   H287      1.0  0.41188  0.39245  0.82620  1.0000
  C   C246      1.0  0.12405  0.15066  0.92706  1.0000
  H   H288      1.0  0.08962  0.10577  0.86833  1.0000
  C   C247      1.0  0.31041  0.49781  0.98855  1.0000
  H   H289      1.0  0.46456  0.37791  0.85345  1.0000
  H   H290      1.0  0.14986  0.29792  0.95007  1.0000
  H   H291      1.0  0.07642  0.16449  0.98762  1.0000
  H   H292      1.0  0.34762  0.44233  0.91364  1.0000
  H   H293      1.0  0.11958  0.11354  0.88558  1.0000
  H   H294      1.0  0.36802  0.39775  0.92330  1.0000
  C   C248      1.0  0.31118  0.49728  0.95998  1.0000
  H   H295      1.0  0.04659  0.15655  0.89962  1.0000
  H   H296      1.0  0.04984  0.13030  0.87510  1.0000
  H   H297      1.0  0.04935  0.12163  0.90995  1.0000
  H   H298      1.0  0.41970  0.42714  0.82127  1.0000
  H   H299      1.0  0.13811  0.14748  0.91071  1.0000
  H   H300      1.0  0.18521  0.27382  0.99402  1.0000
  H   H301      1.0  0.09292  0.09723  0.90345  1.0000
  C   C249      1.0  0.09382  0.15973  0.87555  1.0000
  C   C250      1.0  0.13714  0.34735  0.01497  1.0000
  H   H302      1.0  0.24276  0.51340  0.94667  1.0000
  H   H303      1.0  0.40741  0.45779  0.85437  1.0000
  H   H304      1.0  0.11571  0.16095  0.87267  1.0000
  H   H305      1.0  0.38500  0.43130  0.01854  1.0000
  H   H306      1.0  0.26899  0.44508  0.99982  1.0000
  C   C251      1.0  0.13856  0.32409  0.99796  1.0000
  Fe  Fe34      1.0  0.49535  0.41588  0.77541  1.0000
  H   H307      1.0  0.43223  0.36683  0.86314  1.0000
  Fe  Fe35      1.0  0.31163  0.50900  0.87923  1.0000
  S   S70       1.0  0.02785  0.18796  0.83776  1.0000
  H   H308      1.0  0.08655  0.18023  0.88141  1.0000
  C   C252      1.0  0.41475  0.46629  0.78272  1.0000
  H   H309      1.0  0.12488  0.16893  0.99353  1.0000
  H   H310      1.0  0.11345  0.29484  0.97718  1.0000
  H   H311      1.0  0.08533  0.15483  0.85532  1.0000
  S   S71       1.0  0.49462  0.37511  0.79523  1.0000
  H   H312      1.0  0.45110  0.45035  0.85298  1.0000
  H   H313      1.0  0.46344  0.43247  0.88174  1.0000
  H   H314      1.0  0.40780  0.38249  0.89925  1.0000
  N   N18       1.0  0.43544  0.41000  0.85791  1.0000
  C   C253      1.0  0.29496  0.47926  0.00324  1.0000
  H   H315      1.0  0.47496  0.42416  0.84825  1.0000
  C   C254      1.0  0.11704  0.16280  0.97408  1.0000
  C   C255      1.0  0.08971  0.16010  0.97076  1.0000
  C   C256      1.0  0.44674  0.38345  0.86596  1.0000
  C   C257      1.0  0.45705  0.43014  0.86037  1.0000
  C   C258      1.0  0.39975  0.44419  0.86948  1.0000
  H   H316      1.0  0.16270  0.33169  0.95055  1.0000
  C   C259      1.0  0.37699  0.45256  0.88371  1.0000
  H   H317      1.0  0.36800  0.47207  0.87946  1.0000
  H   H318      1.0  0.18835  0.34745  0.99155  1.0000
  H   H319      1.0  0.15008  0.27041  0.99049  1.0000
  H   H320      1.0  0.07126  0.31348  0.99313  1.0000
  H   H321      1.0  0.01493  0.20188  0.97102  1.0000
  C   C260      1.0  0.16577  0.28360  0.99905  1.0000
  H   H322      1.0  0.22320  0.48305  0.97912  1.0000
  C   C261      1.0  0.23118  0.50213  0.98609  1.0000
  H   H323      1.0  0.01397  0.08848  0.78682  1.0000
  H   H324      1.0  0.19204  0.03638  0.01737  1.0000
  C   C262      1.0  0.23120  0.50812  0.01362  1.0000
  C   C263      1.0  0.08896  0.34566  0.01603  1.0000
  H   H325      1.0  0.08317  0.01875  0.80486  1.0000
  Fe  Fe36      1.0  0.16433  0.84780  0.02682  1.0000
  S   S72       1.0  0.24789  0.97695  0.06003  1.0000
  N   N19       1.0  0.13911  0.99594  0.10336  1.0000
  H   H326      1.0  0.41084  0.95049  0.22494  1.0000
  C   C264      1.0  0.23090  0.83488  0.05353  1.0000
  H   H327      1.0  0.39053  0.99503  0.23138  1.0000
  S   S73       1.0  0.16760  0.87917  0.05999  1.0000
  C   C265      1.0  0.04543  0.79705  0.02131  1.0000
  C   C266      1.0  0.04692  0.64026  0.23717  1.0000
  H   H328      1.0  0.28452  0.91932  0.03536  1.0000
  H   H329      1.0  0.23853  0.83429  0.10845  1.0000
  C   C267      1.0  0.01728  0.79667  0.02083  1.0000
  H   H330      1.0  0.02049  0.58674  0.20392  1.0000
  H   H331      1.0  0.17679  0.99190  0.12342  1.0000
  C   C268      1.0  0.39927  0.98535  0.24875  1.0000
  H   H332      1.0  0.24250  0.53655  0.04425  1.0000
  C   C269      1.0  0.01441  0.60903  0.25310  1.0000
  C   C270      1.0  0.26576  0.80787  0.07237  1.0000
  H   H333      1.0  0.25516  0.54499  0.25809  1.0000
  C   C271      1.0  0.07128  0.54509  0.25286  1.0000
  N   N20       1.0  0.25624  0.83607  0.06848  1.0000
  C   C272      1.0  0.22660  0.94895  0.06028  1.0000
  C   C273      1.0  0.21348  0.94134  0.08398  1.0000
  C   C274      1.0  0.19576  0.91956  0.08357  1.0000
  C   C275      1.0  0.19111  0.90527  0.05954  1.0000
  C   C276      1.0  0.20469  0.91244  0.03590  1.0000
  C   C277      1.0  0.22242  0.93430  0.03630  1.0000
  H   H334      1.0  0.21686  0.95238  0.10256  1.0000
  H   H335      1.0  0.18550  0.91382  0.10195  1.0000
  C   C278      1.0  0.50798  0.76631  0.04885  1.0000
  C   C279      1.0  0.27086  0.88130  0.05103  1.0000
  C   C280      1.0  0.41078  0.95982  0.24483  1.0000
  H   H336      1.0  0.30248  0.82081  0.03905  1.0000
  H   H337      1.0  0.03045  0.65497  0.23346  1.0000
  H   H338      1.0  0.28532  0.80735  0.08276  1.0000
  H   H339      1.0  0.25148  0.79585  0.08464  1.0000
  H   H340      1.0  0.23943  0.86716  0.09481  1.0000
  C   C281      1.0  0.49006  0.77688  0.03011  1.0000
  C   C282      1.0  0.10497  0.57945  0.25181  1.0000
  H   H341      1.0  0.10656  0.96925  0.11245  1.0000
  H   H342      1.0  0.12486  0.96039  0.08254  1.0000
  Fe  Fe37      1.0  0.24683  0.00476  0.09658  1.0000
  H   H343      1.0  0.19222  0.98722  0.02595  1.0000
  H   H344      1.0  0.06560  0.52437  0.25666  1.0000
  C   C283      1.0  0.01693  0.75792  0.05015  1.0000
  C   C284      1.0  0.42258  0.94640  0.26634  1.0000
  C   C285      1.0  0.02906  0.60721  0.20668  1.0000
  C   C286      1.0  0.05865  0.59176  0.24173  1.0000
  H   H345      1.0  0.02027  0.78885  0.10607  1.0000
  C   C287      1.0  0.24209  0.53226  0.02274  1.0000
  S   S74       1.0  0.16490  0.80557  0.04300  1.0000
  H   H346      1.0  0.46888  0.77713  0.03450  1.0000
  H   H347      1.0  0.48247  0.98279  0.24930  1.0000
  H   H348      1.0  0.16497  0.96117  0.10868  1.0000
  H   H349      1.0  0.26760  0.79674  0.05280  1.0000
  H   H350      1.0  0.11228  0.53838  0.26345  1.0000
  H   H351      1.0  0.23394  0.82552  0.03323  1.0000
  H   H352      1.0  0.15038  0.97363  0.13915  1.0000
  H   H353      1.0  0.03202  0.55703  0.24261  1.0000
  S   S75       1.0  0.25029  0.99316  0.14029  1.0000
  C   C288      1.0  0.31033  0.88643  0.02327  1.0000
  C   C289      1.0  0.15859  0.97997  0.11922  1.0000
  C   C290      1.0  0.25089  0.84788  0.09571  1.0000
  H   H354      1.0  0.26979  0.85183  0.10660  1.0000
  H   H355      1.0  0.16718  0.96862  0.06374  1.0000
  C   C291      1.0  0.05953  0.77695  0.03511  1.0000
  C   C292      1.0  0.29779  0.84213  0.03928  1.0000
  H   H356      1.0  0.10260  0.98887  0.08216  1.0000
  H   H357      1.0  0.05455  0.64464  0.25782  1.0000
  H   H358      1.0  0.05561  0.74211  0.06068  1.0000
  C   C293      1.0  0.11733  0.97786  0.09475  1.0000
  H   H359      1.0  0.12540  0.58545  0.25529  1.0000
  C   C294      1.0  0.08591  0.59875  0.24458  1.0000
  H   H360      1.0  0.11902  0.00791  0.14050  1.0000
  S   S76       1.0  0.09488  0.77321  0.03280  1.0000
  C   C295      1.0  0.27525  0.85303  0.05323  1.0000
  H   H361      1.0  0.49989  0.75930  0.06780  1.0000
  H   H362      1.0  0.04601  0.60912  0.19221  1.0000
  C   C296      1.0  0.05211  0.56412  0.24522  1.0000
  N   N21       1.0  0.03780  0.61183  0.23484  1.0000
  H   H363      1.0  0.30534  0.55482  0.26392  1.0000
  C   C297      1.0  0.16642  0.99022  0.06084  1.0000
  C   C298      1.0  0.28828  0.89772  0.03647  1.0000
  H   H364      1.0  0.06259  0.64504  0.22198  1.0000
  H   H365      1.0  0.21578  0.82270  0.06447  1.0000
  H   H366      1.0  0.22201  0.85525  0.05045  1.0000
  H   H367      1.0  0.25375  0.89099  0.06037  1.0000
  C   C299      1.0  0.09761  0.55282  0.25641  1.0000
  H   H368      1.0  0.43212  0.92689  0.26319  1.0000
  H   H369      1.0  0.01341  0.62212  0.20074  1.0000
  H   H370      1.0  0.09297  0.61912  0.24221  1.0000
  C   C300      1.0  0.18055  0.00065  0.03886  1.0000
  C   C301      1.0  0.04503  0.75778  0.04994  1.0000
  C   C302      1.0  0.31499  0.85869  0.02456  1.0000
  C   C303      1.0  0.15234  0.00737  0.07916  1.0000
  H   H371      1.0  0.21089  0.51885  0.20509  1.0000
  C   C304      1.0  0.12757  0.01685  0.12175  1.0000
  C   C305      1.0  0.39389  0.95063  0.50011  1.0000
  S   S77       1.0  0.44642  0.81258  0.50186  1.0000
  S   S78       1.0  0.49865  0.91009  0.36111  1.0000
  H   H372      1.0  0.43735  0.75895  0.47919  1.0000
  C   C306      1.0  0.23522  0.52057  0.45350  1.0000
  H   H373      1.0  0.02531  0.70540  0.39124  1.0000
  H   H374      1.0  0.32025  0.54610  0.29570  1.0000
  C   C307      1.0  0.02917  0.72197  0.50484  1.0000
  H   H375      1.0  0.49116  0.76668  0.40356  1.0000
  Fe  Fe38      1.0  0.15540  0.54056  0.33435  1.0000
  S   S79       1.0  0.44498  0.85561  0.38145  1.0000
  S   S80       1.0  0.48466  0.86409  0.31479  1.0000
  C   C308      1.0  0.45980  0.74036  0.36913  1.0000
  H   H376      1.0  0.42288  0.88423  0.46474  1.0000
  C   C309      1.0  0.47636  0.01317  0.32128  1.0000
  C   C310      1.0  0.02104  0.67091  0.41699  1.0000
  S   S81       1.0  0.13438  0.57588  0.31472  1.0000
  S   S82       1.0  0.20022  0.54034  0.33412  1.0000
  H   H377      1.0  0.35316  0.88207  0.48729  1.0000
  C   C311      1.0  0.23653  0.56415  0.49012  1.0000
  C   C312      1.0  0.22802  0.56792  0.46330  1.0000
  C   C313      1.0  0.44561  0.76216  0.43646  1.0000
  H   H378      1.0  0.39504  0.73457  0.47310  1.0000
  H   H379      1.0  0.02537  0.70207  0.51432  1.0000
  H   H380      1.0  0.03486  0.76000  0.46659  1.0000
  H   H381      1.0  0.39295  0.99340  0.50914  1.0000
  S   S83       1.0  0.49371  0.93964  0.28624  1.0000
  H   H382      1.0  0.44219  0.72934  0.36145  1.0000
  Fe  Fe39      1.0  0.48316  0.86765  0.36028  1.0000
  C   C314      1.0  0.22717  0.54622  0.44486  1.0000
  C   C315      1.0  0.48502  0.97429  0.29189  1.0000
  H   H383      1.0  0.02384  0.65653  0.40055  1.0000
  C   C316      1.0  0.27385  0.54868  0.33866  1.0000
  C   C317      1.0  0.48235  0.98543  0.31787  1.0000
  Fe  Fe40      1.0  0.19683  0.52813  0.37800  1.0000
  C   C318      1.0  0.43707  0.75646  0.40967  1.0000
  H   H384      1.0  0.41819  0.77213  0.35973  1.0000
  C   C319      1.0  0.04454  0.58981  0.32641  1.0000
  C   C320      1.0  0.06070  0.61023  0.31605  1.0000
  C   C321      1.0  0.08827  0.60586  0.31299  1.0000
  C   C322      1.0  0.09994  0.58117  0.32046  1.0000
  C   C323      1.0  0.08385  0.56089  0.33119  1.0000
  C   C324      1.0  0.05624  0.56519  0.33406  1.0000
  H   H385      1.0  0.05204  0.62940  0.31045  1.0000
  H   H386      1.0  0.10065  0.62165  0.30479  1.0000
  S   S84       1.0  0.15225  0.53144  0.37846  1.0000
  H   H387      1.0  0.04389  0.54930  0.34212  1.0000
  C   C325      1.0  0.44535  0.82588  0.46891  1.0000
  C   C326      1.0  0.46868  0.83626  0.45730  1.0000
  C   C327      1.0  0.46868  0.84624  0.43075  1.0000
  C   C328      1.0  0.44532  0.84571  0.41560  1.0000
  C   C329      1.0  0.42186  0.83582  0.42739  1.0000
  C   C330      1.0  0.42186  0.82592  0.45394  1.0000
  H   H388      1.0  0.48691  0.83635  0.46882  1.0000
  H   H389      1.0  0.48685  0.85389  0.42186  1.0000
  H   H390      1.0  0.40372  0.83529  0.41575  1.0000
  H   H391      1.0  0.40382  0.81783  0.46259  1.0000
  H   H392      1.0  0.22208  0.58789  0.45681  1.0000
  H   H393      1.0  0.41125  0.91726  0.45676  1.0000
  N   N22       1.0  0.45230  0.76464  0.38530  1.0000
  H   H394      1.0  0.42773  0.79999  0.38065  1.0000
  C   C331      1.0  0.25461  0.54232  0.28042  1.0000
  H   H395      1.0  0.05013  0.72192  0.49734  1.0000
  H   H396      1.0  0.27334  0.56934  0.33186  1.0000
  C   C332      1.0  0.24496  0.53866  0.49871  1.0000
  S   S85       1.0  0.36970  0.79077  0.50216  1.0000
  H   H397      1.0  0.40478  0.73754  0.38731  1.0000
  C   C333      1.0  0.41585  0.90364  0.47394  1.0000
  H   H398      1.0  0.01578  0.64049  0.44726  1.0000
  C   C334      1.0  0.39775  0.73466  0.42963  1.0000
  H   H399      1.0  0.43299  0.91183  0.48544  1.0000
  C   C335      1.0  0.27004  0.54437  0.36630  1.0000
  H   H400      1.0  0.47198  0.74572  0.35104  1.0000
  C   C336      1.0  0.43558  0.78266  0.36848  1.0000
  N   N23       1.0  0.39224  0.89970  0.49174  1.0000
  H   H401      1.0  0.47300  0.79834  0.40281  1.0000
  C   C337      1.0  0.38243  0.92488  0.50494  1.0000
  H   H402      1.0  0.23817  0.52813  0.28517  1.0000
  H   H403      1.0  0.50354  0.77662  0.31610  1.0000
  C   C338      1.0  0.01289  0.68060  0.46440  1.0000
  H   H404      1.0  0.26706  0.56137  0.37999  1.0000
  C   C339      1.0  0.40671  0.74050  0.45556  1.0000
  H   H405      1.0  0.34790  0.00975  0.28059  1.0000
  H   H406      1.0  0.41352  0.99248  0.31604  1.0000
  H   H407      1.0  0.44698  0.79132  0.35121  1.0000
  H   H408      1.0  0.41048  0.95335  0.48644  1.0000
  H   H409      1.0  0.01191  0.77077  0.49253  1.0000
  H   H410      1.0  0.09261  0.54177  0.33691  1.0000
  S   S86       1.0  0.21741  0.55276  0.41101  1.0000
  C   C340      1.0  0.41264  0.74244  0.40699  1.0000
  C   C341      1.0  0.43059  0.75416  0.45894  1.0000
  H   H411      1.0  0.02042  0.61020  0.27464  1.0000
  H   H412      1.0  0.46360  0.77316  0.44076  1.0000
  H   H413      1.0  0.47168  0.72590  0.38138  1.0000
  N   N24       1.0  0.28020  0.53187  0.29088  1.0000
  C   C342      1.0  0.02205  0.69847  0.41180  1.0000
  H   H414      1.0  0.48815  0.78530  0.37283  1.0000
  H   H415      1.0  0.37763  0.86915  0.46437  1.0000
  C   C343      1.0  0.39944  0.99834  0.27444  1.0000
  H   H416      1.0  0.36387  0.90247  0.45949  1.0000
  H   H417      1.0  0.37905  0.72413  0.42716  1.0000
  C   C344      1.0  0.01427  0.70886  0.45990  1.0000
  C   C345      1.0  0.41168  0.98407  0.29596  1.0000
  H   H418      1.0  0.24894  0.56206  0.28974  1.0000
  H   H419      1.0  0.48498  0.97275  0.33537  1.0000
  C   C346      1.0  0.27710  0.52677  0.32022  1.0000
  C   C347      1.0  0.39984  0.87983  0.51267  1.0000
  C   C348      1.0  0.01865  0.71728  0.43279  1.0000
  C   C349      1.0  0.47724  0.77930  0.39153  1.0000
  C   C350      1.0  0.37083  0.88791  0.47499  1.0000
  H   H420      1.0  0.12684  0.53542  0.44294  1.0000
  H   H421      1.0  0.01926  0.73828  0.42707  1.0000
  H   H422      1.0  0.29572  0.57262  0.29362  1.0000
  H   H423      1.0  0.23706  0.58114  0.50397  1.0000
  H   H424      1.0  0.40827  0.86092  0.50359  1.0000
  H   H425      1.0  0.43256  0.94801  0.30835  1.0000
  C   C351      1.0  0.42277  0.95837  0.29186  1.0000
  C   C352      1.0  0.30126  0.55221  0.28592  1.0000
  C   C353      1.0  0.38400  0.97392  0.51305  1.0000
  C   C354      1.0  0.01645  0.66197  0.44325  1.0000
  Fe  Fe41      1.0  0.50311  0.90565  0.31620  1.0000
  H   H426      1.0  0.49685  0.72704  0.31035  1.0000
  H   H427      1.0  0.17353  0.52061  0.43860  1.0000
  C   C355      1.0  0.01452  0.75679  0.47496  1.0000
  H   H428      1.0  0.18737  0.52713  0.48195  1.0000
  C   C356      1.0  0.17051  0.52563  0.49539  1.0000
  C   C357      1.0  0.48070  0.99116  0.26950  1.0000
  Fe  Fe42      1.0  0.29067  0.94559  0.64444  1.0000
  S   S87       1.0  0.28731  0.96279  0.68630  1.0000
  S   S88       1.0  0.28842  0.90044  0.64207  1.0000
  Fe  Fe43      1.0  0.32094  0.98929  0.67315  1.0000
  H   H429      1.0  0.33511  0.65845  0.52571  1.0000
  Fe  Fe44      1.0  0.26072  0.99376  0.66738  1.0000
  C   C358      1.0  0.03228  0.77533  0.73732  1.0000
  S   S89       1.0  0.32645  0.96956  0.63259  1.0000
  S   S90       1.0  0.26168  0.97456  0.62616  1.0000
  H   H430      1.0  0.22089  0.94176  0.75669  1.0000
  S   S91       1.0  0.39186  0.82536  0.55482  1.0000
  H   H431      1.0  0.30520  0.52932  0.61469  1.0000
  H   H432      1.0  0.02486  0.54128  0.61131  1.0000
  S   S92       1.0  0.40646  0.76118  0.54851  1.0000
  S   S93       1.0  0.03396  0.64260  0.66578  1.0000
  Fe  Fe45      1.0  0.38575  0.78796  0.57876  1.0000
  S   S94       1.0  0.39075  0.78735  0.62373  1.0000
  S   S95       1.0  0.34478  0.78037  0.56314  1.0000
  Fe  Fe46      1.0  0.45192  0.89124  0.74689  1.0000
  S   S96       1.0  0.46499  0.84859  0.73912  1.0000
  C   C359      1.0  0.04012  0.82024  0.75723  1.0000
  Fe  Fe47      1.0  0.48984  0.86649  0.70611  1.0000
  S   S97       1.0  0.49301  0.84932  0.66388  1.0000
  S   S98       1.0  0.47462  0.90884  0.71206  1.0000
  Fe  Fe48      1.0  0.06317  0.66480  0.69160  1.0000
  S   S99       1.0  0.03707  0.66552  0.72884  1.0000
  S   S100      1.0  0.10735  0.65669  0.69349  1.0000
  H   H433      1.0  0.05271  0.53332  0.63239  1.0000
  H   H434      1.0  0.14349  0.83494  0.65951  1.0000
  S   S101      1.0  0.05055  0.70579  0.67731  1.0000
  Fe  Fe49      1.0  0.20713  0.57951  0.60833  1.0000
  S   S102      1.0  0.23637  0.54496  0.60705  1.0000
  S   S103      1.0  0.16468  0.56978  0.61970  1.0000
  Fe  Fe50      1.0  0.24830  0.61999  0.58993  1.0000
  S   S104      1.0  0.28026  0.58855  0.58700  1.0000
  S   S105      1.0  0.25554  0.66465  0.58467  1.0000
  Fe  Fe51      1.0  0.24912  0.56271  0.56713  1.0000
  C   C360      1.0  0.12859  0.52463  0.53269  1.0000
  Fe  Fe52      1.0  0.26471  0.57363  0.62716  1.0000
  S   S106      1.0  0.29576  0.56524  0.65990  1.0000
  S   S107      1.0  0.21800  0.59543  0.56733  1.0000
  S   S108      1.0  0.23450  0.60694  0.63119  1.0000
  C   C361      1.0  0.30509  0.51976  0.59428  1.0000
  S   S109      1.0  0.09162  0.93483  0.74473  1.0000
  H   H435      1.0  0.21714  0.63329  0.68385  1.0000
  H   H436      1.0  0.33177  0.55586  0.53394  1.0000
  Fe  Fe53      1.0  0.40873  0.79827  0.52247  1.0000
  C   C362      1.0  0.29042  0.55755  0.69477  1.0000
  C   C363      1.0  0.26583  0.54868  0.70462  1.0000
  C   C364      1.0  0.26274  0.54196  0.73219  1.0000
  Fe  Fe54      1.0  0.36559  0.75587  0.53102  1.0000
  C   C365      1.0  0.03697  0.56438  0.67461  1.0000
  H   H437      1.0  0.20340  0.56615  0.69152  1.0000
  H   H438      1.0  0.24934  0.54654  0.69090  1.0000
  H   H439      1.0  0.35330  0.74474  0.61028  1.0000
  C   C366      1.0  0.25574  0.63579  0.70091  1.0000
  C   C367      1.0  0.14694  0.59548  0.63678  1.0000
  C   C368      1.0  0.15800  0.62107  0.64033  1.0000
  C   C369      1.0  0.14497  0.64033  0.65670  1.0000
  C   C370      1.0  0.12063  0.63428  0.66920  1.0000
  C   C371      1.0  0.10894  0.60912  0.66467  1.0000
  C   C372      1.0  0.12214  0.58970  0.64854  1.0000
  H   H440      1.0  0.17689  0.62583  0.63095  1.0000
  H   H441      1.0  0.15398  0.65984  0.66007  1.0000
  H   H442      1.0  0.09040  0.60427  0.67466  1.0000
  H   H443      1.0  0.11358  0.56990  0.64587  1.0000
  C   C373      1.0  0.32512  0.69969  0.53596  1.0000
  H   H444      1.0  0.17428  0.63348  0.73796  1.0000
  C   C374      1.0  0.34655  0.64631  0.67016  1.0000
  C   C375      1.0  0.05476  0.82798  0.73438  1.0000
  C   C376      1.0  0.05852  0.80900  0.71333  1.0000
  C   C377      1.0  0.04767  0.78280  0.71489  1.0000
  H   H445      1.0  0.06968  0.81471  0.69550  1.0000
  H   H446      1.0  0.05083  0.76861  0.69847  1.0000
  C   C378      1.0  0.41953  0.80397  0.63453  1.0000
  C   C379      1.0  0.44089  0.80845  0.61686  1.0000
  C   C380      1.0  0.46369  0.82186  0.62614  1.0000
  C   C381      1.0  0.46478  0.83159  0.65280  1.0000
  C   C382      1.0  0.44322  0.82726  0.67022  1.0000
  C   C383      1.0  0.42091  0.81302  0.66129  1.0000
  H   H447      1.0  0.44000  0.80138  0.59615  1.0000
  H   H448      1.0  0.48030  0.82512  0.61253  1.0000
  H   H449      1.0  0.44365  0.83482  0.69060  1.0000
  H   H450      1.0  0.40451  0.80939  0.67505  1.0000
  N   N25       1.0  0.01988  0.55211  0.65352  1.0000
  C   C384      1.0  0.30697  0.71652  0.54956  1.0000
  C   C385      1.0  0.28536  0.70544  0.56372  1.0000
  C   C386      1.0  0.28168  0.67741  0.56452  1.0000
  C   C387      1.0  0.29963  0.66044  0.55068  1.0000
  H   H451      1.0  0.15166  0.61433  0.71746  1.0000
  H   H452      1.0  0.30935  0.73814  0.54899  1.0000
  H   H453      1.0  0.27148  0.71868  0.57427  1.0000
  H   H454      1.0  0.29691  0.63881  0.55113  1.0000
  Fe  Fe55      1.0  0.50812  0.91293  0.74166  1.0000
  C   C388      1.0  0.29763  0.88713  0.61044  1.0000
  C   C389      1.0  0.30569  0.86008  0.60857  1.0000
  C   C390      1.0  0.31469  0.84938  0.58385  1.0000
  C   C391      1.0  0.31447  0.86526  0.56060  1.0000
  C   C392      1.0  0.30533  0.89204  0.56224  1.0000
  C   C393      1.0  0.29751  0.90320  0.58728  1.0000
  H   H455      1.0  0.30562  0.84753  0.62639  1.0000
  H   H456      1.0  0.32142  0.82869  0.58278  1.0000
  H   H457      1.0  0.30454  0.90425  0.54422  1.0000
  H   H458      1.0  0.29106  0.92406  0.58859  1.0000
  C   C394      1.0  0.37173  0.97000  0.71299  1.0000
  C   C395      1.0  0.35558  0.94863  0.72120  1.0000
  C   C396      1.0  0.36679  0.92635  0.73441  1.0000
  C   C397      1.0  0.39426  0.92510  0.73888  1.0000
  C   C398      1.0  0.41047  0.94632  0.73047  1.0000
  C   C399      1.0  0.39915  0.96890  0.71783  1.0000
  H   H459      1.0  0.33440  0.94948  0.71780  1.0000
  C   C400      1.0  0.32121  0.67160  0.53629  1.0000
  H   H460      1.0  0.43164  0.94562  0.73414  1.0000
  H   H461      1.0  0.41167  0.98548  0.71161  1.0000
  C   C401      1.0  0.20551  0.98831  0.70881  1.0000
  C   C402      1.0  0.17787  0.98967  0.71322  1.0000
  C   C403      1.0  0.16564  0.97330  0.73284  1.0000
  C   C404      1.0  0.18113  0.95591  0.74851  1.0000
  C   C405      1.0  0.20878  0.95510  0.74458  1.0000
  C   C406      1.0  0.22091  0.97107  0.72469  1.0000
  H   H462      1.0  0.14428  0.97410  0.73575  1.0000
  Fe  Fe56      1.0  0.02256  0.70570  0.71268  1.0000
  H   H463      1.0  0.24221  0.97017  0.72182  1.0000
  C   C407      1.0  0.18901  0.58330  0.69285  1.0000
  C   C408      1.0  0.34283  0.59311  0.55143  1.0000
  H   H464      1.0  0.05420  0.55113  0.67961  1.0000
  C   C409      1.0  0.34946  0.59444  0.59962  1.0000
  C   C410      1.0  0.38655  0.71312  0.63453  1.0000
  C   C411      1.0  0.03656  0.54840  0.62888  1.0000
  H   H465      1.0  0.35353  0.60580  0.61790  1.0000
  H   H466      1.0  0.34175  0.60357  0.53225  1.0000
  H   H467      1.0  0.37947  0.71200  0.58144  1.0000
  H   H468      1.0  0.40210  0.69710  0.63579  1.0000
  H   H469      1.0  0.39597  0.73014  0.62342  1.0000
  H   H470      1.0  0.38182  0.72098  0.65517  1.0000
  H   H471      1.0  0.37768  0.67476  0.66736  1.0000
  H   H472      1.0  0.38493  0.67805  0.59319  1.0000
  N   N26       1.0  0.20405  0.90703  0.66416  1.0000
  S   S110      1.0  0.40796  0.89637  0.75417  1.0000
  C   C412      1.0  0.21562  0.89718  0.63814  1.0000
  C   C413      1.0  0.19493  0.93525  0.65994  1.0000
  C   C414      1.0  0.18155  0.89058  0.67423  1.0000
  C   C415      1.0  0.17222  0.86721  0.66045  1.0000
  C   C416      1.0  0.16807  0.89792  0.69858  1.0000
  C   C417      1.0  0.35094  0.94746  0.53618  1.0000
  C   C418      1.0  0.17264  0.62136  0.71904  1.0000
  S   S111      1.0  0.35811  0.99806  0.69645  1.0000
  H   H473      1.0  0.21133  0.94840  0.65259  1.0000
  H   H474      1.0  0.24307  0.91912  0.67739  1.0000
  H   H475      1.0  0.29318  0.63445  0.72170  1.0000
  H   H476      1.0  0.22448  0.87661  0.64012  1.0000
  H   H477      1.0  0.23216  0.91035  0.63104  1.0000
  H   H478      1.0  0.20059  0.89703  0.62176  1.0000
  H   H479      1.0  0.23308  0.88617  0.68818  1.0000
  H   H480      1.0  0.17849  0.93616  0.64502  1.0000
  H   H481      1.0  0.16859  0.57502  0.69048  1.0000
  H   H482      1.0  0.18134  0.85978  0.64200  1.0000
  C   C419      1.0  0.33768  0.55144  0.57774  1.0000
  C   C420      1.0  0.13745  0.86072  0.69406  1.0000
  H   H483      1.0  0.16580  0.00300  0.70104  1.0000
  H   H484      1.0  0.18742  0.94484  0.67884  1.0000
  N   N27       1.0  0.38287  0.89110  0.65495  1.0000
  C   C421      1.0  0.36108  0.87546  0.64231  1.0000
  C   C422      1.0  0.38718  0.87989  0.68231  1.0000
  C   C423      1.0  0.37363  0.91951  0.65768  1.0000
  C   C424      1.0  0.40810  0.89016  0.63929  1.0000
  C   C425      1.0  0.43085  0.90396  0.64893  1.0000
  C   C426      1.0  0.41098  0.87580  0.61442  1.0000
  C   C427      1.0  0.45511  0.90286  0.63496  1.0000
  C   C428      1.0  0.43525  0.87520  0.60039  1.0000
  C   C429      1.0  0.45733  0.88846  0.61078  1.0000
  H   H485      1.0  0.36636  0.85362  0.64028  1.0000
  H   H486      1.0  0.34240  0.87656  0.65457  1.0000
  H   H487      1.0  0.35602  0.88351  0.62201  1.0000
  H   H488      1.0  0.39421  0.85861  0.68112  1.0000
  H   H489      1.0  0.36863  0.88044  0.69475  1.0000
  H   H490      1.0  0.40233  0.89125  0.69388  1.0000
  H   H491      1.0  0.37171  0.92914  0.63752  1.0000
  H   H492      1.0  0.35386  0.92100  0.66797  1.0000
  H   H493      1.0  0.38745  0.93204  0.66983  1.0000
  H   H494      1.0  0.43019  0.91523  0.66772  1.0000
  H   H495      1.0  0.39501  0.86427  0.60567  1.0000
  H   H496      1.0  0.47256  0.91240  0.64341  1.0000
  H   H497      1.0  0.43731  0.86330  0.58201  1.0000
  H   H498      1.0  0.04614  0.56767  0.62267  1.0000
  H   H499      1.0  0.12041  0.84956  0.70157  1.0000
  C   C430      1.0  0.14635  0.88325  0.70821  1.0000
  N   N28       1.0  0.36230  0.70337  0.62062  1.0000
  C   C431      1.0  0.18458  0.58003  0.74089  1.0000
  C   C432      1.0  0.37033  0.69503  0.59287  1.0000
  H   H500      1.0  0.04542  0.58398  0.66797  1.0000
  H   H501      1.0  0.24371  0.53488  0.73948  1.0000
  H   H502      1.0  0.11236  0.52443  0.54726  1.0000
  H   H503      1.0  0.21928  0.91587  0.70404  1.0000
  S   S112      1.0  0.06679  0.86158  0.72997  1.0000
  C   C433      1.0  0.34896  0.60754  0.57480  1.0000
  H   H504      1.0  0.16384  0.57252  0.73873  1.0000
  H   H505      1.0  0.33426  0.94633  0.55021  1.0000
  H   H506      1.0  0.33548  0.73232  0.63906  1.0000
  C   C434      1.0  0.22946  0.62672  0.70043  1.0000
  Fe  Fe57      1.0  0.07459  0.89567  0.76059  1.0000
  C   C435      1.0  0.34350  0.72655  0.61879  1.0000
  H   H507      1.0  0.32636  0.72231  0.60538  1.0000
  C   C436      1.0  0.34914  0.68050  0.63439  1.0000
  C   C437      1.0  0.32293  0.63644  0.65946  1.0000
  S   S113      1.0  0.25707  0.53335  0.53201  1.0000
  N   N29       1.0  0.19195  0.59854  0.71858  1.0000
  C   C438      1.0  0.32510  0.66981  0.62407  1.0000
  H   H508      1.0  0.35315  0.68828  0.58072  1.0000
  H   H509      1.0  0.46984  0.99474  0.67513  1.0000
  H   H510      1.0  0.01958  0.85181  0.65654  1.0000
  H   H511      1.0  0.31597  0.67820  0.60631  1.0000
  H   H512      1.0  0.47644  0.88679  0.60058  1.0000
  C   C439      1.0  0.35956  0.66806  0.65794  1.0000
  H   H513      1.0  0.35265  0.62906  0.57372  1.0000
  C   C440      1.0  0.21941  0.60904  0.72051  1.0000
  H   H514      1.0  0.33100  0.56621  0.70557  1.0000
  C   C441      1.0  0.22571  0.90704  0.68436  1.0000
  Fe  Fe58      1.0  0.35260  0.81579  0.53628  1.0000
  H   H515      1.0  0.31293  0.61957  0.66894  1.0000
  H   H516      1.0  0.19780  0.56186  0.74116  1.0000
  C   C442      1.0  0.34373  0.56690  0.60119  1.0000
  H   H517      1.0  0.34305  0.55806  0.62112  1.0000
  C   C443      1.0  0.31223  0.64817  0.63644  1.0000
  H   H518      1.0  0.29384  0.64049  0.62801  1.0000
  H   H519      1.0  0.35481  0.63699  0.68805  1.0000
  C   C444      1.0  0.31180  0.55965  0.71292  1.0000
  C   C445      1.0  0.02874  0.79421  0.75851  1.0000
  C   C446      1.0  0.15044  0.85263  0.67033  1.0000
  H   H520      1.0  0.50800  0.97147  0.69643  1.0000
  C   C447      1.0  0.36259  0.97234  0.53106  1.0000
  H   H521      1.0  0.17413  0.91520  0.71038  1.0000
  H   H522      1.0  0.13626  0.88946  0.72675  1.0000
  S   S114      1.0  0.32626  0.85200  0.52968  1.0000
  H   H523      1.0  0.19253  0.59605  0.67485  1.0000
  H   H524      1.0  0.35418  0.90997  0.74091  1.0000
  Fe  Fe59      1.0  0.29731  0.00079  0.61832  1.0000
  H   H525      1.0  0.35491  0.99042  0.54106  1.0000
  C   C448      1.0  0.30861  0.55328  0.74059  1.0000
  H   H526      1.0  0.35075  0.90533  0.52782  1.0000
  H   H527      1.0  0.32520  0.55517  0.75426  1.0000
  C   C449      1.0  0.33721  0.56550  0.55272  1.0000
  C   C450      1.0  0.36058  0.92411  0.52330  1.0000
  H   H528      1.0  0.17562  0.63542  0.70192  1.0000
  H   H529      1.0  0.15490  0.54603  0.55948  1.0000
  H   H530      1.0  0.02545  0.56886  0.69339  1.0000
  H   H531      1.0  0.02599  0.52256  0.70194  1.0000
  C   C451      1.0  0.48992  0.99842  0.66787  1.0000
  H   H532      1.0  0.23149  0.58844  0.75787  1.0000
  S   S115      1.0  0.22014  0.00729  0.68258  1.0000
  H   H533      1.0  0.41499  0.88823  0.52662  1.0000
  C   C452      1.0  0.15250  0.53684  0.53964  1.0000
  H   H534      1.0  0.26305  0.64869  0.68489  1.0000
  C   C453      1.0  0.27267  0.62789  0.72161  1.0000
  C   C454      1.0  0.28400  0.54439  0.75046  1.0000
  H   H535      1.0  0.27659  0.60470  0.75797  1.0000
  H   H536      1.0  0.18556  0.59035  0.76091  1.0000
  H   H537      1.0  0.28887  0.52954  0.58261  1.0000
  N   N30       1.0  0.33099  0.52242  0.58006  1.0000
  C   C455      1.0  0.23705  0.60190  0.74171  1.0000
  C   C456      1.0  0.26326  0.61122  0.74208  1.0000
  H   H538      1.0  0.02757  0.73703  0.52163  1.0000
  C   C457      1.0  0.17338  0.53737  0.52100  1.0000
  H   H539      1.0  0.19196  0.54699  0.52644  1.0000
  Fe  Fe60      1.0  0.49892  0.85798  0.76644  1.0000
  Fe  Fe61      1.0  0.01854  0.68376  0.65486  1.0000
  S   S116      1.0  0.35378  0.71306  0.52011  1.0000
  S   S117      1.0  0.01564  0.74354  0.73905  1.0000
  H   H540      1.0  0.01368  0.58597  0.74826  1.0000
  H   H541      1.0  0.38248  0.87351  0.52508  1.0000
  C   C458      1.0  0.49435  0.01645  0.64680  1.0000
  S   S118      1.0  0.01104  0.69565  0.61129  1.0000
  H   H542      1.0  0.01183  0.76199  0.64349  1.0000
  H   H543      1.0  0.01090  0.75006  0.67763  1.0000
  N   N31       1.0  0.39659  0.84308  0.81926  1.0000
  C   C459      1.0  0.36303  0.77447  0.80962  1.0000
  H   H544      1.0  0.03684  0.83458  0.77352  1.0000
  S   S119      1.0  0.12728  0.84155  0.00214  1.0000
  Fe  Fe62      1.0  0.19149  0.79580  0.00740  1.0000
  S   S120      1.0  0.19305  0.83853  0.99285  1.0000
  H   H545      1.0  0.21589  0.96705  0.93429  1.0000
  Fe  Fe63      1.0  0.15618  0.82774  0.96969  1.0000
  S   S121      1.0  0.15580  0.83247  0.92443  1.0000
  S   S122      1.0  0.15611  0.78429  0.98233  1.0000
  Fe  Fe64      1.0  0.08087  0.91413  0.81923  1.0000
  S   S123      1.0  0.04711  0.91760  0.78981  1.0000
  S   S124      1.0  0.07240  0.90581  0.86337  1.0000
  H   H546      1.0  0.24840  0.59905  0.97679  1.0000
  H   H547      1.0  0.40248  0.87792  0.84513  1.0000
  C   C460      1.0  0.07000  0.79880  0.91378  1.0000
  S   S125      1.0  0.09906  0.95398  0.80844  1.0000
  Fe  Fe65      1.0  0.43009  0.78849  0.92298  1.0000
  S   S126      1.0  0.42630  0.78519  0.96810  1.0000
  S   S127      1.0  0.44522  0.82731  0.90505  1.0000
  Fe  Fe66      1.0  0.40299  0.73451  0.91400  1.0000
  S   S128      1.0  0.39695  0.72729  0.95836  1.0000
  S   S129      1.0  0.39101  0.70719  0.87962  1.0000
  Fe  Fe67      1.0  0.38427  0.77115  0.96033  1.0000
  S   S130      1.0  0.34868  0.79427  0.97879  1.0000
  Fe  Fe68      1.0  0.43959  0.74199  0.96166  1.0000
  S   S131      1.0  0.47018  0.71865  0.98675  1.0000
  S   S132      1.0  0.38778  0.77706  0.91549  1.0000
  S   S133      1.0  0.44594  0.74643  0.91701  1.0000
  Fe  Fe69      1.0  0.32230  0.56928  0.87186  1.0000
  S   S134      1.0  0.28695  0.54328  0.86300  1.0000
  S   S135      1.0  0.31681  0.60625  0.89868  1.0000
  C   C461      1.0  0.26839  0.55371  0.92906  1.0000
  H   H548      1.0  0.25143  0.80698  0.88162  1.0000
  S   S136      1.0  0.33995  0.56455  0.83015  1.0000
  H   H549      1.0  0.42441  0.65762  0.87847  1.0000
  C   C462      1.0  0.37116  0.67871  0.88560  1.0000
  C   C463      1.0  0.36061  0.67343  0.91123  1.0000
  C   C464      1.0  0.34410  0.65097  0.91509  1.0000
  C   C465      1.0  0.33870  0.63332  0.89355  1.0000
  C   C466      1.0  0.34981  0.63826  0.86809  1.0000
  C   C467      1.0  0.36574  0.66109  0.86407  1.0000
  H   H550      1.0  0.36490  0.68673  0.92799  1.0000
  H   H551      1.0  0.33565  0.64709  0.93486  1.0000
  H   H552      1.0  0.34561  0.62481  0.85135  1.0000
  H   H553      1.0  0.37393  0.66505  0.84420  1.0000
  H   H554      1.0  0.34106  0.73262  0.91683  1.0000
  H   H555      1.0  0.30382  0.58431  0.95088  1.0000
  C   C468      1.0  0.13088  0.85125  0.90820  1.0000
  C   C469      1.0  0.13035  0.85113  0.87989  1.0000
  C   C470      1.0  0.11212  0.86742  0.86603  1.0000
  C   C471      1.0  0.09433  0.88401  0.88040  1.0000
  C   C472      1.0  0.09432  0.88357  0.90878  1.0000
  C   C473      1.0  0.11261  0.86724  0.92270  1.0000
  H   H556      1.0  0.14430  0.83861  0.86860  1.0000
  H   H557      1.0  0.11187  0.86710  0.84423  1.0000
  H   H558      1.0  0.08048  0.89627  0.91999  1.0000
  H   H559      1.0  0.11296  0.86753  0.94455  1.0000
  C   C474      1.0  0.26125  0.77543  0.00010  1.0000
  H   H560      1.0  0.22896  0.58440  0.95026  1.0000
  C   C475      1.0  0.30785  0.76065  0.99608  1.0000
  C   C476      1.0  0.31492  0.78554  0.98503  1.0000
  C   C477      1.0  0.29491  0.80515  0.98119  1.0000
  C   C478      1.0  0.26822  0.80011  0.98851  1.0000
  C   C479      1.0  0.27362  0.77256  0.89614  1.0000
  H   H561      1.0  0.41536  0.84757  0.85839  1.0000
  H   H562      1.0  0.30098  0.73067  0.87083  1.0000
  H   H563      1.0  0.43863  0.83412  0.81581  1.0000
  S   S137      1.0  0.27829  0.53703  0.78535  1.0000
  H   H564      1.0  0.47072  0.63576  0.95713  1.0000
  C   C480      1.0  0.49508  0.82706  0.82738  1.0000
  C   C481      1.0  0.49021  0.80268  0.84076  1.0000
  C   C482      1.0  0.47534  0.80245  0.86496  1.0000
  C   C483      1.0  0.46576  0.82670  0.87608  1.0000
  C   C484      1.0  0.47135  0.85113  0.86310  1.0000
  C   C485      1.0  0.48579  0.85131  0.83872  1.0000
  C   C486      1.0  0.42261  0.84526  0.80517  1.0000
  H   H565      1.0  0.47116  0.78354  0.87486  1.0000
  H   H566      1.0  0.46409  0.86995  0.87171  1.0000
  H   H567      1.0  0.11326  0.76819  0.93136  1.0000
  N   N32       1.0  0.17445  0.93571  0.85591  1.0000
  C   C487      1.0  0.20003  0.92939  0.84197  1.0000
  C   C488      1.0  0.15462  0.91566  0.84660  1.0000
  C   C489      1.0  0.16501  0.96272  0.84717  1.0000
  C   C490      1.0  0.17848  0.93561  0.88556  1.0000
  C   C491      1.0  0.19685  0.95360  0.89767  1.0000
  C   C492      1.0  0.16505  0.91751  0.90311  1.0000
  Fe  Fe70      1.0  0.12217  0.93030  0.77715  1.0000
  C   C493      1.0  0.18837  0.93497  0.94205  1.0000
  H   H568      1.0  0.10590  0.81397  0.95005  1.0000
  H   H569      1.0  0.03555  0.79389  0.95721  1.0000
  N   N33       1.0  0.45895  0.65725  0.92123  1.0000
  H   H570      1.0  0.21535  0.94503  0.84556  1.0000
  H   H571      1.0  0.07378  0.82373  0.96290  1.0000
  H   H572      1.0  0.15206  0.91613  0.82430  1.0000
  H   H573      1.0  0.13456  0.91976  0.85553  1.0000
  H   H574      1.0  0.17973  0.97885  0.85115  1.0000
  H   H575      1.0  0.03884  0.76289  0.93842  1.0000
  H   H576      1.0  0.14605  0.96840  0.85764  1.0000
  H   H577      1.0  0.34703  0.76554  0.79812  1.0000
  H   H578      1.0  0.44135  0.68619  0.94890  1.0000
  H   H579      1.0  0.20123  0.90144  0.01731  1.0000
  H   H580      1.0  0.15062  0.90324  0.89592  1.0000
  H   H581      1.0  0.40837  0.61942  0.85195  1.0000
  H   H582      1.0  0.37402  0.73691  0.82854  1.0000
  H   H583      1.0  0.41122  0.75682  0.85394  1.0000
  H   H584      1.0  0.21877  0.76838  0.95147  1.0000
  Fe  Fe71      1.0  0.36050  0.52793  0.84741  1.0000
  H   H585      1.0  0.27850  0.70672  0.88553  1.0000
  H   H586      1.0  0.31391  0.70160  0.88730  1.0000
  H   H587      1.0  0.42911  0.86666  0.80339  1.0000
  S   S138      1.0  0.10704  0.89002  0.79102  1.0000
  H   H588      1.0  0.25316  0.81549  0.98550  1.0000
  H   H589      1.0  0.26115  0.56894  0.01246  1.0000
  H   H590      1.0  0.21636  0.80401  0.91690  1.0000
  H   H591      1.0  0.42402  0.57310  0.86133  1.0000
  C   C494      1.0  0.43554  0.66920  0.93540  1.0000
  Fe  Fe72      1.0  0.12941  0.79860  0.01646  1.0000
  C   C495      1.0  0.45024  0.63392  0.90469  1.0000
  C   C496      1.0  0.29730  0.71189  0.93651  1.0000
  H   H592      1.0  0.19759  0.92811  0.81963  1.0000
  C   C497      1.0  0.08233  0.78958  0.88938  1.0000
  H   H593      1.0  0.29823  0.72171  0.95675  1.0000
  C   C498      1.0  0.25417  0.54464  0.97621  1.0000
  S   S139      1.0  0.34585  0.53541  0.88989  1.0000
  H   H594      1.0  0.45626  0.68740  0.88971  1.0000
  H   H595      1.0  0.15987  0.90278  0.94368  1.0000
  C   C499      1.0  0.39864  0.85583  0.84644  1.0000
  H   H596      1.0  0.32309  0.74561  0.99973  1.0000
  N   N34       1.0  0.26621  0.56416  0.95720  1.0000
  C   C500      1.0  0.23272  0.78954  0.91644  1.0000
  C   C501      1.0  0.17011  0.91717  0.93086  1.0000
  H   H597      1.0  0.03572  0.85222  0.88630  1.0000
  C   C502      1.0  0.43192  0.63776  0.88332  1.0000
  H   H598      1.0  0.32440  0.75908  0.93557  1.0000
  C   C503      1.0  0.42262  0.61604  0.86796  1.0000
  C   C504      1.0  0.23401  0.76934  0.93582  1.0000
  S   S140      1.0  0.22827  0.76856  0.01136  1.0000
  H   H599      1.0  0.08504  0.74609  0.92588  1.0000
  H   H600      1.0  0.35653  0.85756  0.81286  1.0000
  H   H601      1.0  0.16119  0.96316  0.82497  1.0000
  C   C505      1.0  0.24262  0.51992  0.96756  1.0000
  S   S141      1.0  0.48369  0.89927  0.77738  1.0000
  H   H602      1.0  0.48739  0.66936  0.89097  1.0000
  H   H603      1.0  0.30016  0.82458  0.97288  1.0000
  H   H604      1.0  0.42170  0.83677  0.78430  1.0000
  C   C506      1.0  0.45886  0.60694  0.90954  1.0000
  C   C507      1.0  0.44948  0.58536  0.89393  1.0000
  C   C508      1.0  0.27559  0.75172  0.91563  1.0000
  H   H605      1.0  0.37619  0.85273  0.78218  1.0000
  C   C509      1.0  0.47893  0.65016  0.94208  1.0000
  Fe  Fe73      1.0  0.30621  0.53579  0.82212  1.0000
  H   H606      1.0  0.27807  0.56856  0.91545  1.0000
  C   C510      1.0  0.39916  0.76950  0.84098  1.0000
  C   C511      1.0  0.29346  0.57143  0.96600  1.0000
  H   H607      1.0  0.42522  0.65392  0.94804  1.0000
  H   H608      1.0  0.31451  0.69768  0.93531  1.0000
  C   C512      1.0  0.29781  0.71722  0.88843  1.0000
  C   C513      1.0  0.37678  0.85906  0.80381  1.0000
  C   C514      1.0  0.36864  0.80201  0.80704  1.0000
  H   H609      1.0  0.50653  0.74364  0.94723  1.0000
  H   H610      1.0  0.25794  0.60408  0.94221  1.0000
  C   C515      1.0  0.38966  0.81417  0.82179  1.0000
  H   H611      1.0  0.38195  0.88092  0.80342  1.0000
  C   C516      1.0  0.25505  0.75068  0.93558  1.0000
  H   H612      1.0  0.42161  0.80445  0.84984  1.0000
  H   H613      1.0  0.27904  0.69933  0.93545  1.0000
  C   C517      1.0  0.04936  0.77688  0.95236  1.0000
  H   H614      1.0  0.35643  0.81328  0.79317  1.0000
  C   C518      1.0  0.05280  0.82158  0.91188  1.0000
  H   H615      1.0  0.30596  0.55309  0.96875  1.0000
  H   H616      1.0  0.19227  0.93453  0.96359  1.0000
  N   N35       1.0  0.29810  0.73218  0.91452  1.0000
  C   C519      1.0  0.28119  0.75570  0.00366  1.0000
  H   H617      1.0  0.49734  0.64144  0.93278  1.0000
  H   H618      1.0  0.25482  0.73593  0.95156  1.0000
  H   H619      1.0  0.42066  0.67747  0.92111  1.0000
  H   H620      1.0  0.33193  0.84981  0.01386  1.0000
  H   H621      1.0  0.09171  0.79707  0.97875  1.0000
  C   C520      1.0  0.40488  0.79693  0.83860  1.0000
  H   H622      1.0  0.49750  0.78388  0.83211  1.0000
  C   C521      1.0  0.06060  0.82477  0.86368  1.0000
  C   C522      1.0  0.24965  0.58903  0.95664  1.0000
  H   H623      1.0  0.32723  0.76068  0.89954  1.0000
  H   H624      1.0  0.38012  0.85288  0.85850  1.0000
  C   C523      1.0  0.20165  0.95324  0.92551  1.0000
  N   N36       1.0  0.07488  0.78608  0.94034  1.0000
  C   C524      1.0  0.09316  0.76238  0.93896  1.0000
  C   C525      1.0  0.08702  0.80611  0.95878  1.0000
  H   H625      1.0  0.01688  0.78875  0.77595  1.0000
  C   C526      1.0  0.32371  0.74676  0.91669  1.0000
  H   H626      1.0  0.48517  0.66828  0.95393  1.0000
  H   H627      1.0  0.09633  0.75340  0.95934  1.0000
  H   H628      1.0  0.28848  0.77469  0.88042  1.0000
  H   H629      1.0  0.09599  0.77267  0.88875  1.0000
  H   H630      1.0  0.20782  0.96792  0.88562  1.0000
  H   H631      1.0  0.05249  0.76604  0.97181  1.0000
  H   H632      1.0  0.16086  0.89465  0.85148  1.0000
  C   C527      1.0  0.47099  0.67809  0.90359  1.0000
  H   H633      1.0  0.20821  0.90963  0.84877  1.0000
  H   H634      1.0  0.29358  0.58299  0.98528  1.0000
  H   H635      1.0  0.45612  0.56488  0.89787  1.0000
  S   S142      1.0  0.16684  0.93405  0.77249  1.0000
  H   H636      1.0  0.48982  0.87023  0.82880  1.0000
  C   C528      1.0  0.25249  0.79115  0.89662  1.0000
  C   C529      1.0  0.43137  0.58990  0.87326  1.0000
  C   C530      1.0  0.07753  0.80243  0.86476  1.0000
  H   H637      1.0  0.47271  0.60192  0.92531  1.0000
  Fe  Fe74      1.0  0.06724  0.95626  0.77706  1.0000
  H   H638      1.0  0.24859  0.54957  0.92011  1.0000
  C   C531      1.0  0.37822  0.75828  0.82663  1.0000
  H   H639      1.0  0.08729  0.79529  0.84640  1.0000
  H   H640      1.0  0.47942  0.69508  0.91563  1.0000
  H   H641      1.0  0.28067  0.53492  0.92795  1.0000
  H   H642      1.0  0.23270  0.94008  0.01795  1.0000
  H   H643      1.0  0.05743  0.83507  0.84466  1.0000
  H   H644      1.0  0.04301  0.82998  0.92958  1.0000
  C   C532      1.0  0.04830  0.83435  0.88718  1.0000
  C   C533      1.0  0.50553  0.71842  0.98249  1.0000
  H   H645      1.0  0.48523  0.79433  0.99073  1.0000
  H   H646      1.0  0.01924  0.00446  0.82679  1.0000
  H   H647      1.0  0.27607  0.73661  0.01280  1.0000
  H   H648      1.0  0.02295  0.96903  0.82833  1.0000
  S   S143      1.0  0.40498  0.52112  0.84378  1.0000
  H   H649      1.0  0.32374  0.89916  0.01185  1.0000
  H   H650      1.0  0.05614  0.81229  0.01026  1.0000
  C   C534      1.0  0.25313  0.55045  0.00436  1.0000
  H   H651      1.0  0.01165  0.98755  0.85780  1.0000
  C   C535      1.0  0.49921  0.78661  0.00541  1.0000
  H   H652      1.0  0.01395  0.54058  0.76959  1.0000
  S   S144      1.0  0.04223  0.99439  0.77024  1.0000
  H   H653      1.0  0.84681  0.10103  0.22421  1.0000
  C   C536      1.0  0.53282  0.27608  0.17181  1.0000
  S   S145      1.0  0.59805  0.29139  0.05861  1.0000
  H   H654      1.0  0.91431  0.03197  0.20548  1.0000
  H   H655      1.0  0.64148  0.41638  0.04989  1.0000
  H   H656      1.0  0.61323  0.34331  0.08552  1.0000
  H   H657      1.0  0.64036  0.34300  0.06222  1.0000
  H   H658      1.0  0.93441  0.12818  0.22779  1.0000
  C   C537      1.0  0.58399  0.38820  0.10113  1.0000
  C   C538      1.0  0.54800  0.24578  0.10656  1.0000
  S   S146      1.0  0.89531  0.06536  0.16100  1.0000
  S   S147      1.0  0.82098  0.05244  0.16718  1.0000
  C   C539      1.0  0.57141  0.40107  0.12303  1.0000
  C   C540      1.0  0.55949  0.48271  0.22092  1.0000
  H   H659      1.0  0.74767  0.04566  0.05748  1.0000
  C   C541      1.0  0.53030  0.25480  0.12738  1.0000
  C   C542      1.0  0.51212  0.47701  0.21571  1.0000
  H   H660      1.0  0.51785  0.21075  0.15699  1.0000
  H   H661      1.0  0.95421  0.03616  0.23467  1.0000
  H   H662      1.0  0.55255  0.39353  0.13065  1.0000
  C   C543      1.0  0.88821  0.08768  0.25886  1.0000
  C   C544      1.0  0.54235  0.25026  0.07930  1.0000
  Fe  Fe75      1.0  0.51266  0.39903  0.19669  1.0000
  H   H663      1.0  0.00467  0.20507  0.09010  1.0000
  S   S148      1.0  0.99714  0.07410  0.23581  1.0000
  H   H664      1.0  0.53787  0.27362  0.19357  1.0000
  C   C545      1.0  0.81935  0.04803  0.02862  1.0000
  C   C546      1.0  0.98700  0.17682  0.11760  1.0000
  H   H665      1.0  0.51543  0.26806  0.05084  1.0000
  C   C547      1.0  0.76779  0.04645  0.04956  1.0000
  H   H666      1.0  0.96942  0.18917  0.12123  1.0000
  C   C548      1.0  0.53777  0.46584  0.21511  1.0000
  Fe  Fe76      1.0  0.86230  0.03470  0.16525  1.0000
  S   S149      1.0  0.78250  0.02989  0.10049  1.0000
  Fe  Fe77      1.0  0.81109  0.02155  0.13542  1.0000
  C   C549      1.0  0.92367  0.06695  0.18177  1.0000
  C   C550      1.0  0.92817  0.04826  0.20233  1.0000
  C   C551      1.0  0.95083  0.05059  0.21872  1.0000
  C   C552      1.0  0.96912  0.07155  0.21462  1.0000
  C   C553      1.0  0.96467  0.09013  0.19395  1.0000
  C   C554      1.0  0.94201  0.08782  0.17762  1.0000
  C   C555      1.0  0.63044  0.35533  0.07835  1.0000
  H   H667      1.0  0.97852  0.10641  0.19072  1.0000
  H   H668      1.0  0.93857  0.10236  0.16177  1.0000
  C   C556      1.0  0.57031  0.30972  0.07089  1.0000
  C   C557      1.0  0.55234  0.32196  0.05329  1.0000
  C   C558      1.0  0.53047  0.33661  0.06365  1.0000
  C   C559      1.0  0.52645  0.33909  0.09163  1.0000
  C   C560      1.0  0.54433  0.32674  0.10926  1.0000
  C   C561      1.0  0.56619  0.31204  0.09890  1.0000
  H   H669      1.0  0.55505  0.31986  0.03170  1.0000
  C   C562      1.0  0.78925  0.04036  0.06667  1.0000
  H   H670      1.0  0.54135  0.32859  0.13080  1.0000
  H   H671      1.0  0.57998  0.30248  0.11260  1.0000
  S   S150      1.0  0.52616  0.35839  0.18008  1.0000
  H   H672      1.0  0.64448  0.35710  0.09554  1.0000
  H   H673      1.0  0.51787  0.22777  0.18930  1.0000
  N   N37       1.0  0.62219  0.38226  0.06837  1.0000
  H   H674      1.0  0.56595  0.23694  0.18402  1.0000
  N   N38       1.0  0.86231  0.07421  0.25469  1.0000
  C   C563      1.0  0.77203  0.05356  0.02226  1.0000
  C   C564      1.0  0.60871  0.39730  0.09065  1.0000
  H   H675      1.0  0.58992  0.50891  0.09413  1.0000
  C   C565      1.0  0.62010  0.42020  0.10354  1.0000
  C   C566      1.0  0.85077  0.07919  0.22760  1.0000
  C   C567      1.0  0.60740  0.43289  0.12559  1.0000
  C   C568      1.0  0.58319  0.42326  0.13539  1.0000
  C   C569      1.0  0.81514  0.04153  0.05608  1.0000
  C   C570      1.0  0.86567  0.04459  0.25759  1.0000
  S   S151      1.0  0.54367  0.43097  0.20776  1.0000
  H   H676      1.0  0.59618  0.39823  0.03785  1.0000
  Fe  Fe78      1.0  0.81281  0.02078  0.19876  1.0000
  H   H677      1.0  0.83132  0.06883  0.22511  1.0000
  C   C571      1.0  0.57879  0.51515  0.11200  1.0000
  C   C572      1.0  0.99003  0.15227  0.13087  1.0000
  C   C573      1.0  0.92520  0.11607  0.24342  1.0000
  H   H678      1.0  0.97458  0.14551  0.14467  1.0000
  H   H679      1.0  0.63894  0.42848  0.09721  1.0000
  H   H680      1.0  0.53493  0.49042  0.15801  1.0000
  H   H681      1.0  0.58650  0.36566  0.05038  1.0000
  C   C574      1.0  0.51917  0.26381  0.07195  1.0000
  H   H682      1.0  0.55987  0.47656  0.11679  1.0000
  H   H683      1.0  0.57942  0.47433  0.22051  1.0000
  C   C575      1.0  0.60378  0.37851  0.04533  1.0000
  H   H684      1.0  0.66225  0.39733  0.07302  1.0000
  H   H685      1.0  0.61655  0.45008  0.13542  1.0000
  H   H686      1.0  0.83942  0.04834  0.02060  1.0000
  C   C576      1.0  0.55562  0.51029  0.22748  1.0000
  C   C577      1.0  0.00682  0.18568  0.10002  1.0000
  H   H687      1.0  0.65527  0.38446  0.04020  1.0000
  C   C578      1.0  0.64631  0.39586  0.05761  1.0000
  H   H688      1.0  0.84703  0.03370  0.25259  1.0000
  H   H689      1.0  0.56533  0.21880  0.15287  1.0000
  H   H690      1.0  0.51222  0.28433  0.17188  1.0000
  C   C579      1.0  0.56245  0.23926  0.16193  1.0000
  H   H691      1.0  0.54617  0.29180  0.16333  1.0000
  H   H692      1.0  0.88174  0.03683  0.24393  1.0000
  H   H693      1.0  0.56664  0.23573  0.11065  1.0000
  H   H694      1.0  0.86412  0.07148  0.21115  1.0000
  C   C580      1.0  0.90037  0.10431  0.23899  1.0000
  S   S152      1.0  0.78752  0.03108  0.23623  1.0000
  C   C581      1.0  0.56193  0.49688  0.12474  1.0000
  N   N39       1.0  0.53546  0.25028  0.15647  1.0000
  H   H695      1.0  0.89156  0.10802  0.21950  1.0000
  H   H696      1.0  0.57821  0.25289  0.15400  1.0000
  H   H697      1.0  0.57435  0.37071  0.09272  1.0000
  H   H698      1.0  0.55661  0.24415  0.06378  1.0000
  C   C582      1.0  0.54777  0.50475  0.14781  1.0000
  H   H699      1.0  0.57359  0.43281  0.15278  1.0000
  H   H700      1.0  0.61381  0.36809  0.02802  1.0000
  H   H701      1.0  0.83192  0.03720  0.06895  1.0000
  H   H702      1.0  0.51660  0.34602  0.04992  1.0000
  H   H703      1.0  0.99555  0.25197  0.17420  1.0000
  C   C583      1.0  0.51576  0.23082  0.16710  1.0000
  C   C584      1.0  0.93884  0.11132  0.26732  1.0000
  H   H704      1.0  0.80957  0.40572  0.39929  1.0000
  S   S153      1.0  0.76054  0.47394  0.44804  1.0000
  N   N40       1.0  0.58005  0.51357  0.30834  1.0000
  H   H705      1.0  0.00067  0.33989  0.49913  1.0000
  H   H706      1.0  0.92880  0.25917  0.43486  1.0000
  C   C585      1.0  0.53530  0.45754  0.28107  1.0000
  S   S154      1.0  0.85580  0.39495  0.47688  1.0000
  S   S155      1.0  0.85200  0.31795  0.48530  1.0000
  C   C586      1.0  0.95332  0.32256  0.43042  1.0000
  H   H707      1.0  0.82675  0.50566  0.46815  1.0000
  H   H708      1.0  0.52939  0.49918  0.28839  1.0000
  Fe  Fe79      1.0  0.85249  0.35911  0.50482  1.0000
  H   H709      1.0  0.60721  0.46526  0.30731  1.0000
  H   H710      1.0  0.54632  0.41621  0.27317  1.0000
  H   H711      1.0  0.77995  0.51504  0.48283  1.0000
  H   H712      1.0  0.77843  0.30191  0.45446  1.0000
  H   H713      1.0  0.91668  0.30630  0.44588  1.0000
  H   H714      1.0  0.82693  0.47835  0.49181  1.0000
  C   C587      1.0  0.00067  0.27251  0.48625  1.0000
  H   H715      1.0  0.77149  0.31560  0.42157  1.0000
  C   C588      1.0  0.98556  0.28989  0.41134  1.0000
  C   C589      1.0  0.78718  0.45226  0.45608  1.0000
  C   C590      1.0  0.81139  0.45355  0.44208  1.0000
  C   C591      1.0  0.83234  0.43596  0.44885  1.0000
  C   C592      1.0  0.82923  0.41708  0.46967  1.0000
  C   C593      1.0  0.80526  0.41630  0.48415  1.0000
  C   C594      1.0  0.78417  0.43365  0.47716  1.0000
  H   H716      1.0  0.81388  0.46785  0.42581  1.0000
  H   H717      1.0  0.85093  0.43677  0.43770  1.0000
  S   S156      1.0  0.77972  0.50289  0.37498  1.0000
  H   H718      1.0  0.93820  0.09162  0.30579  1.0000
  H   H719      1.0  0.76860  0.43227  0.39119  1.0000
  C   C595      1.0  0.58702  0.46383  0.30010  1.0000
  H   H720      1.0  0.78006  0.33413  0.49407  1.0000
  H   H721      1.0  0.75051  0.02721  0.32812  1.0000
  H   H722      1.0  0.76551  0.43275  0.48817  1.0000
  S   S157      1.0  0.92121  0.28108  0.50339  1.0000
  H   H723      1.0  0.96578  0.24731  0.48837  1.0000
  C   C596      1.0  0.70947  0.06988  0.48372  1.0000
  H   H724      1.0  0.71459  0.06463  0.46299  1.0000
  C   C597      1.0  0.96561  0.31487  0.50031  1.0000
  H   H725      1.0  0.72615  0.41860  0.41211  1.0000
  H   H726      1.0  0.95150  0.51321  0.36102  1.0000
  S   S158      1.0  0.78655  0.28029  0.51070  1.0000
  C   C598      1.0  0.74378  0.40622  0.41499  1.0000
  N   N41       1.0  0.76569  0.34377  0.45447  1.0000
  C   C599      1.0  0.76772  0.41399  0.40312  1.0000
  H   H727      1.0  0.84877  0.07892  0.29613  1.0000
  C   C600      1.0  0.79001  0.37627  0.42429  1.0000
  C   C601      1.0  0.57845  0.43863  0.29084  1.0000
  C   C602      1.0  0.73849  0.33454  0.46188  1.0000
  H   H728      1.0  0.80156  0.32393  0.43931  1.0000
  H   H729      1.0  0.72654  0.32997  0.44360  1.0000
  H   H730      1.0  0.80306  0.40244  0.50079  1.0000
  C   C603      1.0  0.93549  0.30186  0.43584  1.0000
  H   H731      1.0  0.72359  0.37875  0.44024  1.0000
  H   H732      1.0  0.97171  0.24826  0.41375  1.0000
  C   C604      1.0  0.77987  0.32042  0.44178  1.0000
  H   H733      1.0  0.56986  0.50679  0.35003  1.0000
  C   C605      1.0  0.74267  0.38324  0.43128  1.0000
  H   H734      1.0  0.83997  0.10617  0.27406  1.0000
  C   C606      1.0  0.76582  0.36736  0.43621  1.0000
  C   C607      1.0  0.71933  0.09337  0.49545  1.0000
  C   C608      1.0  0.54371  0.48291  0.28999  1.0000
  C   C609      1.0  0.99309  0.31965  0.49657  1.0000
  C   C610      1.0  0.96702  0.26927  0.41755  1.0000
  H   H735      1.0  0.80877  0.36639  0.42848  1.0000
  H   H736      1.0  0.76943  0.36852  0.49002  1.0000
  H   H737      1.0  0.73905  0.31576  0.47418  1.0000
  C   C611      1.0  0.57005  0.48688  0.29955  1.0000
  C   C612      1.0  0.79077  0.39900  0.40770  1.0000
  C   C613      1.0  0.69316  0.05292  0.49873  1.0000
  C   C614      1.0  0.97806  0.31681  0.41845  1.0000
  C   C615      1.0  0.55270  0.43555  0.28115  1.0000
  H   H738      1.0  0.95231  0.33145  0.50526  1.0000
  C   C616      1.0  0.97327  0.26763  0.49052  1.0000
  H   H739      1.0  0.82281  0.07438  0.27220  1.0000
  C   C617      1.0  0.95553  0.28872  0.49761  1.0000
  H   H740      1.0  0.94815  0.34312  0.43615  1.0000
  H   H741      1.0  0.72763  0.34967  0.47463  1.0000
  H   H742      1.0  0.68570  0.03453  0.48954  1.0000
  H   H743      1.0  0.80056  0.35715  0.47578  1.0000
  C   C618      1.0  0.77955  0.35122  0.47967  1.0000
  H   H744      1.0  0.60364  0.49803  0.34130  1.0000
  H   H745      1.0  0.59195  0.42145  0.29076  1.0000
  C   C619      1.0  0.90234  0.08391  0.28332  1.0000
  H   H746      1.0  0.75101  0.04030  0.27983  1.0000
  H   H747      1.0  0.99107  0.33378  0.41542  1.0000
  H   H748      1.0  0.87077  0.03859  0.27853  1.0000
  Fe  Fe80      1.0  0.88506  0.30786  0.51423  1.0000
  C   C620      1.0  0.94237  0.27526  0.42954  1.0000
  C   C621      1.0  0.92737  0.09540  0.28731  1.0000
  C   C622      1.0  0.84269  0.08388  0.27518  1.0000
  H   H749      1.0  0.99919  0.24662  0.37779  1.0000
  H   H750      1.0  0.73205  0.10651  0.48369  1.0000
  H   H751      1.0  0.74201  0.24474  0.50674  1.0000
  C   C623      1.0  0.73473  0.26331  0.51587  1.0000
  H   H752      1.0  0.99442  0.27754  0.35943  1.0000
  H   H753      1.0  0.89434  0.07161  0.29937  1.0000
  H   H754      1.0  0.62146  0.50733  0.29683  1.0000
  C   C624      1.0  0.76640  0.02700  0.28737  1.0000
  C   C625      1.0  0.58725  0.51263  0.33734  1.0000
  H   H755      1.0  0.51544  0.45511  0.27298  1.0000
  H   H756      1.0  0.78262  0.48763  0.50574  1.0000
  Fe  Fe81      1.0  0.76854  0.50790  0.41879  1.0000
  H   H757      1.0  0.85260  0.50277  0.49280  1.0000
  C   C626      1.0  0.00775  0.26681  0.37373  1.0000
  C   C627      1.0  0.83093  0.50033  0.48954  1.0000
  Fe  Fe82      1.0  0.82257  0.30747  0.51832  1.0000
  C   C628      1.0  0.76595  0.01942  0.31478  1.0000
  C   C629      1.0  0.78614  0.50973  0.50371  1.0000
  N   N42       1.0  0.81440  0.51684  0.50848  1.0000
  H   H758      1.0  0.95857  0.11960  0.27010  1.0000
  H   H759      1.0  0.69372  0.25014  0.51666  1.0000
  H   H760      1.0  0.60083  0.35067  0.68589  1.0000
  C   C630      1.0  0.00230  0.48856  0.69349  1.0000
  H   H761      1.0  0.91957  0.27630  0.60861  1.0000
  Fe  Fe83      1.0  0.65404  0.05506  0.65155  1.0000
  S   S159      1.0  0.69763  0.06374  0.65297  1.0000
  S   S160      1.0  0.62265  0.08184  0.63296  1.0000
  Fe  Fe84      1.0  0.69658  0.04384  0.69402  1.0000
  S   S161      1.0  0.71584  0.06879  0.72787  1.0000
  S   S162      1.0  0.65207  0.03797  0.69344  1.0000
  C   C631      1.0  0.96113  0.33768  0.65478  1.0000
  Fe  Fe85      1.0  0.62313  0.23354  0.60523  1.0000
  S   S163      1.0  0.62138  0.22850  0.56023  1.0000
  S   S164      1.0  0.64909  0.20675  0.63082  1.0000
  Fe  Fe86      1.0  0.59049  0.28568  0.60492  1.0000
  S   S165      1.0  0.58683  0.28451  0.55965  1.0000
  S   S166      1.0  0.57152  0.32194  0.62574  1.0000
  Fe  Fe87      1.0  0.57775  0.24038  0.56521  1.0000
  S   S167      1.0  0.54352  0.21469  0.54834  1.0000
  Fe  Fe88      1.0  0.63066  0.27303  0.55925  1.0000
  C   C632      1.0  0.74280  0.30837  0.53267  1.0000
  S   S168      1.0  0.57953  0.24224  0.61069  1.0000
  S   S169      1.0  0.63430  0.27734  0.60417  1.0000
  C   C633      1.0  0.69726  0.29054  0.53231  1.0000
  S   S170      1.0  0.91832  0.45354  0.73364  1.0000
  H   H762      1.0  0.66855  0.45762  0.72538  1.0000
  H   H763      1.0  0.77519  0.32636  0.62367  1.0000
  Fe  Fe89      1.0  0.93577  0.41682  0.71273  1.0000
  S   S171      1.0  0.93602  0.41463  0.66707  1.0000
  S   S172      1.0  0.97605  0.41996  0.73216  1.0000
  C   C634      1.0  0.96475  0.30969  0.76662  1.0000
  H   H764      1.0  0.59889  0.38450  0.75406  1.0000
  H   H765      1.0  0.72967  0.10780  0.57462  1.0000
  H   H766      1.0  0.62931  0.36922  0.67462  1.0000
  Fe  Fe90      1.0  0.85552  0.33591  0.56104  1.0000
  S   S173      1.0  0.85441  0.33899  0.60651  1.0000
  S   S174      1.0  0.85552  0.29333  0.54539  1.0000
  C   C635      1.0  0.91229  0.39459  0.65055  1.0000
  C   C636      1.0  0.89506  0.37796  0.66509  1.0000
  C   C637      1.0  0.87711  0.36127  0.65132  1.0000
  C   C638      1.0  0.87621  0.36121  0.62300  1.0000
  C   C639      1.0  0.89319  0.37809  0.60842  1.0000
  C   C640      1.0  0.91127  0.39467  0.62220  1.0000
  H   H767      1.0  0.89570  0.37779  0.68692  1.0000
  H   H768      1.0  0.86399  0.34825  0.66267  1.0000
  H   H769      1.0  0.89247  0.37833  0.58660  1.0000
  H   H770      1.0  0.92458  0.40752  0.61088  1.0000
  H   H771      1.0  0.59377  0.03400  0.61031  1.0000
  H   H772      1.0  0.79674  0.26454  0.56666  1.0000
  H   H773      1.0  0.56186  0.02306  0.59887  1.0000
  H   H774      1.0  0.54138  0.35973  0.65716  1.0000
  Fe  Fe91      1.0  0.95887  0.39248  0.76402  1.0000
  C   C641      1.0  0.71523  0.31154  0.53785  1.0000
  C   C642      1.0  0.72459  0.06192  0.76203  1.0000
  C   C643      1.0  0.67724  0.11619  0.56884  1.0000
  H   H775      1.0  0.70480  0.42993  0.74455  1.0000
  C   C644      1.0  0.57262  0.03126  0.61665  1.0000
  C   C645      1.0  0.63010  0.11653  0.63239  1.0000
  C   C646      1.0  0.61417  0.13420  0.61735  1.0000
  C   C647      1.0  0.61991  0.16195  0.61656  1.0000
  C   C648      1.0  0.64156  0.17209  0.63095  1.0000
  C   C649      1.0  0.65759  0.15437  0.64580  1.0000
  C   C650      1.0  0.65190  0.12666  0.64651  1.0000
  H   H776      1.0  0.59729  0.12648  0.60636  1.0000
  H   H777      1.0  0.60745  0.17550  0.60505  1.0000
  H   H778      1.0  0.67426  0.16213  0.65708  1.0000
  H   H779      1.0  0.66410  0.11328  0.65844  1.0000
  C   C651      1.0  0.54616  0.32280  0.71474  1.0000
  C   C652      1.0  0.53916  0.34398  0.69762  1.0000
  C   C653      1.0  0.54662  0.34310  0.67023  1.0000
  C   C654      1.0  0.56108  0.32104  0.65973  1.0000
  C   C655      1.0  0.56767  0.29955  0.67666  1.0000
  C   C656      1.0  0.56019  0.30046  0.70414  1.0000
  S   S175      1.0  0.53851  0.32424  0.74957  1.0000
  H   H780      1.0  0.65826  0.11580  0.55736  1.0000
  H   H781      1.0  0.57879  0.28244  0.66870  1.0000
  S   S176      1.0  0.52833  0.40435  0.74622  1.0000
  N   N43       1.0  0.69122  0.08971  0.56706  1.0000
  C   C657      1.0  0.64246  0.42386  0.71882  1.0000
  H   H782      1.0  0.62720  0.43732  0.71144  1.0000
  H   H783      1.0  0.70772  0.33051  0.54589  1.0000
  C   C658      1.0  0.98544  0.32629  0.66201  1.0000
  Fe  Fe92      1.0  0.53000  0.36518  0.76868  1.0000
  H   H784      1.0  0.68412  0.04938  0.58159  1.0000
  H   H785      1.0  0.57516  0.38983  0.69527  1.0000
  C   C659      1.0  0.60127  0.36949  0.73740  1.0000
  H   H786      1.0  0.95192  0.35299  0.66767  1.0000
  H   H787      1.0  0.51389  0.26400  0.53417  1.0000
  H   H788      1.0  0.81120  0.49320  0.76371  1.0000
  H   H789      1.0  0.67211  0.12168  0.59016  1.0000
  C   C660      1.0  0.71660  0.09145  0.58210  1.0000
  C   C661      1.0  0.89521  0.20694  0.75798  1.0000
  C   C662      1.0  0.67430  0.06961  0.58106  1.0000
  H   H790      1.0  0.56504  0.05196  0.62147  1.0000
  C   C663      1.0  0.68658  0.42036  0.73795  1.0000
  C   C664      1.0  0.75264  0.28441  0.52102  1.0000
  Fe  Fe93      1.0  0.90631  0.42409  0.76598  1.0000
  C   C665      1.0  0.51333  0.25983  0.66485  1.0000
  H   H791      1.0  0.91364  0.21681  0.75022  1.0000
  H   H792      1.0  0.52795  0.36104  0.70546  1.0000
  C   C666      1.0  0.63856  0.39555  0.72122  1.0000
  H   H793      1.0  0.67045  0.07550  0.60245  1.0000
  H   H794      1.0  0.72806  0.07213  0.58044  1.0000
  Fe  Fe94      1.0  0.70335  0.02229  0.63467  1.0000
  C   C667      1.0  0.68336  0.39259  0.74072  1.0000
  H   H795      1.0  0.96547  0.33423  0.56521  1.0000
  H   H796      1.0  0.58116  0.36143  0.73306  1.0000
  C   C668      1.0  0.66621  0.43591  0.72699  1.0000
  H   H797      1.0  0.71356  0.02004  0.76173  1.0000
  C   C669      1.0  0.65974  0.38030  0.73251  1.0000
  N   N44       1.0  0.94691  0.30243  0.58784  1.0000
  C   C670      1.0  0.96080  0.28050  0.57252  1.0000
  C   C671      1.0  0.91946  0.29306  0.59375  1.0000
  C   C672      1.0  0.94531  0.32627  0.56996  1.0000
  C   C673      1.0  0.96037  0.31009  0.61328  1.0000
  C   C674      1.0  0.94873  0.32969  0.63087  1.0000
  C   C675      1.0  0.98536  0.29903  0.62111  1.0000
  C   C676      1.0  0.61935  0.36069  0.69281  1.0000
  H   H798      1.0  0.52227  0.03582  0.62136  1.0000
  H   H799      1.0  0.67455  0.04474  0.53613  1.0000
  H   H800      1.0  0.96280  0.26188  0.58482  1.0000
  H   H801      1.0  0.94968  0.27463  0.55400  1.0000
  H   H802      1.0  0.85071  0.46278  0.75924  1.0000
  S   S177      1.0  0.66232  0.29655  0.53544  1.0000
  H   H803      1.0  0.90935  0.28572  0.57514  1.0000
  H   H804      1.0  0.90641  0.30941  0.60206  1.0000
  H   H805      1.0  0.69923  0.38058  0.74940  1.0000
  H   H806      1.0  0.93564  0.32108  0.55046  1.0000
  H   H807      1.0  0.93343  0.34304  0.57916  1.0000
  Fe  Fe95      1.0  0.95776  0.45536  0.75454  1.0000
  H   H808      1.0  0.53317  0.18767  0.64084  1.0000
  H   H809      1.0  0.68943  0.13299  0.56082  1.0000
  H   H810      1.0  0.92999  0.33921  0.62615  1.0000
  H   H811      1.0  0.95307  0.32097  0.75223  1.0000
  N   N45       1.0  0.71694  0.25273  0.61419  1.0000
  C   C677      1.0  0.70009  0.25045  0.58984  1.0000
  C   C678      1.0  0.72445  0.22515  0.62308  1.0000
  C   C679      1.0  0.70034  0.26515  0.63600  1.0000
  C   C680      1.0  0.74121  0.26832  0.60763  1.0000
  C   C681      1.0  0.74736  0.29339  0.62031  1.0000
  C   C682      1.0  0.75967  0.25844  0.58799  1.0000
  C   C683      1.0  0.77073  0.30727  0.61387  1.0000
  C   C684      1.0  0.78303  0.27240  0.58188  1.0000
  C   C685      1.0  0.78853  0.29677  0.59476  1.0000
  H   H812      1.0  0.68183  0.23844  0.59382  1.0000
  H   H813      1.0  0.69351  0.27075  0.58292  1.0000
  H   H814      1.0  0.71057  0.24043  0.57264  1.0000
  H   H815      1.0  0.73420  0.21314  0.60671  1.0000
  H   H816      1.0  0.70669  0.21333  0.62950  1.0000
  H   H817      1.0  0.73832  0.22596  0.64050  1.0000
  H   H818      1.0  0.68241  0.25277  0.64055  1.0000
  H   H819      1.0  0.71157  0.26697  0.65521  1.0000
  H   H820      1.0  0.69266  0.28539  0.63004  1.0000
  H   H821      1.0  0.73444  0.30281  0.63517  1.0000
  H   H822      1.0  0.75609  0.23997  0.57690  1.0000
  H   H823      1.0  0.65799  0.35878  0.73537  1.0000
  H   H824      1.0  0.89216  0.18877  0.74510  1.0000
  C   C686      1.0  0.96478  0.28115  0.76600  1.0000
  H   H825      1.0  0.52399  0.25782  0.58564  1.0000
  H   H826      1.0  0.60138  0.41067  0.68290  1.0000
  S   S178      1.0  0.91990  0.38696  0.74296  1.0000
  H   H827      1.0  0.63221  0.34429  0.70074  1.0000
  H   H828      1.0  0.57617  0.04531  0.66908  1.0000
  H   H829      1.0  0.58695  0.41644  0.71613  1.0000
  H   H830      1.0  0.80658  0.30765  0.58979  1.0000
  H   H831      1.0  0.97628  0.45651  0.68112  1.0000
  H   H832      1.0  0.71316  0.09553  0.60402  1.0000
  C   C687      1.0  0.51747  0.27663  0.59608  1.0000
  C   C688      1.0  0.59353  0.40067  0.70136  1.0000
  S   S179      1.0  0.82090  0.34944  0.53578  1.0000
  H   H833      1.0  0.61315  0.35230  0.74525  1.0000
  C   C689      1.0  0.69686  0.08277  0.53840  1.0000
  H   H834      1.0  0.56566  0.28401  0.71732  1.0000
  N   N46       1.0  0.61356  0.38205  0.71324  1.0000
  H   H835      1.0  0.75626  0.32473  0.53710  1.0000
  H   H836      1.0  0.65441  0.06778  0.57153  1.0000
  H   H837      1.0  0.98083  0.28690  0.56528  1.0000
  C   C690      1.0  0.98527  0.47558  0.67564  1.0000
  C   C691      1.0  0.51591  0.22584  0.62944  1.0000
  H   H838      1.0  0.60626  0.02968  0.65693  1.0000
  H   H839      1.0  0.87818  0.22098  0.75459  1.0000
  C   C692      1.0  0.70730  0.26627  0.52161  1.0000
  H   H840      1.0  0.01055  0.04270  0.76636  1.0000
  H   H841      1.0  0.95320  0.27071  0.75090  1.0000
  H   H842      1.0  0.51363  0.21901  0.60876  1.0000
  C   C693      1.0  0.52027  0.02143  0.63753  1.0000
  C   C694      1.0  0.53159  0.21551  0.67434  1.0000
  C   C695      1.0  0.52458  0.24147  0.68293  1.0000
  H   H843      1.0  0.52821  0.24761  0.70366  1.0000
  H   H844      1.0  0.53566  0.28576  0.60470  1.0000
  C   C696      1.0  0.58528  0.02565  0.66282  1.0000
  H   H845      1.0  0.96615  0.47698  0.63715  1.0000
  S   S180      1.0  0.59407  0.43990  0.76765  1.0000
  C   C697      1.0  0.52726  0.20772  0.64765  1.0000
  H   H846      1.0  0.81597  0.48743  0.54046  1.0000
  H   H847      1.0  0.54068  0.20151  0.68832  1.0000
  C   C698      1.0  0.68689  0.05911  0.52567  1.0000
  H   H848      1.0  0.99497  0.33257  0.68060  1.0000
  H   H849      1.0  0.94554  0.51797  0.72345  1.0000
  C   C699      1.0  0.99752  0.30702  0.64523  1.0000
  S   S181      1.0  0.88716  0.34958  0.53196  1.0000
  H   H850      1.0  0.99600  0.28429  0.60893  1.0000
  S   S182      1.0  0.98007  0.49428  0.76493  1.0000
  H   H851      1.0  0.00635  0.47953  0.71299  1.0000
  H   H852      1.0  0.88406  0.50365  0.76832  1.0000
  C   C700      1.0  0.97959  0.48724  0.65081  1.0000
  C   C701      1.0  0.99093  0.51196  0.64372  1.0000
  H   H853      1.0  0.72135  0.11818  0.53061  1.0000
  C   C702      1.0  0.71310  0.09983  0.52235  1.0000
  H   H854      1.0  0.87388  0.15342  0.76907  1.0000
  C   C703      1.0  0.82090  0.50899  0.53656  1.0000
  H   H855      1.0  0.84241  0.51128  0.54103  1.0000
  H   H856      1.0  0.61771  0.08938  0.76876  1.0000
  C   C704      1.0  0.82490  0.16314  0.81535  1.0000
  S   S183      1.0  0.55956  0.37963  0.79932  1.0000
  H   H857      1.0  0.93913  0.18908  0.78361  1.0000
  H   H858      1.0  0.83318  0.13239  0.78564  1.0000
  Fe  Fe96      1.0  0.52415  0.39326  0.82355  1.0000
  H   H859      1.0  0.92217  0.34431  0.79614  1.0000
  H   H860      1.0  0.98990  0.03691  0.81892  1.0000
  S   S184      1.0  0.76515  0.50023  0.88533  1.0000
  H   H861      1.0  0.59262  0.10053  0.81070  1.0000
  H   H862      1.0  0.87188  0.48658  0.82765  1.0000
  S   S185      1.0  0.70408  0.50203  0.90999  1.0000
  H   H863      1.0  0.56959  0.41716  0.89249  1.0000
  Fe  Fe97      1.0  0.73319  0.47027  0.89597  1.0000
  S   S186      1.0  0.74033  0.43036  0.91645  1.0000
  S   S187      1.0  0.71693  0.46713  0.85398  1.0000
  Fe  Fe98      1.0  0.60171  0.29821  0.95489  1.0000
  S   S188      1.0  0.64205  0.31456  0.94517  1.0000
  S   S189      1.0  0.57638  0.28861  0.91887  1.0000
  Fe  Fe99      1.0  0.63469  0.34228  0.98032  1.0000
  S   S190      1.0  0.64019  0.38733  0.98085  1.0000
  Fe  Fe100     1.0  0.65642  0.28452  0.97578  1.0000
  S   S191      1.0  0.69442  0.26119  0.96673  1.0000
  S   S192      1.0  0.59292  0.32846  0.98773  1.0000
  S   S193      1.0  0.61640  0.26617  0.98325  1.0000
  H   H864      1.0  0.65791  0.03805  0.86926  1.0000
  C   C705      1.0  0.65340  0.40692  0.82522  1.0000
  C   C706      1.0  0.88652  0.13672  0.94884  1.0000
  S   S194      1.0  0.87214  0.42198  0.79599  1.0000
  S   S195      1.0  0.94458  0.42833  0.78840  1.0000
  Fe  Fe101     1.0  0.96114  0.14891  0.83557  1.0000
  S   S196      1.0  0.98709  0.15416  0.79898  1.0000
  S   S197      1.0  0.92542  0.12191  0.83242  1.0000
  Fe  Fe102     1.0  0.99096  0.19755  0.81331  1.0000
  C   C707      1.0  0.99517  0.30838  0.80414  1.0000
  S   S198      1.0  0.99448  0.13613  0.86212  1.0000
  S   S199      1.0  0.96272  0.19239  0.84834  1.0000
  Fe  Fe103     1.0  0.73430  0.11819  0.92332  1.0000
  S   S200      1.0  0.73882  0.07292  0.92530  1.0000
  S   S201      1.0  0.69413  0.13742  0.93207  1.0000
  Fe  Fe104     1.0  0.79074  0.12558  0.90336  1.0000
  S   S202      1.0  0.79908  0.08105  0.90275  1.0000
  S   S203      1.0  0.82101  0.15798  0.89523  1.0000
  Fe  Fe105     1.0  0.75839  0.07728  0.88430  1.0000
  S   S204      1.0  0.74636  0.04707  0.85145  1.0000
  Fe  Fe106     1.0  0.77900  0.08086  0.94383  1.0000
  S   S205      1.0  0.80448  0.06101  0.97677  1.0000
  S   S206      1.0  0.75187  0.12210  0.88166  1.0000
  S   S207      1.0  0.77261  0.12584  0.94495  1.0000
  C   C708      1.0  0.89670  0.13195  0.85035  1.0000
  C   C709      1.0  0.87424  0.11535  0.84987  1.0000
  C   C710      1.0  0.85094  0.12309  0.86375  1.0000
  C   C711      1.0  0.85000  0.14757  0.87797  1.0000
  C   C712      1.0  0.87242  0.16420  0.87836  1.0000
  C   C713      1.0  0.89582  0.15631  0.86476  1.0000
  H   H865      1.0  0.87478  0.09658  0.83855  1.0000
  H   H866      1.0  0.83356  0.11037  0.86299  1.0000
  H   H867      1.0  0.87169  0.18317  0.88930  1.0000
  H   H868      1.0  0.91310  0.16906  0.86549  1.0000
  H   H869      1.0  0.70528  0.09158  0.85030  1.0000
  C   C714      1.0  0.89780  0.28273  0.87010  1.0000
  H   H870      1.0  0.61221  0.41063  0.83345  1.0000
  H   H871      1.0  0.91705  0.16169  0.77802  1.0000
  C   C715      1.0  0.99493  0.27986  0.80374  1.0000
  C   C716      1.0  0.97976  0.26603  0.78461  1.0000
  C   C717      1.0  0.86298  0.16357  0.78513  1.0000
  S   S208      1.0  0.00126  0.19075  0.91614  1.0000
  H   H872      1.0  0.86256  0.21757  0.82876  1.0000
  C   C718      1.0  0.62723  0.08760  0.78827  1.0000
  S   S209      1.0  0.97933  0.23004  0.78254  1.0000
  C   C719      1.0  0.61198  0.39019  0.90933  1.0000
  H   H873      1.0  0.83145  0.14243  0.95111  1.0000
  H   H874      1.0  0.90837  0.22106  0.82363  1.0000
  C   C720      1.0  0.73895  0.05328  0.81686  1.0000
  C   C721      1.0  0.74201  0.07876  0.80522  1.0000
  C   C722      1.0  0.83841  0.46220  0.77727  1.0000
  C   C723      1.0  0.62548  0.09166  0.83716  1.0000
  N   N47       1.0  0.61251  0.41354  0.89064  1.0000
  H   H875      1.0  0.74990  0.09520  0.81714  1.0000
  H   H876      1.0  0.61811  0.45653  0.89311  1.0000
  C   C724      1.0  0.69428  0.22616  0.95949  1.0000
  C   C725      1.0  0.71787  0.21371  0.95026  1.0000
  C   C726      1.0  0.71809  0.18642  0.94220  1.0000
  C   C727      1.0  0.69467  0.17135  0.94328  1.0000
  C   C728      1.0  0.67112  0.18371  0.95273  1.0000
  C   C729      1.0  0.67096  0.21096  0.96102  1.0000
  H   H877      1.0  0.73601  0.22531  0.94905  1.0000
  H   H878      1.0  0.73635  0.17713  0.93493  1.0000
  H   H879      1.0  0.65298  0.17212  0.95382  1.0000
  H   H880      1.0  0.65277  0.22021  0.96844  1.0000
  C   C730      1.0  0.71292  0.41840  0.93505  1.0000
  C   C731      1.0  0.70951  0.39054  0.93845  1.0000
  C   C732      1.0  0.68724  0.38072  0.95257  1.0000
  C   C733      1.0  0.66861  0.39881  0.96372  1.0000
  C   C734      1.0  0.67224  0.42662  0.96070  1.0000
  C   C735      1.0  0.69425  0.43638  0.94627  1.0000
  H   H881      1.0  0.72399  0.37654  0.92996  1.0000
  H   H882      1.0  0.68465  0.35920  0.95500  1.0000
  H   H883      1.0  0.65799  0.44070  0.96945  1.0000
  H   H884      1.0  0.69704  0.45784  0.94435  1.0000
  C   C736      1.0  0.79962  0.47846  0.80295  1.0000
  H   H885      1.0  0.86412  0.17450  0.95571  1.0000
  C   C737      1.0  0.85912  0.09862  0.93617  1.0000
  C   C738      1.0  0.84443  0.44402  0.79789  1.0000
  C   C739      1.0  0.82806  0.44318  0.82099  1.0000
  C   C740      1.0  0.80581  0.46038  0.82358  1.0000
  H   H886      1.0  0.84433  0.14451  0.98518  1.0000
  C   C741      1.0  0.91150  0.12707  0.93898  1.0000
  H   H887      1.0  0.83255  0.42915  0.83703  1.0000
  H   H888      1.0  0.79329  0.45950  0.84146  1.0000
  C   C742      1.0  0.63143  0.48611  0.83751  1.0000
  C   C743      1.0  0.64714  0.47765  0.81557  1.0000
  C   C744      1.0  0.60817  0.45813  0.79437  1.0000
  C   C745      1.0  0.58609  0.41508  0.87744  1.0000
  C   C746      1.0  0.59256  0.46647  0.81641  1.0000
  C   C747      1.0  0.60412  0.48075  0.83780  1.0000
  H   H889      1.0  0.70019  0.09760  0.88541  1.0000
  H   H890      1.0  0.70329  0.40640  0.87118  1.0000
  H   H891      1.0  0.57151  0.46238  0.81679  1.0000
  H   H892      1.0  0.85727  0.34520  0.83254  1.0000
  C   C748      1.0  0.53657  0.36283  0.88227  1.0000
  C   C749      1.0  0.54208  0.34015  0.86614  1.0000
  C   C750      1.0  0.55411  0.31726  0.87754  1.0000
  C   C751      1.0  0.56140  0.31736  0.90483  1.0000
  C   C752      1.0  0.55645  0.34034  0.92070  1.0000
  C   C753      1.0  0.54372  0.36289  0.90954  1.0000
  H   H893      1.0  0.53649  0.33997  0.84506  1.0000
  H   H894      1.0  0.55779  0.29949  0.86520  1.0000
  H   H895      1.0  0.56167  0.34047  0.94179  1.0000
  H   H896      1.0  0.53941  0.38038  0.92209  1.0000
  H   H897      1.0  0.85092  0.10978  0.91868  1.0000
  C   C754      1.0  0.63152  0.40922  0.84279  1.0000
  C   C755      1.0  0.63498  0.41049  0.87130  1.0000
  C   C756      1.0  0.65243  0.08296  0.83928  1.0000
  C   C757      1.0  0.66600  0.07667  0.81474  1.0000
  H   H898      1.0  0.69612  0.40496  0.82171  1.0000
  C   C758      1.0  0.87243  0.18793  0.79682  1.0000
  H   H899      1.0  0.66466  0.07420  0.77125  1.0000
  H   H900      1.0  0.88887  0.33141  0.79590  1.0000
  H   H901      1.0  0.89462  0.36708  0.79348  1.0000
  C   C759      1.0  0.90145  0.34818  0.80344  1.0000
  C   C760      1.0  0.90787  0.32451  0.84544  1.0000
  C   C761      1.0  0.68320  0.40671  0.86319  1.0000
  C   C762      1.0  0.88259  0.16521  0.94914  1.0000
  H   H902      1.0  0.96265  0.28296  0.85059  1.0000
  N   N48       1.0  0.89994  0.35062  0.83329  1.0000
  H   H903      1.0  0.93037  0.25469  0.87520  1.0000
  N   N49       1.0  0.65564  0.24985  0.88652  1.0000
  C   C763      1.0  0.64492  0.23347  0.86389  1.0000
  C   C764      1.0  0.68307  0.23990  0.89181  1.0000
  C   C765      1.0  0.63936  0.24484  0.91104  1.0000
  C   C766      1.0  0.65435  0.27897  0.87986  1.0000
  C   C767      1.0  0.62995  0.29093  0.87172  1.0000
  C   C768      1.0  0.67671  0.29638  0.88183  1.0000
  C   C769      1.0  0.62819  0.31826  0.86510  1.0000
  C   C770      1.0  0.67469  0.32376  0.87526  1.0000
  C   C771      1.0  0.65058  0.33456  0.86663  1.0000
  H   H904      1.0  0.65523  0.23832  0.84454  1.0000
  H   H905      1.0  0.64741  0.21142  0.86756  1.0000
  H   H906      1.0  0.62323  0.23682  0.86102  1.0000
  H   H907      1.0  0.69640  0.24283  0.87403  1.0000
  H   H908      1.0  0.68345  0.21798  0.89687  1.0000
  H   H909      1.0  0.69193  0.25027  0.90956  1.0000
  H   H910      1.0  0.61821  0.25095  0.90848  1.0000
  H   H911      1.0  0.63935  0.22309  0.91655  1.0000
  H   H912      1.0  0.64712  0.25633  0.92866  1.0000
  H   H913      1.0  0.61179  0.27936  0.87103  1.0000
  H   H914      1.0  0.69587  0.28951  0.88882  1.0000
  H   H915      1.0  0.60922  0.32686  0.85912  1.0000
  H   H916      1.0  0.69187  0.33678  0.87722  1.0000
  H   H917      1.0  0.64918  0.35567  0.86145  1.0000
  C   C772      1.0  0.83963  0.15138  0.79438  1.0000
  H   H918      1.0  0.95010  0.13704  0.92233  1.0000
  C   C773      1.0  0.63541  0.46400  0.79382  1.0000
  C   C774      1.0  0.91971  0.18045  0.79009  1.0000
  H   H919      1.0  0.86112  0.08756  0.98949  1.0000
  C   C775      1.0  0.98006  0.32352  0.78566  1.0000
  C   C776      1.0  0.72141  0.03647  0.77371  1.0000
  H   H920      1.0  0.89781  0.47613  0.78733  1.0000
  C   C777      1.0  0.87649  0.10159  0.98133  1.0000
  Fe  Fe107     1.0  0.55567  0.41946  0.77857  1.0000
  H   H921      1.0  0.91593  0.10571  0.93799  1.0000
  H   H922      1.0  0.58184  0.39648  0.86551  1.0000
  C   C778      1.0  0.93433  0.31474  0.84246  1.0000
  C   C779      1.0  0.91819  0.37246  0.84199  1.0000
  H   H923      1.0  0.86990  0.36113  0.86304  1.0000
  H   H924      1.0  0.86908  0.31318  0.86278  1.0000
  H   H925      1.0  0.63057  0.38824  0.92120  1.0000
  H   H926      1.0  0.87637  0.08654  0.92875  1.0000
  C   C780      1.0  0.94223  0.28986  0.85307  1.0000
  Fe  Fe108     1.0  0.74685  0.49921  0.84411  1.0000
  C   C781      1.0  0.81600  0.47934  0.77980  1.0000
  H   H927      1.0  0.91153  0.39259  0.83450  1.0000
  H   H928      1.0  0.86735  0.37939  0.83222  1.0000
  H   H929      1.0  0.88969  0.24122  0.79966  1.0000
  C   C782      1.0  0.79787  0.05415  0.01152  1.0000
  Fe  Fe109     1.0  0.68996  0.50104  0.86722  1.0000
  H   H930      1.0  0.64339  0.10988  0.88828  1.0000
  H   H931      1.0  0.59552  0.39203  0.92445  1.0000
  C   C783      1.0  0.89998  0.49801  0.78282  1.0000
  C   C784      1.0  0.87242  0.35925  0.84073  1.0000
  H   H932      1.0  0.88370  0.27030  0.88103  1.0000
  H   H933      1.0  0.89919  0.20437  0.94086  1.0000
  H   H934      1.0  0.94007  0.50665  0.81564  1.0000
  C   C785      1.0  0.61593  0.43872  0.90663  1.0000
  H   H935      1.0  0.63390  0.43802  0.91956  1.0000
  C   C786      1.0  0.69008  0.09801  0.86550  1.0000
  H   H936      1.0  0.63193  0.07526  0.89136  1.0000
  H   H937      1.0  0.61350  0.09691  0.85465  1.0000
  C   C787      1.0  0.90260  0.18274  0.94044  1.0000
  C   C788      1.0  0.72865  0.03218  0.80090  1.0000
  C   C789      1.0  0.65362  0.07903  0.78968  1.0000
  C   C790      1.0  0.93124  0.14478  0.93004  1.0000
  C   C791      1.0  0.92403  0.27389  0.86688  1.0000
  Fe  Fe110     1.0  0.99894  0.18015  0.87173  1.0000
  H   H938      1.0  0.66823  0.48190  0.81523  1.0000
  S   S210      1.0  0.65298  0.31419  0.01029  1.0000
  H   H939      1.0  0.94913  0.32630  0.83175  1.0000
  H   H940      1.0  0.82594  0.11576  0.97449  1.0000
  C   C792      1.0  0.67511  0.05206  0.86932  1.0000
  N   N50       1.0  0.66632  0.08044  0.86546  1.0000
  H   H941      1.0  0.66570  0.41004  0.90223  1.0000
  H   H942      1.0  0.60915  0.37085  0.89816  1.0000
  H   H943      1.0  0.68599  0.04947  0.88870  1.0000
  H   H944      1.0  0.84377  0.08386  0.94267  1.0000
  H   H945      1.0  0.75528  0.05810  0.00941  1.0000
  C   C793      1.0  0.84096  0.13079  0.96768  1.0000
  N   N51       1.0  0.86605  0.11749  0.95837  1.0000
  H   H946      1.0  0.66107  0.08644  0.90854  1.0000
  C   C794      1.0  0.88968  0.30762  0.85953  1.0000
  H   H947      1.0  0.59190  0.48755  0.85464  1.0000
  H   H948      1.0  0.59874  0.44262  0.92046  1.0000
  H   H949      1.0  0.89388  0.08886  0.97543  1.0000
  S   S211      1.0  0.77164  0.50011  0.80558  1.0000
  C   C795      1.0  0.73491  0.08299  0.77801  1.0000
  H   H950      1.0  0.94228  0.18618  0.92405  1.0000
  C   C796      1.0  0.67917  0.40586  0.83538  1.0000
  H   H951      1.0  0.80723  0.15325  0.82308  1.0000
  H   H952      1.0  0.58455  0.43284  0.86389  1.0000
  C   C797      1.0  0.64974  0.08832  0.88929  1.0000
  H   H953      1.0  0.96218  0.07482  0.83360  1.0000
  H   H954      1.0  0.82226  0.19564  0.84407  1.0000
  H   H955      1.0  0.68465  0.11941  0.86139  1.0000
  C   C798      1.0  0.66150  0.40900  0.88089  1.0000
  C   C799      1.0  0.92684  0.17255  0.93090  1.0000
  H   H956      1.0  0.65030  0.40684  0.80353  1.0000
  H   H957      1.0  0.91941  0.37363  0.86441  1.0000
  H   H958      1.0  0.93875  0.36977  0.83381  1.0000
  H   H959      1.0  0.68644  0.06990  0.81471  1.0000
  H   H960      1.0  0.68915  0.04507  0.85321  1.0000
  C   C800      1.0  0.85684  0.19945  0.81817  1.0000
  C   C801      1.0  0.92577  0.02398  0.86041  1.0000
  C   C802      1.0  0.83342  0.18715  0.82712  1.0000
  H   H961      1.0  0.88268  0.11509  0.99820  1.0000
  C   C803      1.0  0.87279  0.50822  0.82165  1.0000
  C   C804      1.0  0.97237  0.03249  0.83078  1.0000
  C   C805      1.0  0.61318  0.09388  0.81195  1.0000
  S   S212      1.0  0.52274  0.43461  0.80561  1.0000
  S   S213      1.0  0.98005  0.35948  0.78837  1.0000
  S   S214      1.0  0.52095  0.39143  0.86876  1.0000
  C   C806      1.0  0.95656  0.05440  0.83903  1.0000
  S   S215      1.0  0.64530  0.50363  0.86474  1.0000
  H   H962      1.0  0.91781  0.48545  0.83327  1.0000
  H   H963      1.0  0.92086  0.06729  0.85963  1.0000
  H   H964      1.0  0.92153  0.17423  0.81150  1.0000
  C   C807      1.0  0.93325  0.05017  0.85373  1.0000
  H   H965      1.0  0.64754  0.45761  0.77681  1.0000
  H   H966      1.0  0.90745  0.02082  0.87165  1.0000
  H   H967      1.0  0.00711  0.31881  0.81896  1.0000
  H   H968      1.0  0.85534  0.51143  0.80827  1.0000
  C   C808      1.0  0.90503  0.22510  0.80179  1.0000
  N   N52       1.0  0.89756  0.20007  0.78700  1.0000
  Fe  Fe111     1.0  0.61152  0.29827  0.01545  1.0000
  H   H969      1.0  0.92400  0.23367  0.79391  1.0000
  H   H970      1.0  0.00680  0.26860  0.81799  1.0000
  N   N53       1.0  0.89829  0.51467  0.80773  1.0000
  C   C809      1.0  0.92028  0.50652  0.82592  1.0000
  H   H971      1.0  0.91942  0.50045  0.77218  1.0000
  H   H972      1.0  0.73747  0.10276  0.76920  1.0000
  H   H973      1.0  0.81223  0.94599  0.11690  1.0000
  S   S216      1.0  0.97538  0.67071  0.22347  1.0000
  H   H974      1.0  0.96507  0.85761  0.18936  1.0000
  C   C810      1.0  0.00281  0.77698  0.03507  1.0000
  C   C811      1.0  0.74077  0.65959  0.02026  1.0000
  H   H975      1.0  0.79335  0.66068  0.02767  1.0000
  Fe  Fe112     1.0  0.84156  0.97752  0.16566  1.0000
  S   S217      1.0  0.84823  0.93267  0.17066  1.0000
  S   S218      1.0  0.79898  0.99139  0.16720  1.0000
  Fe  Fe113     1.0  0.91514  0.77311  0.11869  1.0000
  S   S219      1.0  0.91649  0.74040  0.08709  1.0000
  S   S220      1.0  0.92267  0.77073  0.16369  1.0000
  Fe  Fe114     1.0  0.89380  0.81499  0.07922  1.0000
  S   S221      1.0  0.89274  0.78505  0.04494  1.0000
  S   S222      1.0  0.88568  0.85928  0.07216  1.0000
  Fe  Fe115     1.0  0.87557  0.75615  0.07551  1.0000
  S   S223      1.0  0.84043  0.72655  0.07564  1.0000
  Fe  Fe116     1.0  0.93361  0.77251  0.05958  1.0000
  H   H976      1.0  0.58624  0.61698  0.14917  1.0000
  S   S224      1.0  0.87392  0.78739  0.10861  1.0000
  S   S225      1.0  0.93482  0.80379  0.09223  1.0000
  Fe  Fe117     1.0  0.63824  0.69281  0.06483  1.0000
  S   S226      1.0  0.64522  0.72918  0.03881  1.0000
  S   S227      1.0  0.61288  0.69951  0.10227  1.0000
  H   H977      1.0  0.97767  0.86317  0.10082  1.0000
  H   H978      1.0  0.59517  0.55442  0.11159  1.0000
  H   H979      1.0  0.59089  0.77030  0.04776  1.0000
  S   S228      1.0  0.67977  0.67628  0.05874  1.0000
  Fe  Fe118     1.0  0.59918  0.62443  0.23705  1.0000
  S   S229      1.0  0.55524  0.62989  0.23025  1.0000
  S   S230      1.0  0.63119  0.62615  0.20490  1.0000
  C   C812      1.0  0.82121  0.89429  0.02712  1.0000
  S   S231      1.0  0.85488  0.00538  0.19899  1.0000
  H   H980      1.0  0.82026  0.98971  0.07984  1.0000
  S   S232      1.0  0.59545  0.58305  0.25508  1.0000
  N   N54       1.0  0.56984  0.57757  0.15741  1.0000
  S   S233      1.0  0.85285  0.00528  0.13164  1.0000
  C   C813      1.0  0.61797  0.67865  0.13045  1.0000
  C   C814      1.0  0.60083  0.68113  0.15287  1.0000
  C   C815      1.0  0.60466  0.66507  0.17585  1.0000
  C   C816      1.0  0.62583  0.64663  0.17654  1.0000
  C   C817      1.0  0.64283  0.64398  0.15403  1.0000
  C   C818      1.0  0.63884  0.65985  0.13095  1.0000
  H   H981      1.0  0.58470  0.69570  0.15260  1.0000
  H   H982      1.0  0.59153  0.66730  0.19317  1.0000
  H   H983      1.0  0.65921  0.62969  0.15449  1.0000
  H   H984      1.0  0.65213  0.65782  0.11375  1.0000
  C   C819      1.0  0.75498  0.73498  0.04201  1.0000
  H   H985      1.0  0.52628  0.72682  0.08342  1.0000
  C   C820      1.0  0.80115  0.75098  0.04421  1.0000
  C   C821      1.0  0.80740  0.73134  0.06339  1.0000
  C   C822      1.0  0.78709  0.71389  0.07221  1.0000
  C   C823      1.0  0.82227  0.87217  0.04432  1.0000
  H   H986      1.0  0.76002  0.94799  0.06299  1.0000
  H   H987      1.0  0.78102  0.96476  0.03886  1.0000
  C   C824      1.0  0.85889  0.91267  0.14313  1.0000
  C   C825      1.0  0.85890  0.88448  0.14566  1.0000
  C   C826      1.0  0.86716  0.86790  0.12400  1.0000
  C   C827      1.0  0.87540  0.87949  0.09969  1.0000
  C   C828      1.0  0.87548  0.90770  0.09717  1.0000
  C   C829      1.0  0.86738  0.92428  0.11892  1.0000
  H   H988      1.0  0.85231  0.87543  0.16438  1.0000
  H   H989      1.0  0.86685  0.84619  0.12601  1.0000
  H   H990      1.0  0.88190  0.91670  0.07836  1.0000
  H   H991      1.0  0.86791  0.94600  0.11708  1.0000
  Fe  Fe119     1.0  0.68560  0.71078  0.02996  1.0000
  C   C830      1.0  0.53568  0.76461  0.04310  1.0000
  C   C831      1.0  0.96169  0.69908  0.20687  1.0000
  C   C832      1.0  0.96260  0.70044  0.17850  1.0000
  C   C833      1.0  0.95089  0.72236  0.16485  1.0000
  C   C834      1.0  0.93821  0.74304  0.17958  1.0000
  C   C835      1.0  0.93765  0.74182  0.20789  1.0000
  C   C836      1.0  0.94931  0.71997  0.22148  1.0000
  H   H992      1.0  0.97225  0.68442  0.16704  1.0000
  H   H993      1.0  0.95172  0.72327  0.14302  1.0000
  H   H994      1.0  0.92802  0.75781  0.21942  1.0000
  H   H995      1.0  0.94865  0.71934  0.24326  1.0000
  N   N55       1.0  0.94815  0.85860  0.14946  1.0000
  C   C837      1.0  0.95932  0.87231  0.17347  1.0000
  C   C838      1.0  0.93895  0.87967  0.13031  1.0000
  C   C839      1.0  0.92423  0.84325  0.15804  1.0000
  C   C840      1.0  0.96867  0.84021  0.13770  1.0000
  C   C841      1.0  0.79767  0.94546  0.22936  1.0000
  C   C842      1.0  0.97638  0.81634  0.15146  1.0000
  C   C843      1.0  0.81399  0.91978  0.03719  1.0000
  H   H996      1.0  0.57702  0.59829  0.11976  1.0000
  S   S234      1.0  0.96811  0.77307  0.02888  1.0000
  H   H997      1.0  0.97747  0.88390  0.16800  1.0000
  H   H998      1.0  0.94468  0.88668  0.18279  1.0000
  H   H999      1.0  0.92231  0.89211  0.13892  1.0000
  H   H1000     1.0  0.93134  0.87036  0.11130  1.0000
  H   H1001     1.0  0.95500  0.89411  0.12511  1.0000
  C   C844      1.0  0.58151  0.54143  0.12222  1.0000
  H   H1002     1.0  0.90791  0.85682  0.16537  1.0000
  Fe  Fe120     1.0  0.66227  0.65491  0.02272  1.0000
  H   H1003     1.0  0.73483  0.68060  0.02557  1.0000
  H   H1004     1.0  0.74777  0.65032  0.03937  1.0000
  H   H1005     1.0  0.77093  0.98203  0.06879  1.0000
  H   H1006     1.0  0.53501  0.77339  0.09726  1.0000
  C   C845      1.0  0.80770  0.92387  0.06496  1.0000
  H   H1007     1.0  0.96785  0.81115  0.17084  1.0000
  S   S235      1.0  0.62016  0.66809  0.03168  1.0000
  C   C846      1.0  0.98191  0.84550  0.11272  1.0000
  H   H1008     1.0  0.79159  0.69864  0.08707  1.0000
  H   H1009     1.0  0.56119  0.79225  0.08150  1.0000
  H   H1010     1.0  0.81758  0.85821  0.08498  1.0000
  C   C847      1.0  0.79473  0.95211  0.10460  1.0000
  C   C848      1.0  0.00650  0.80332  0.11514  1.0000
  H   H1011     1.0  0.74566  0.70245  0.06908  1.0000
  C   C849      1.0  0.99472  0.79806  0.14012  1.0000
  H   H1012     1.0  0.83506  0.73780  0.17004  1.0000
  H   H1013     1.0  0.84867  0.74076  0.13683  1.0000
  C   C850      1.0  0.54546  0.72627  0.07217  1.0000
  H   H1014     1.0  0.76951  0.97695  0.22063  1.0000
  C   C851      1.0  0.75779  0.95428  0.25574  1.0000
  C   C852      1.0  0.85299  0.73323  0.15756  1.0000
  H   H1015     1.0  0.84235  0.96114  0.07864  1.0000
  N   N56       1.0  0.80090  0.95125  0.07518  1.0000
  H   H1016     1.0  0.60347  0.56583  0.18151  1.0000
  C   C853      1.0  0.58198  0.75050  0.05304  1.0000
  H   H1017     1.0  0.92819  0.82919  0.17495  1.0000
  H   H1018     1.0  0.57180  0.56296  0.19843  1.0000
  H   H1019     1.0  0.60685  0.58977  0.13852  1.0000
  H   H1020     1.0  0.77757  0.93900  0.10978  1.0000
  H   H1021     1.0  0.81072  0.95042  0.21259  1.0000
  C   C854      1.0  0.76099  0.71592  0.06192  1.0000
  H   H1022     1.0  0.99938  0.62517  0.24955  1.0000
  H   H1023     1.0  0.58302  0.73696  0.03497  1.0000
  H   H1024     1.0  0.81648  0.76449  0.03709  1.0000
  H   H1025     1.0  0.83557  0.68895  0.24724  1.0000
  C   C855      1.0  0.55484  0.77156  0.08728  1.0000
  H   H1026     1.0  0.87986  0.67040  0.25894  1.0000
  C   C856      1.0  0.56701  0.55022  0.14552  1.0000
  C   C857      1.0  0.77439  0.96025  0.23383  1.0000
  H   H1027     1.0  0.58619  0.59537  0.19328  1.0000
  H   H1028     1.0  0.56899  0.76398  0.10282  1.0000
  H   H1029     1.0  0.53895  0.53603  0.17607  1.0000
  H   H1030     1.0  0.78911  0.97287  0.11140  1.0000
  H   H1031     1.0  0.53135  0.59011  0.14310  1.0000
  H   H1032     1.0  0.82868  0.85257  0.03669  1.0000
  C   C858      1.0  0.58563  0.59626  0.14030  1.0000
  H   H1033     1.0  0.00936  0.83087  0.08201  1.0000
  C   C859      1.0  0.80890  0.90082  0.08196  1.0000
  C   C860      1.0  0.81595  0.87540  0.07160  1.0000
  N   N57       1.0  0.55427  0.75342  0.06334  1.0000
  H   H1034     1.0  0.56011  0.71665  0.08600  1.0000
  S   S236      1.0  0.52379  0.55623  0.23568  1.0000
  H   H1035     1.0  0.74045  0.96701  0.25875  1.0000
  H   H1036     1.0  0.80524  0.90193  0.10348  1.0000
  H   H1037     1.0  0.86971  0.74543  0.16574  1.0000
  H   H1038     1.0  0.99939  0.77944  0.15057  1.0000
  Fe  Fe121     1.0  0.55165  0.58948  0.25087  1.0000
  H   H1039     1.0  0.91620  0.83108  0.14102  1.0000
  H   H1040     1.0  0.54313  0.71247  0.05459  1.0000
  H   H1041     1.0  0.54492  0.61161  0.16896  1.0000
  N   N58       1.0  0.85987  0.70406  0.15717  1.0000
  C   C861      1.0  0.58337  0.57523  0.18378  1.0000
  C   C862      1.0  0.88242  0.70027  0.13788  1.0000
  C   C863      1.0  0.83694  0.68879  0.14630  1.0000
  C   C864      1.0  0.86586  0.69494  0.18497  1.0000
  C   C865      1.0  0.84601  0.69647  0.20555  1.0000
  C   C866      1.0  0.89110  0.68432  0.19251  1.0000
  C   C867      1.0  0.85104  0.68768  0.23187  1.0000
  C   C868      1.0  0.89587  0.67554  0.21888  1.0000
  C   C869      1.0  0.87593  0.67721  0.23852  1.0000
  C   C870      1.0  0.77723  0.96185  0.06080  1.0000
  C   C871      1.0  0.77519  0.75264  0.03349  1.0000
  H   H1042     1.0  0.59533  0.74156  0.06849  1.0000
  H   H1043     1.0  0.89985  0.71267  0.14377  1.0000
  H   H1044     1.0  0.87702  0.70674  0.11708  1.0000
  H   H1045     1.0  0.88863  0.67871  0.13625  1.0000
  H   H1046     1.0  0.83270  0.69436  0.12493  1.0000
  H   H1047     1.0  0.84088  0.66665  0.14675  1.0000
  H   H1048     1.0  0.81823  0.69285  0.15775  1.0000
  H   H1049     1.0  0.82644  0.70452  0.20140  1.0000
  H   H1050     1.0  0.90763  0.68272  0.17852  1.0000
  H   H1051     1.0  0.82706  0.97343  0.04839  1.0000
  H   H1052     1.0  0.91531  0.66756  0.22418  1.0000
  C   C872      1.0  0.82362  0.96959  0.07024  1.0000
  C   C873      1.0  0.55018  0.53099  0.15803  1.0000
  H   H1053     1.0  0.57252  0.52299  0.23155  1.0000
  C   C874      1.0  0.54326  0.59025  0.16196  1.0000
  H   H1054     1.0  0.81378  0.93641  0.02315  1.0000
  C   C875      1.0  0.80440  0.92452  0.24670  1.0000
  H   H1055     1.0  0.00622  0.74223  0.06067  1.0000
  H   H1056     1.0  0.74621  0.60862  0.02074  1.0000
  H   H1057     1.0  0.82264  0.99408  0.26688  1.0000
  H   H1058     1.0  0.00356  0.58982  0.25020  1.0000
  C   C876      1.0  0.00033  0.82711  0.10162  1.0000
  H   H1059     1.0  0.82272  0.91328  0.24311  1.0000
  S   S237      1.0  0.72332  0.73653  0.02582  1.0000
  H   H1060     1.0  0.53151  0.58002  0.17803  1.0000
  C   C877      1.0  0.52992  0.52137  0.22840  1.0000
  Fe  Fe122     1.0  0.97062  0.66765  0.26906  1.0000
  C   C878      1.0  0.78782  0.91818  0.26860  1.0000
  Fe  Fe123     1.0  0.93247  0.65595  0.31541  1.0000
  S   S238      1.0  0.94550  0.69441  0.29585  1.0000
  S   S239      1.0  0.88946  0.65308  0.32750  1.0000
  Fe  Fe124     1.0  0.97950  0.69202  0.32479  1.0000
  C   C879      1.0  0.64189  0.96957  0.33734  1.0000
  S   S240      1.0  0.96453  0.65579  0.34658  1.0000
  C   C880      1.0  0.55795  0.73184  0.28124  1.0000
  S   S241      1.0  0.79912  0.53963  0.42706  1.0000
  H   H1061     1.0  0.77930  0.55984  0.49564  1.0000
  C   C881      1.0  0.78775  0.63302  0.33299  1.0000
  S   S242      1.0  0.73538  0.53769  0.41109  1.0000
  H   H1062     1.0  0.54703  0.96432  0.28836  1.0000
  Fe  Fe125     1.0  0.76714  0.56908  0.41553  1.0000
  S   S243      1.0  0.76164  0.60900  0.43717  1.0000
  S   S244      1.0  0.77762  0.56905  0.37154  1.0000
  Fe  Fe126     1.0  0.90859  0.75300  0.47347  1.0000
  S   S245      1.0  0.87284  0.74247  0.44925  1.0000
  S   S246      1.0  0.94293  0.77468  0.45450  1.0000
  Fe  Fe127     1.0  0.87570  0.70260  0.46997  1.0000
  S   S247      1.0  0.87401  0.66465  0.44488  1.0000
  Fe  Fe128     1.0  0.84934  0.75595  0.48566  1.0000
  S   S248      1.0  0.80963  0.77751  0.48142  1.0000
  S   S249      1.0  0.91369  0.71195  0.49139  1.0000
  C   C882      1.0  0.75809  0.64343  0.37053  1.0000
  Fe  Fe129     1.0  0.76346  0.97223  0.38877  1.0000
  S   S250      1.0  0.76369  0.92800  0.37949  1.0000
  H   H1063     1.0  0.70927  0.93987  0.27706  1.0000
  Fe  Fe130     1.0  0.72988  0.96361  0.44120  1.0000
  S   S251      1.0  0.72769  0.91859  0.43403  1.0000
  S   S252      1.0  0.70548  0.97882  0.47769  1.0000
  Fe  Fe131     1.0  0.77118  0.92168  0.42352  1.0000
  S   S253      1.0  0.80696  0.89714  0.43653  1.0000
  Fe  Fe132     1.0  0.72030  0.92951  0.39071  1.0000
  S   S254      1.0  0.69193  0.91008  0.36109  1.0000
  S   S255      1.0  0.77384  0.96608  0.43281  1.0000
  S   S256      1.0  0.71944  0.97428  0.39796  1.0000
  H   H1064     1.0  0.60243  0.77866  0.36401  1.0000
  S   S257      1.0  0.52305  0.84795  0.36658  1.0000
  H   H1065     1.0  0.68924  0.59414  0.39137  1.0000
  Fe  Fe133     1.0  0.53897  0.89016  0.36303  1.0000
  S   S258      1.0  0.56910  0.90791  0.39171  1.0000
  S   S259      1.0  0.54453  0.88794  0.31814  1.0000
  C   C883      1.0  0.73942  0.99669  0.51851  1.0000
  S   S260      1.0  0.54732  0.60916  0.29184  1.0000
  S   S261      1.0  0.60898  0.58988  0.33352  1.0000
  H   H1066     1.0  0.73949  0.89836  0.32900  1.0000
  C   C884      1.0  0.91727  0.60321  0.43919  1.0000
  C   C885      1.0  0.54201  0.77643  0.29678  1.0000
  H   H1067     1.0  0.97889  0.70571  0.50234  1.0000
  H   H1068     1.0  0.71862  0.90530  0.27058  1.0000
  C   C886      1.0  0.65515  0.84662  0.40221  1.0000
  H   H1069     1.0  0.96465  0.63111  0.39942  1.0000
  N   N59       1.0  0.56691  0.97604  0.32523  1.0000
  C   C887      1.0  0.93735  0.58146  0.39944  1.0000
  H   H1070     1.0  0.75473  0.88415  0.29931  1.0000
  H   H1071     1.0  0.80586  0.93182  0.48486  1.0000
  C   C888      1.0  0.51882  0.76429  0.30658  1.0000
  C   C889      1.0  0.80684  0.00128  0.28007  1.0000
  H   H1072     1.0  0.53559  0.00360  0.31346  1.0000
  H   H1073     1.0  0.97823  0.59063  0.38613  1.0000
  C   C890      1.0  0.80666  0.99410  0.30771  1.0000
  H   H1074     1.0  0.87220  0.59051  0.50711  1.0000
  H   H1075     1.0  0.55463  0.53825  0.28343  1.0000
  C   C891      1.0  0.65779  0.91041  0.36960  1.0000
  C   C892      1.0  0.63928  0.90125  0.35059  1.0000
  C   C893      1.0  0.61195  0.90097  0.35692  1.0000
  C   C894      1.0  0.60302  0.90971  0.38236  1.0000
  C   C895      1.0  0.62149  0.91936  0.40116  1.0000
  C   C896      1.0  0.64883  0.91968  0.39485  1.0000
  H   H1076     1.0  0.64613  0.89438  0.33094  1.0000
  H   H1077     1.0  0.59786  0.89381  0.34225  1.0000
  H   H1078     1.0  0.61470  0.92621  0.42087  1.0000
  H   H1079     1.0  0.66294  0.92689  0.40959  1.0000
  C   C897      1.0  0.80882  0.81003  0.46714  1.0000
  C   C898      1.0  0.78429  0.82341  0.46404  1.0000
  C   C899      1.0  0.78323  0.84989  0.45388  1.0000
  C   C900      1.0  0.80679  0.86314  0.44696  1.0000
  C   C901      1.0  0.83123  0.84953  0.44957  1.0000
  C   C902      1.0  0.83227  0.82301  0.45948  1.0000
  H   H1080     1.0  0.76610  0.81342  0.46997  1.0000
  H   H1081     1.0  0.76431  0.86020  0.45195  1.0000
  H   H1082     1.0  0.84952  0.85970  0.44429  1.0000
  H   H1083     1.0  0.85125  0.81285  0.46179  1.0000
  C   C903      1.0  0.79222  0.62590  0.43786  1.0000
  C   C904      1.0  0.79460  0.65093  0.45097  1.0000
  C   C905      1.0  0.81963  0.66332  0.45294  1.0000
  C   C906      1.0  0.84217  0.65070  0.44167  1.0000
  C   C907      1.0  0.83952  0.62607  0.42804  1.0000
  C   C908      1.0  0.81468  0.61369  0.42627  1.0000
  H   H1084     1.0  0.77727  0.66043  0.46014  1.0000
  H   H1085     1.0  0.82148  0.68244  0.46339  1.0000
  H   H1086     1.0  0.85670  0.61618  0.41923  1.0000
  H   H1087     1.0  0.81304  0.59436  0.41633  1.0000
  C   C909      1.0  0.69080  0.54889  0.33117  1.0000
  C   C910      1.0  0.67558  0.54920  0.35497  1.0000
  C   C911      1.0  0.65048  0.56187  0.35546  1.0000
  C   C912      1.0  0.64039  0.57404  0.33214  1.0000
  C   C913      1.0  0.65532  0.57320  0.30818  1.0000
  C   C914      1.0  0.68040  0.56048  0.30768  1.0000
  H   H1088     1.0  0.59429  0.53266  0.34475  1.0000
  H   H1089     1.0  0.63889  0.56230  0.37399  1.0000
  C   C915      1.0  0.78628  0.00325  0.32529  1.0000
  H   H1090     1.0  0.56852  0.55560  0.31167  1.0000
  C   C916      1.0  0.87849  0.62092  0.33700  1.0000
  C   C917      1.0  0.89338  0.59762  0.33109  1.0000
  C   C918      1.0  0.88423  0.57229  0.33969  1.0000
  C   C919      1.0  0.86037  0.57023  0.35444  1.0000
  C   C920      1.0  0.84572  0.59364  0.36038  1.0000
  C   C921      1.0  0.85477  0.61888  0.35177  1.0000
  H   H1091     1.0  0.91187  0.59904  0.31990  1.0000
  H   H1092     1.0  0.89567  0.55427  0.33493  1.0000
  H   H1093     1.0  0.82765  0.59242  0.37203  1.0000
  H   H1094     1.0  0.84371  0.63693  0.35716  1.0000
  C   C922      1.0  0.97844  0.74074  0.37590  1.0000
  H   H1095     1.0  0.94959  0.64314  0.42968  1.0000
  C   C923      1.0  0.97359  0.77667  0.40920  1.0000
  C   C924      1.0  0.95555  0.76120  0.42400  1.0000
  C   C925      1.0  0.94897  0.73522  0.41483  1.0000
  C   C926      1.0  0.96043  0.72498  0.39069  1.0000
  H   H1096     1.0  0.99967  0.76359  0.45985  1.0000
  H   H1097     1.0  0.59186  0.85803  0.42390  1.0000
  H   H1098     1.0  0.93539  0.72300  0.42651  1.0000
  H   H1099     1.0  0.95582  0.70482  0.38381  1.0000
  N   N60       1.0  0.87618  0.72501  0.36902  1.0000
  C   C927      1.0  0.89616  0.74699  0.36737  1.0000
  C   C928      1.0  0.88968  0.70136  0.38144  1.0000
  C   C929      1.0  0.86829  0.71770  0.34118  1.0000
  C   C930      1.0  0.85197  0.73282  0.38460  1.0000
  C   C931      1.0  0.84522  0.76025  0.39034  1.0000
  C   C932      1.0  0.83376  0.71292  0.39370  1.0000
  C   C933      1.0  0.82271  0.76700  0.40585  1.0000
  C   C934      1.0  0.81134  0.71993  0.40921  1.0000
  C   C935      1.0  0.80604  0.74688  0.41558  1.0000
  H   H1100     1.0  0.90145  0.75459  0.38790  1.0000
  H   H1101     1.0  0.91504  0.74007  0.35746  1.0000
  H   H1102     1.0  0.88907  0.76424  0.35503  1.0000
  H   H1103     1.0  0.89369  0.70509  0.40324  1.0000
  H   H1104     1.0  0.90892  0.69646  0.37115  1.0000
  H   H1105     1.0  0.87798  0.68248  0.37982  1.0000
  H   H1106     1.0  0.85783  0.73475  0.33117  1.0000
  H   H1107     1.0  0.88591  0.71206  0.32846  1.0000
  H   H1108     1.0  0.85469  0.70004  0.34099  1.0000
  H   H1109     1.0  0.85747  0.77687  0.38395  1.0000
  H   H1110     1.0  0.83690  0.69171  0.38948  1.0000
  H   H1111     1.0  0.81857  0.78793  0.41115  1.0000
  H   H1112     1.0  0.79832  0.70434  0.41689  1.0000
  H   H1113     1.0  0.78923  0.75223  0.42850  1.0000
  N   N61       1.0  0.93101  0.60759  0.41286  1.0000
  H   H1114     1.0  0.66276  0.97918  0.37391  1.0000
  Fe  Fe134     1.0  0.59177  0.60539  0.29443  1.0000
  S   S262      1.0  0.72310  0.53493  0.33026  1.0000
  C   C936      1.0  0.62087  0.98776  0.37752  1.0000
  S   S263      1.0  0.54774  0.81191  0.29950  1.0000
  H   H1115     1.0  0.62232  0.99459  0.39833  1.0000
  S   S264      1.0  0.99431  0.72894  0.34623  1.0000
  H   H1116     1.0  0.77342  0.90566  0.32201  1.0000
  C   C937      1.0  0.96732  0.55161  0.37326  1.0000
  C   C938      1.0  0.98499  0.76649  0.38533  1.0000
  C   C939      1.0  0.54933  0.95853  0.34161  1.0000
  C   C940      1.0  0.98277  0.72573  0.49312  1.0000
  C   C941      1.0  0.92287  0.53676  0.38372  1.0000
  H   H1117     1.0  0.66860  0.62880  0.36128  1.0000
  Fe  Fe135     1.0  0.80762  0.53749  0.38247  1.0000
  C   C942      1.0  0.63428  0.85501  0.41901  1.0000
  H   H1118     1.0  0.79907  0.65567  0.36823  1.0000
  H   H1119     1.0  0.54211  0.53262  0.31736  1.0000
  Fe  Fe136     1.0  0.52569  0.84667  0.32118  1.0000
  H   H1120     1.0  0.57944  0.76911  0.27625  1.0000
  Fe  Fe137     1.0  0.98839  0.63199  0.31599  1.0000
  C   C943      1.0  0.64065  0.80076  0.33079  1.0000
  S   S265      1.0  0.88513  0.77033  0.50850  1.0000
  H   H1121     1.0  0.57303  0.71958  0.27126  1.0000
  C   C944      1.0  0.78702  0.01841  0.26990  1.0000
  C   C945      1.0  0.96234  0.57609  0.38670  1.0000
  H   H1122     1.0  0.92888  0.58924  0.45216  1.0000
  H   H1123     1.0  0.92238  0.62633  0.37484  1.0000
  C   C946      1.0  0.64370  0.97913  0.36379  1.0000
  C   C947      1.0  0.74442  0.95002  0.31534  1.0000
  C   C948      1.0  0.83010  0.85912  0.51748  1.0000
  S   S266      1.0  0.84985  0.53855  0.36638  1.0000
  C   C949      1.0  0.62344  0.82752  0.36979  1.0000
  S   S267      1.0  0.52826  0.68450  0.28639  1.0000
  H   H1124     1.0  0.90810  0.64337  0.40377  1.0000
  H   H1125     1.0  0.74105  0.90258  0.50591  1.0000
  H   H1126     1.0  0.59325  0.78097  0.32898  1.0000
  C   C950      1.0  0.60810  0.85027  0.41143  1.0000
  S   S268      1.0  0.59953  0.64643  0.27709  1.0000
  C   C951      1.0  0.71404  0.98768  0.51151  1.0000
  C   C952      1.0  0.94770  0.53194  0.37188  1.0000
  H   H1127     1.0  0.79443  0.90188  0.28132  1.0000
  C   C953      1.0  0.70935  0.59877  0.38312  1.0000
  H   H1128     1.0  0.75484  0.99773  0.50318  1.0000
  C   C954      1.0  0.80579  0.59264  0.49602  1.0000
  C   C955      1.0  0.73684  0.62933  0.35803  1.0000
  H   H1129     1.0  0.70453  0.91537  0.30272  1.0000
  H   H1130     1.0  0.58792  0.84389  0.33245  1.0000
  C   C956      1.0  0.64996  0.83309  0.37792  1.0000
  C   C957      1.0  0.75377  0.90261  0.31222  1.0000
  H   H1131     1.0  0.65569  0.81573  0.32407  1.0000
  S   S269      1.0  0.95462  0.62903  0.28647  1.0000
  H   H1132     1.0  0.69205  0.56013  0.28917  1.0000
  C   C958      1.0  0.76764  0.61837  0.32060  1.0000
  H   H1133     1.0  0.89750  0.56443  0.40439  1.0000
  H   H1134     1.0  0.66708  0.82778  0.36568  1.0000
  H   H1135     1.0  0.73030  0.94655  0.33242  1.0000
  H   H1136     1.0  0.62130  0.85109  0.32174  1.0000
  H   H1137     1.0  0.98638  0.54822  0.36323  1.0000
  H   H1138     1.0  0.57672  0.80154  0.35291  1.0000
  C   C959      1.0  0.53457  0.71973  0.29061  1.0000
  S   S270      1.0  0.84956  0.71484  0.50485  1.0000
  H   H1139     1.0  0.68802  0.61181  0.33680  1.0000
  H   H1140     1.0  0.68331  0.53990  0.37305  1.0000
  Fe  Fe138     1.0  0.55507  0.64930  0.27188  1.0000
  H   H1141     1.0  0.91417  0.62250  0.45056  1.0000
  H   H1142     1.0  0.71480  0.58297  0.36801  1.0000
  C   C960      1.0  0.55505  0.00355  0.32413  1.0000
  H   H1143     1.0  0.76433  0.95388  0.32420  1.0000
  H   H1144     1.0  0.58202  0.83529  0.38149  1.0000
  H   H1145     1.0  0.72377  0.59653  0.39980  1.0000
  S   S271      1.0  0.78899  0.99846  0.36084  1.0000
  C   C961      1.0  0.79849  0.93803  0.50532  1.0000
  C   C962      1.0  0.56152  0.76000  0.28415  1.0000
  N   N62       1.0  0.71052  0.62607  0.37129  1.0000
  H   H1146     1.0  0.54483  0.96706  0.36197  1.0000
  H   H1147     1.0  0.67547  0.85135  0.40771  1.0000
  H   H1148     1.0  0.64770  0.58257  0.29008  1.0000
  H   H1149     1.0  0.73794  0.96897  0.30538  1.0000
  C   C963      1.0  0.61722  0.96857  0.32444  1.0000
  C   C964      1.0  0.68862  0.62890  0.35141  1.0000
  H   H1150     1.0  0.60230  0.82555  0.30470  1.0000
  H   H1151     1.0  0.68482  0.64444  0.40161  1.0000
  Fe  Fe139     1.0  0.74872  0.53506  0.36773  1.0000
  C   C965      1.0  0.91317  0.62321  0.39508  1.0000
  H   H1152     1.0  0.72837  0.60326  0.32322  1.0000
  H   H1153     1.0  0.57963  0.97755  0.28346  1.0000
  H   H1154     1.0  0.77169  0.60773  0.30176  1.0000
  C   C966      1.0  0.85202  0.58331  0.50474  1.0000
  H   H1155     1.0  0.96966  0.61289  0.43054  1.0000
  H   H1156     1.0  0.97808  0.74129  0.50885  1.0000
  C   C967      1.0  0.78306  0.64530  0.35802  1.0000
  C   C968      1.0  0.76379  0.93284  0.27367  1.0000
  H   H1157     1.0  0.70814  0.66707  0.38600  1.0000
  N   N63       1.0  0.61718  0.81407  0.34379  1.0000
  H   H1158     1.0  0.57491  0.94373  0.29674  1.0000
  C   C969      1.0  0.82002  0.54592  0.50470  1.0000
  H   H1159     1.0  0.00894  0.67272  0.48435  1.0000
  H   H1160     1.0  0.61724  0.96049  0.30415  1.0000
  C   C970      1.0  0.74265  0.61626  0.33298  1.0000
  C   C971      1.0  0.56737  0.96494  0.29723  1.0000
  H   H1161     1.0  0.79006  0.60699  0.49148  1.0000
  C   C972      1.0  0.95487  0.62427  0.41837  1.0000
  H   H1162     1.0  0.63836  0.86611  0.43746  1.0000
  C   C973      1.0  0.56038  0.53583  0.30498  1.0000
  C   C974      1.0  0.60267  0.83708  0.38705  1.0000
  H   H1163     1.0  0.82272  0.98192  0.31566  1.0000
  H   H1164     1.0  0.55880  0.93848  0.34478  1.0000
  H   H1165     1.0  0.89697  0.59484  0.43681  1.0000
  C   C975      1.0  0.71836  0.92160  0.28618  1.0000
  H   H1166     1.0  0.52988  0.95506  0.33164  1.0000
  C   C976      1.0  0.59664  0.79294  0.34777  1.0000
  H   H1167     1.0  0.63501  0.78937  0.31220  1.0000
  H   H1168     1.0  0.97882  0.79668  0.41623  1.0000
  C   C977      1.0  0.91761  0.56121  0.39704  1.0000
  H   H1169     1.0  0.55108  0.01219  0.34456  1.0000
  C   C978      1.0  0.79986  0.56524  0.49864  1.0000
  C   C979      1.0  0.59612  0.98693  0.36483  1.0000
  C   C980      1.0  0.60678  0.83454  0.32486  1.0000
  H   H1170     1.0  0.78860  0.95804  0.50268  1.0000
  H   H1171     1.0  0.96818  0.72851  0.47655  1.0000
  C   C981      1.0  0.59350  0.97726  0.33790  1.0000
  H   H1172     1.0  0.75620  0.65241  0.39040  1.0000
  H   H1173     1.0  0.65020  0.78611  0.34474  1.0000
  N   N64       1.0  0.74556  0.92669  0.29646  1.0000
  H   H1174     1.0  0.89416  0.61251  0.39159  1.0000
  H   H1175     1.0  0.86260  0.54248  0.51268  1.0000
  H   H1176     1.0  0.61078  0.54148  0.29671  1.0000
  H   H1177     1.0  0.80723  0.63405  0.32352  1.0000
  H   H1178     1.0  0.71866  0.64269  0.41097  1.0000
  H   H1179     1.0  0.69048  0.64794  0.33975  1.0000
  H   H1180     1.0  0.65970  0.96219  0.32713  1.0000
  H   H1181     1.0  0.57894  0.99342  0.37648  1.0000
  C   C982      1.0  0.70541  0.64607  0.39331  1.0000
  C   C983      1.0  0.51509  0.73617  0.30331  1.0000
  H   H1182     1.0  0.76410  0.90616  0.47834  1.0000
  H   H1183     1.0  0.74815  0.93539  0.49334  1.0000
  C   C984      1.0  0.75731  0.91535  0.49783  1.0000
  C   C985      1.0  0.83179  0.60165  0.49886  1.0000
  H   H1184     1.0  0.99898  0.77868  0.37409  1.0000
  H   H1185     1.0  0.90717  0.52193  0.38166  1.0000
  S   S272      1.0  0.00623  0.66845  0.29642  1.0000
  H   H1186     1.0  0.85046  0.85480  0.51129  1.0000
  C   C986      1.0  0.60413  0.52056  0.29234  1.0000
  C   C987      1.0  0.81922  0.88488  0.51358  1.0000
  H   H1187     1.0  0.83215  0.89951  0.50428  1.0000
  H   H1188     1.0  0.83623  0.62293  0.49646  1.0000
  N   N65       1.0  0.77993  0.91774  0.51673  1.0000
  N   N66       1.0  0.01035  0.72815  0.48266  1.0000
  S   S273      1.0  0.00967  0.59408  0.32982  1.0000
  H   H1189     1.0  0.81585  0.94132  0.51873  1.0000
  C   C988      1.0  0.84630  0.55586  0.50778  1.0000
  H   H1190     1.0  0.60025  0.51917  0.27029  1.0000
  H   H1191     1.0  0.56843  0.01769  0.31322  1.0000
  H   H1192     1.0  0.77247  0.52002  0.51834  1.0000
  H   H1193     1.0  0.98585  0.52021  0.62426  1.0000
  C   C989      1.0  0.98816  0.82940  0.71284  1.0000
  S   S274      1.0  0.53344  0.95015  0.74719  1.0000
  C   C990      1.0  0.77708  0.86928  0.53150  1.0000
  Fe  Fe140     1.0  0.00660  0.64560  0.70204  1.0000
  S   S275      1.0  0.89421  0.71895  0.56898  1.0000
  C   C991      1.0  0.95793  0.75445  0.68441  1.0000
  S   S276      1.0  0.70635  0.00281  0.67586  1.0000
  S   S277      1.0  0.73199  0.01689  0.59857  1.0000
  Fe  Fe141     1.0  0.66171  0.99843  0.67296  1.0000
  N   N67       1.0  0.97495  0.76978  0.66527  1.0000
  C   C992      1.0  0.99874  0.75297  0.65915  1.0000
  S   S278      1.0  0.98933  0.68594  0.68935  1.0000
  H   H1194     1.0  0.97186  0.78141  0.62317  1.0000
  H   H1195     1.0  0.57212  0.97621  0.61699  1.0000
  S   S279      1.0  0.97745  0.61051  0.70860  1.0000
  H   H1196     1.0  0.00364  0.80872  0.63882  1.0000
  C   C993      1.0  0.97932  0.57801  0.72388  1.0000
  C   C994      1.0  0.00772  0.83878  0.66932  1.0000
  H   H1197     1.0  0.76122  0.94906  0.54101  1.0000
  Fe  Fe142     1.0  0.88749  0.72806  0.52476  1.0000
  H   H1198     1.0  0.60377  0.83456  0.70632  1.0000
  C   C995      1.0  0.96011  0.55855  0.71716  1.0000
  C   C996      1.0  0.00826  0.52588  0.66151  1.0000
  H   H1199     1.0  0.95104  0.73505  0.67539  1.0000
  H   H1200     1.0  0.01055  0.86515  0.70389  1.0000
  C   C997      1.0  0.69929  0.99576  0.55837  1.0000
  C   C998      1.0  0.53728  0.99013  0.67068  1.0000
  S   S280      1.0  0.63978  0.95900  0.67816  1.0000
  H   H1201     1.0  0.98512  0.83499  0.73387  1.0000
  H   H1202     1.0  0.58603  0.01259  0.68093  1.0000
  H   H1203     1.0  0.60417  0.99007  0.62515  1.0000
  C   C999      1.0  0.00254  0.84643  0.69597  1.0000
  H   H1204     1.0  0.61972  0.88161  0.70980  1.0000
  S   S281      1.0  0.52547  0.87200  0.73268  1.0000
  C   C1000     1.0  0.92675  0.71235  0.58042  1.0000
  C   C1001     1.0  0.94890  0.71615  0.56362  1.0000
  C   C1002     1.0  0.97465  0.71091  0.57332  1.0000
  C   C1003     1.0  0.97840  0.70177  0.59985  1.0000
  C   C1004     1.0  0.95626  0.69798  0.61666  1.0000
  C   C1005     1.0  0.93053  0.70337  0.60699  1.0000
  H   H1205     1.0  0.94606  0.72330  0.54327  1.0000
  H   H1206     1.0  0.99172  0.71396  0.56031  1.0000
  H   H1207     1.0  0.95889  0.69070  0.63702  1.0000
  H   H1208     1.0  0.91343  0.70032  0.62003  1.0000
  C   C1006     1.0  0.56334  0.95204  0.72854  1.0000
  C   C1007     1.0  0.57009  0.93237  0.70927  1.0000
  C   C1008     1.0  0.59381  0.93462  0.69426  1.0000
  C   C1009     1.0  0.61085  0.95658  0.69830  1.0000
  C   C1010     1.0  0.60422  0.97617  0.71773  1.0000
  C   C1011     1.0  0.58048  0.97391  0.73279  1.0000
  H   H1209     1.0  0.55696  0.91555  0.70567  1.0000
  H   H1210     1.0  0.59878  0.91946  0.67916  1.0000
  H   H1211     1.0  0.61735  0.99305  0.72111  1.0000
  H   H1212     1.0  0.93984  0.76621  0.69036  1.0000
  C   C1012     1.0  0.74460  0.00536  0.54524  1.0000
  H   H1213     1.0  0.98657  0.56601  0.62948  1.0000
  H   H1214     1.0  0.78616  0.92955  0.55813  1.0000
  H   H1215     1.0  0.96903  0.74878  0.70300  1.0000
  H   H1216     1.0  0.95137  0.75403  0.63240  1.0000
  C   C1013     1.0  0.76989  0.92842  0.54302  1.0000
  C   C1014     1.0  0.60311  0.88829  0.74961  1.0000
  C   C1015     1.0  0.98366  0.79625  0.67601  1.0000
  C   C1016     1.0  0.78811  0.84353  0.53500  1.0000
  H   H1217     1.0  0.57531  0.98922  0.74766  1.0000
  C   C1017     1.0  0.95954  0.77349  0.64003  1.0000
  C   C1018     1.0  0.72457  0.00506  0.56533  1.0000
  N   N68       1.0  0.57038  0.01308  0.64033  1.0000
  H   H1218     1.0  0.82285  0.81829  0.53003  1.0000
  S   S282      1.0  0.65974  0.01506  0.63091  1.0000
  H   H1219     1.0  0.57812  0.81454  0.74405  1.0000
  C   C1019     1.0  0.99900  0.54541  0.75473  1.0000
  C   C1020     1.0  0.51137  0.98531  0.67981  1.0000
  H   H1220     1.0  0.58562  0.97327  0.65028  1.0000
  C   C1021     1.0  0.58351  0.98709  0.63283  1.0000
  H   H1221     1.0  0.67431  0.98054  0.52645  1.0000
  H   H1222     1.0  0.61016  0.90884  0.74938  1.0000
  C   C1022     1.0  0.54260  0.00821  0.64920  1.0000
  C   C1023     1.0  0.60873  0.87279  0.72649  1.0000
  C   C1024     1.0  0.58549  0.83502  0.74578  1.0000
  H   H1223     1.0  0.76420  0.01265  0.55032  1.0000
  H   H1224     1.0  0.75381  0.91581  0.55175  1.0000
  C   C1025     1.0  0.99848  0.81408  0.65941  1.0000
  C   C1026     1.0  0.79229  0.89078  0.52064  1.0000
  H   H1225     1.0  0.96907  0.79189  0.71780  1.0000
  H   H1226     1.0  0.77600  0.82719  0.54265  1.0000
  H   H1227     1.0  0.94474  0.56358  0.70282  1.0000
  C   C1027     1.0  0.96048  0.53261  0.72887  1.0000
  C   C1028     1.0  0.97985  0.52593  0.74791  1.0000
  C   C1029     1.0  0.99819  0.57168  0.64761  1.0000
  H   H1228     1.0  0.68370  0.99518  0.57354  1.0000
  H   H1229     1.0  0.55324  0.97973  0.68079  1.0000
  H   H1230     1.0  0.94247  0.78760  0.64337  1.0000
  C   C1030     1.0  0.59982  0.84629  0.72451  1.0000
  H   H1231     1.0  0.75639  0.87210  0.53696  1.0000
  H   H1232     1.0  0.00588  0.59239  0.64396  1.0000
  H   H1233     1.0  0.98391  0.57321  0.66487  1.0000
  C   C1031     1.0  0.97896  0.80457  0.70322  1.0000
  C   C1032     1.0  0.81458  0.83849  0.52805  1.0000
  H   H1234     1.0  0.99316  0.73266  0.65148  1.0000
  C   C1033     1.0  0.99890  0.57120  0.74266  1.0000
  C   C1034     1.0  0.69406  0.98731  0.53163  1.0000
  H   H1235     1.0  0.80957  0.52161  0.55147  1.0000
  C   C1035     1.0  0.57991  0.85024  0.76905  1.0000
  H   H1236     1.0  0.63610  0.64014  0.87977  1.0000
  S   S283      1.0  0.74050  0.57319  0.91365  1.0000
  H   H1237     1.0  0.80298  0.59788  0.93902  1.0000
  N   N69       1.0  0.58158  0.89328  0.79630  1.0000
  S   S284      1.0  0.66985  0.68847  0.99344  1.0000
  H   H1238     1.0  0.61464  0.57544  0.87816  1.0000
  C   C1036     1.0  0.01004  0.98611  0.83543  1.0000
  S   S285      1.0  0.59757  0.71987  0.97568  1.0000
  C   C1037     1.0  0.56213  0.71816  0.97828  1.0000
  C   C1038     1.0  0.54635  0.73218  0.95951  1.0000
  H   H1239     1.0  0.00662  0.81132  0.00884  1.0000
  C   C1039     1.0  0.62930  0.62347  0.95581  1.0000
  C   C1040     1.0  0.63369  0.58265  0.86921  1.0000
  H   H1240     1.0  0.61436  0.92119  0.79433  1.0000
  H   H1241     1.0  0.55594  0.74345  0.94354  1.0000
  H   H1242     1.0  0.61419  0.87606  0.81835  1.0000
  H   H1243     1.0  0.61445  0.66415  0.96009  1.0000
  H   H1244     1.0  0.69296  0.60455  0.89334  1.0000
  C   C1041     1.0  0.59226  0.92119  0.79604  1.0000
  C   C1042     1.0  0.62441  0.65440  0.91877  1.0000
  C   C1043     1.0  0.72104  0.58317  0.94183  1.0000
  C   C1044     1.0  0.71544  0.61068  0.94596  1.0000
  C   C1045     1.0  0.69972  0.61923  0.96805  1.0000
  C   C1046     1.0  0.69022  0.60043  0.98664  1.0000
  C   C1047     1.0  0.69575  0.57289  0.98249  1.0000
  C   C1048     1.0  0.71097  0.56423  0.96004  1.0000
  H   H1245     1.0  0.72307  0.62537  0.93186  1.0000
  H   H1246     1.0  0.69493  0.64034  0.97070  1.0000
  H   H1247     1.0  0.68837  0.55821  0.99676  1.0000
  H   H1248     1.0  0.71530  0.54298  0.95709  1.0000
  C   C1049     1.0  0.98086  0.98196  0.79705  1.0000
  H   H1249     1.0  0.76735  0.67966  0.96066  1.0000
  H   H1250     1.0  0.74436  0.69565  0.98299  1.0000
  H   H1251     1.0  0.61877  0.67426  0.91151  1.0000
  H   H1252     1.0  0.98662  0.93931  0.82944  1.0000
  H   H1253     1.0  0.54343  0.90489  0.78097  1.0000
  S   S286      1.0  0.51261  0.82686  0.79648  1.0000
  H   H1254     1.0  0.78578  0.55812  0.96310  1.0000
  C   C1050     1.0  0.63931  0.60366  0.93810  1.0000
  C   C1051     1.0  0.97319  0.95584  0.83691  1.0000
  C   C1052     1.0  0.78486  0.62674  0.96651  1.0000
  C   C1053     1.0  0.96539  0.00550  0.83713  1.0000
  Fe  Fe143     1.0  0.62868  0.70354  0.00531  1.0000
  S   S287      1.0  0.71792  0.53307  0.85309  1.0000
  H   H1255     1.0  0.95292  0.95075  0.82962  1.0000
  C   C1054     1.0  0.78595  0.67151  0.00954  1.0000
  C   C1055     1.0  0.66052  0.56248  0.90335  1.0000
  H   H1256     1.0  0.66956  0.54817  0.88847  1.0000
  C   C1056     1.0  0.52127  0.70371  0.00074  1.0000
  H   H1257     1.0  0.56115  0.69214  0.01284  1.0000
  C   C1057     1.0  0.67786  0.59938  0.87782  1.0000
  C   C1058     1.0  0.62194  0.64878  0.94620  1.0000
  H   H1258     1.0  0.62769  0.61930  0.97727  1.0000
  H   H1259     1.0  0.62921  0.60051  0.85655  1.0000
  N   N70       1.0  0.65337  0.58858  0.89062  1.0000
  H   H1260     1.0  0.73494  0.66535  0.96553  1.0000
  C   C1059     1.0  0.59233  0.87947  0.82045  1.0000
  H   H1261     1.0  0.96013  0.97928  0.78982  1.0000
  C   C1060     1.0  0.54935  0.70353  0.99864  1.0000
  C   C1061     1.0  0.63437  0.63475  0.90083  1.0000
  H   H1262     1.0  0.54266  0.87546  0.80176  1.0000
  H   H1263     1.0  0.67402  0.61781  0.86578  1.0000
  H   H1264     1.0  0.80242  0.67171  0.99441  1.0000
  C   C1062     1.0  0.78160  0.57823  0.97089  1.0000
  H   H1265     1.0  0.58865  0.89142  0.83926  1.0000
  H   H1266     1.0  0.64283  0.55221  0.91208  1.0000
  C   C1063     1.0  0.94151  0.00186  0.85230  1.0000
  H   H1267     1.0  0.77085  0.76752  0.01820  1.0000
  N   N71       1.0  0.76159  0.65879  0.99874  1.0000
  H   H1268     1.0  0.86518  0.60284  0.79547  1.0000
  H   H1269     1.0  0.72231  0.64919  0.01368  1.0000
  H   H1270     1.0  0.68735  0.58440  0.86383  1.0000
  C   C1064     1.0  0.64227  0.60877  0.90996  1.0000
  C   C1065     1.0  0.76583  0.58166  0.99393  1.0000
  N   N72       1.0  0.98195  0.98264  0.82699  1.0000
  H   H1271     1.0  0.58688  0.93256  0.81481  1.0000
  C   C1066     1.0  0.87913  0.56216  0.80228  1.0000
  H   H1272     1.0  0.64100  0.56642  0.85517  1.0000
  C   C1067     1.0  0.75169  0.67542  0.97596  1.0000
  H   H1273     1.0  0.64503  0.58470  0.94714  1.0000
  H   H1274     1.0  0.85976  0.55652  0.80988  1.0000
  H   H1275     1.0  0.93436  0.98216  0.85790  1.0000
  H   H1276     1.0  0.75792  0.56409  0.00411  1.0000
  H   H1277     1.0  0.58383  0.93309  0.77902  1.0000
  H   H1278     1.0  0.53327  0.79291  0.97986  1.0000
  H   H1279     1.0  0.79299  0.64347  0.95534  1.0000
  C   C1068     1.0  0.76816  0.63101  0.98946  1.0000
  H   H1280     1.0  0.58294  0.85947  0.82381  1.0000
  H   H1281     1.0  0.92129  0.52016  0.84385  1.0000
  H   H1282     1.0  0.98841  0.00091  0.78793  1.0000
  H   H1283     1.0  0.97342  0.95499  0.85939  1.0000
  H   H1284     1.0  0.78229  0.69292  0.01546  1.0000
  Fe  Fe144     1.0  0.73399  0.53185  0.89521  1.0000
  C   C1069     1.0  0.51825  0.73230  0.96154  1.0000
  H   H1285     1.0  0.94622  0.58704  0.77245  1.0000
  H   H1286     1.0  0.67566  0.56508  0.91926  1.0000
  C   C1070     1.0  0.75911  0.60758  0.00319  1.0000
  H   H1287     1.0  0.94208  0.54024  0.78662  1.0000
  H   H1288     1.0  0.72617  0.01238  0.80965  1.0000
  C   C1071     1.0  0.92755  0.58013  0.78107  1.0000
  H   H1289     1.0  0.54617  0.90797  0.81694  1.0000
  H   H1290     1.0  0.82647  0.89170  0.00596  1.0000
  C   C1072     1.0  0.92499  0.55334  0.78936  1.0000
  C   C1073     1.0  0.90075  0.54349  0.80031  1.0000
  C   C1074     1.0  0.79117  0.60071  0.95726  1.0000
  H   H1291     1.0  0.99338  0.96532  0.78836  1.0000
  H   H1292     1.0  0.56825  0.84069  0.78473  1.0000
  C   C1075     1.0  0.88194  0.58897  0.79396  1.0000
  C   C1076     1.0  0.55225  0.89543  0.79917  1.0000
  H   H1293     1.0  0.87000  0.52052  0.84037  1.0000
  S   S288      1.0  0.67158  0.61066  0.01532  1.0000
  H   H1294     1.0  0.56492  0.77406  0.01115  1.0000
  C   C1077     1.0  0.52630  0.78581  0.99935  1.0000
  C   C1078     1.0  0.90607  0.59792  0.78336  1.0000
  H   H1295     1.0  0.90812  0.61861  0.77663  1.0000
  C   C1079     1.0  0.58837  0.87744  0.77165  1.0000
  H   H1296     1.0  0.51168  0.69257  0.01678  1.0000
  C   C1080     1.0  0.54436  0.77484  0.01771  1.0000
