data_image0
_chemical_formula_structural       FeS2FeS2FeSFeS3HS2H2SC7H4C6H2CNC2HCH3C6H4NC3HCH3SHCH2NH2FeCHC4H4CHCHCHCH3CH2CH4CH2CH3C2HCHCHCH6NC3HCHC2HCH3C2HFeS2FeS2FeSFeS3CSH2SHFe2SH4SC2HFeS2C5HCH3C7H4C5H2NHC6H11CHNCNH3C2HCH4CHCHCH3C2HCH2FeCHC3SC3HCHFeC3SCH4CHNH2C4HFeH4NCSCFeCH5SC2SH3C2HC3H4C3H2C2H2SCH2CHC2HCHNCH2CH2CH2CFeS2FeS2FeSFeS3H3SC2HC6H4C6H2CSC4HCHC6H5CHC2H3C2H4CHC2NC3H3C2H7SH3CH3C5H4CH2SC2HCH2C5H4CH2CHCFeS2FeS2FeSFeS3CSFeC2HSFeSHCHS2HCSFeSH2CHCH2NH2CHC6H4C2S2C2HC8H5CH9C3HCH4CHCH4NCHCH2C3HC3NH6FeSHNHCH2CHC2HC2H2NCFeCHC2HFeNCH4C3H2CH3CHFeCH4CHCH3C2SH2SCH2C3FeH2CH2CH6SFeH5SCH4SHSHCHSCH3C4HSH3SC2HC3H2CSCH2FeCH2NC9HSH2CH4SHCH2C2HCHCSH2CFeHCH2CFeSH2C2H2SHCNCHSC2SFeSFeCSC2S2C2Fe2S2HCHC2SHCHC3HC3H4SC3HCH2Fe2HCH6CH3SHFeH4CH4CH2SHC2HCHC5H2CHC2SH2NSNC7HC2H5FeCH3NCSH2NH2CSH2CH3C4NS2H3C2FeH4C4H4CHNHCSC3HCH2SCHC6HCH9C3H2SH3SC3H2CH2SHSC2HFeS2C2H2CFeSHSFeC2NCH3CHCH3CH2C2HSCHCH3C3HC3H2CH3CNH2NHCH2SHCFe2SHCSCHC2FeCHSCHCHSC2HFeSCH2CNH5C2HCH2SFeSCHC3SH3C2HC2HSHC2HC2SHFe2HC2NH2C2HCHCHCSH2CH2FeCH2C2SCHC2S2CFeS2HCH3CFe2SHNCH2NFeC6H4C3H2C2FeH3CHCH3C2SCHS2CSCH8CH2C3HCH4C4H3C2H4FeS2NSNFeSFeS2CFeS2HCH4C2SHCHC6H4CH5CFeCHCH3CH2CHC2H4C2FeC2HSC3HCHNC2HCH5C3HCH4CSFeH2C4HCH4C2H2CH2C2H3SFeS2H2SC2SH2SHCHC3FeC6H4C3H2CHNH5CH3C2H2SC2FeHCFeHCSH2FeSCHCHCH3C2FeSHCSCFeSFeS2HFeSCFeH2C2SCHC2SHC6H5CHCHCH3CH2S2FeHC2H4CFeC2H2SCHCH5C3HSC4H3C5HNHC2HCHC2HCH4NHC2HCHCNH11C2HNH5CHCH3CH2CH2
_chemical_formula_sum              "Fe80 S160 H720 C600 N40"
_cell_length_a       63.0375
_cell_length_b       63.0987
_cell_length_c       29.0556
_cell_angle_alpha    88.4381
_cell_angle_beta     88.8048
_cell_angle_gamma    123.4

_space_group_name_H-M_alt    "P 1"
_space_group_IT_number       1

loop_
  _space_group_symop_operation_xyz
  'x, y, z'

loop_
  _atom_site_type_symbol
  _atom_site_label
  _atom_site_symmetry_multiplicity
  _atom_site_fract_x
  _atom_site_fract_y
  _atom_site_fract_z
  _atom_site_occupancy
  Fe  Fe1       1.0  0.15365  0.32827  0.25308  1.0000
  S   S1        1.0  0.16143  0.36507  0.22067  1.0000
  S   S2        1.0  0.15343  0.31724  0.33043  1.0000
  Fe  Fe2       1.0  0.15252  0.30715  0.15584  1.0000
  S   S3        1.0  0.16084  0.34268  0.11847  1.0000
  S   S4        1.0  0.15491  0.27897  0.11205  1.0000
  Fe  Fe3       1.0  0.18912  0.36341  0.17247  1.0000
  S   S5        1.0  0.22900  0.39727  0.15379  1.0000
  Fe  Fe4       1.0  0.13239  0.34099  0.16887  1.0000
  S   S6        1.0  0.10021  0.34300  0.13925  1.0000
  S   S7        1.0  0.18296  0.32829  0.20689  1.0000
  S   S8        1.0  0.12236  0.30388  0.20414  1.0000
  H   H1        1.0  0.01962  0.42879  0.19176  1.0000
  S   S9        1.0  0.98834  0.40933  0.99622  1.0000
  S   S10       1.0  0.10469  0.43911  0.05103  1.0000
  H   H2        1.0  0.99976  0.42862  0.08834  1.0000
  H   H3        1.0  0.26398  0.38774  0.22484  1.0000
  S   S11       1.0  0.06421  0.18113  0.01974  1.0000
  C   C1        1.0  0.16303  0.36077  0.44167  1.0000
  C   C2        1.0  0.10179  0.37019  0.11637  1.0000
  C   C3        1.0  0.08075  0.36683  0.09354  1.0000
  C   C4        1.0  0.08135  0.38773  0.07339  1.0000
  C   C5        1.0  0.10283  0.41233  0.07687  1.0000
  C   C6        1.0  0.12365  0.41579  0.10067  1.0000
  C   C7        1.0  0.12329  0.39481  0.11985  1.0000
  H   H4        1.0  0.06398  0.34785  0.09095  1.0000
  H   H5        1.0  0.06517  0.38475  0.05531  1.0000
  H   H6        1.0  0.14035  0.43478  0.10361  1.0000
  H   H7        1.0  0.13955  0.39769  0.13759  1.0000
  C   C8        1.0  0.24999  0.39221  0.12213  1.0000
  C   C9        1.0  0.24426  0.36771  0.11573  1.0000
  C   C10       1.0  0.26141  0.36427  0.09060  1.0000
  C   C11       1.0  0.03467  0.41139  0.09315  1.0000
  C   C12       1.0  0.28428  0.38525  0.07117  1.0000
  C   C13       1.0  0.27298  0.41318  0.10314  1.0000
  H   H8        1.0  0.22667  0.35139  0.13040  1.0000
  H   H9        1.0  0.25683  0.34525  0.08598  1.0000
  C   C14       1.0  0.01698  0.44737  0.08938  1.0000
  N   N1        1.0  0.98031  0.99952  0.99187  1.0000
  C   C15       1.0  0.15769  0.32938  0.38724  1.0000
  C   C16       1.0  0.15841  0.31522  0.42494  1.0000
  H   H10       1.0  0.27657  0.41504  0.29244  1.0000
  C   C17       1.0  0.16029  0.35241  0.39604  1.0000
  H   H11       1.0  0.15674  0.29754  0.41880  1.0000
  H   H12       1.0  0.19546  0.36631  0.30134  1.0000
  H   H13       1.0  0.15972  0.36362  0.36783  1.0000
  C   C18       1.0  0.12931  0.25197  0.08668  1.0000
  C   C19       1.0  0.13434  0.23638  0.06151  1.0000
  C   C20       1.0  0.11462  0.21466  0.04085  1.0000
  C   C21       1.0  0.08963  0.20836  0.04503  1.0000
  C   C22       1.0  0.08460  0.22406  0.06986  1.0000
  C   C23       1.0  0.10434  0.24582  0.09052  1.0000
  H   H14       1.0  0.15356  0.24088  0.05866  1.0000
  H   H15       1.0  0.11872  0.20253  0.02251  1.0000
  H   H16       1.0  0.06533  0.21933  0.07342  1.0000
  H   H17       1.0  0.10023  0.25767  0.10985  1.0000
  N   N2        1.0  0.23630  0.38727  0.30287  1.0000
  C   C24       1.0  0.21265  0.38487  0.28910  1.0000
  C   C25       1.0  0.23639  0.38618  0.35409  1.0000
  C   C26       1.0  0.25810  0.41282  0.28616  1.0000
  H   H18       1.0  0.21080  0.40003  0.30316  1.0000
  C   C27       1.0  0.20172  0.33294  0.02729  1.0000
  H   H19       1.0  0.21217  0.38613  0.25091  1.0000
  H   H20       1.0  0.23840  0.40322  0.36909  1.0000
  H   H21       1.0  0.25724  0.41643  0.24865  1.0000
  S   S12       1.0  0.05980  0.45744  0.99319  1.0000
  H   H22       1.0  0.21828  0.36981  0.37007  1.0000
  C   C28       1.0  0.23709  0.36621  0.28352  1.0000
  H   H23       1.0  0.96465  0.99318  0.06114  1.0000
  H   H24       1.0  0.23578  0.30900  0.23031  1.0000
  N   N3        1.0  0.03898  0.42922  0.12956  1.0000
  H   H25       1.0  0.07948  0.44582  0.12579  1.0000
  H   H26       1.0  0.16463  0.37842  0.44782  1.0000
  Fe  Fe5       1.0  0.07983  0.43686  0.99314  1.0000
  C   C29       1.0  0.19503  0.31241  0.00038  1.0000
  H   H27       1.0  0.19451  0.32947  0.06286  1.0000
  C   C30       1.0  0.01814  0.41557  0.16546  1.0000
  C   C31       1.0  0.22106  0.34100  0.30266  1.0000
  C   C32       1.0  0.23639  0.32485  0.24535  1.0000
  C   C33       1.0  0.03915  0.45113  0.10918  1.0000
  H   H28       1.0  0.03384  0.39434  0.10720  1.0000
  H   H29       1.0  0.25814  0.42835  0.30351  1.0000
  H   H30       1.0  0.27764  0.43221  0.10811  1.0000
  H   H31       1.0  0.05041  0.42070  0.06642  1.0000
  C   C34       1.0  0.02703  0.98201  0.02827  1.0000
  H   H32       1.0  0.01667  0.40448  0.07528  1.0000
  C   C35       1.0  0.00502  0.97967  0.01278  1.0000
  H   H33       1.0  0.20774  0.33649  0.33118  1.0000
  C   C36       1.0  0.06310  0.43654  0.15138  1.0000
  H   H34       1.0  0.99902  0.40644  0.15079  1.0000
  C   C37       1.0  0.02443  0.02473  0.02152  1.0000
  H   H35       1.0  0.12550  0.40707  0.00276  1.0000
  H   H36       1.0  0.06737  0.44964  0.17977  1.0000
  H   H37       1.0  0.99675  0.10429  0.03996  1.0000
  C   C38       1.0  0.25200  0.34922  0.22515  1.0000
  H   H38       1.0  0.98148  0.02573  0.03987  1.0000
  H   H39       1.0  0.06218  0.04514  0.04717  1.0000
  C   C39       1.0  0.00320  0.00113  0.00834  1.0000
  H   H40       1.0  0.01849  0.39999  0.18359  1.0000
  H   H41       1.0  0.25969  0.40833  0.00796  1.0000
  H   H42       1.0  0.06244  0.41970  0.16617  1.0000
  H   H43       1.0  0.01033  0.16568  0.99374  1.0000
  C   C40       1.0  0.25225  0.36963  0.24348  1.0000
  H   H44       1.0  0.22267  0.37276  0.03243  1.0000
  H   H45       1.0  0.18273  0.29321  0.01529  1.0000
  C   C41       1.0  0.99773  0.15846  0.02545  1.0000
  H   H46       1.0  0.20800  0.30161  0.29864  1.0000
  H   H47       1.0  0.02450  0.04191  0.01940  1.0000
  H   H48       1.0  0.01645  0.13134  0.00135  1.0000
  C   C42       1.0  0.96885  0.00572  0.02988  1.0000
  C   C43       1.0  0.04615  0.02677  0.03769  1.0000
  H   H49       1.0  0.96563  0.10433  0.09302  1.0000
  C   C44       1.0  0.22089  0.32074  0.28396  1.0000
  H   H50       1.0  0.01905  0.13507  0.06189  1.0000
  C   C45       1.0  0.28999  0.40974  0.07747  1.0000
  H   H51       1.0  0.98337  0.16339  0.02187  1.0000
  C   C46       1.0  0.04757  0.00551  0.04065  1.0000
  H   H52       1.0  0.10172  0.34981  0.01855  1.0000
  H   H53       1.0  0.13967  0.39111  0.02426  1.0000
  H   H54       1.0  0.98700  0.13636  0.10783  1.0000
  H   H55       1.0  0.13994  0.35461  0.01016  1.0000
  H   H56       1.0  0.08413  0.36192  0.99668  1.0000
  H   H57       1.0  0.01051  0.16970  0.05346  1.0000
  N   N4        1.0  0.98530  0.13069  0.03463  1.0000
  C   C47       1.0  0.13554  0.39790  0.99204  1.0000
  C   C48       1.0  0.21805  0.35784  0.00919  1.0000
  C   C49       1.0  0.16134  0.32368  0.47052  1.0000
  H   H58       1.0  0.25227  0.38480  0.36608  1.0000
  C   C50       1.0  0.00517  0.12503  0.03457  1.0000
  H   H59       1.0  0.99967  0.46391  0.05302  1.0000
  C   C51       1.0  0.09724  0.35611  0.98613  1.0000
  C   C52       1.0  0.96729  0.11625  0.99830  1.0000
  H   H60       1.0  0.06468  0.00726  0.05231  1.0000
  C   C53       1.0  0.01674  0.46754  0.06885  1.0000
  H   H61       1.0  0.23365  0.40812  0.98245  1.0000
  H   H62       1.0  0.26351  0.35227  0.19429  1.0000
  H   H63       1.0  0.09729  0.05186  0.00167  1.0000
  C   C54       1.0  0.97314  0.12435  0.08172  1.0000
  C   C55       1.0  0.16335  0.34641  0.47948  1.0000
  H   H64       1.0  0.16593  0.33960  0.98214  1.0000
  Fe  Fe6       1.0  0.15742  0.36574  0.70957  1.0000
  S   S13       1.0  0.19216  0.37764  0.66428  1.0000
  S   S14       1.0  0.15670  0.39621  0.74885  1.0000
  Fe  Fe7       1.0  0.13504  0.30958  0.69555  1.0000
  S   S15       1.0  0.16791  0.31724  0.64975  1.0000
  S   S16       1.0  0.10097  0.27007  0.71548  1.0000
  Fe  Fe8       1.0  0.19196  0.34593  0.70225  1.0000
  S   S17       1.0  0.22350  0.34476  0.73673  1.0000
  Fe  Fe9       1.0  0.16516  0.34811  0.61500  1.0000
  S   S18       1.0  0.16615  0.35777  0.53670  1.0000
  S   S19       1.0  0.15895  0.33583  0.74989  1.0000
  S   S20       1.0  0.13049  0.33866  0.65849  1.0000
  C   C56       1.0  0.02922  0.03189  0.83604  1.0000
  S   S21       1.0  0.07343  0.12083  0.86579  1.0000
  H   H65       1.0  0.99476  0.13696  0.94055  1.0000
  H   H66       1.0  0.13296  0.28675  0.94911  1.0000
  S   S22       1.0  0.05797  0.16070  0.89672  1.0000
  H   H67       1.0  0.10109  0.24774  0.85008  1.0000
  Fe  Fe10      1.0  0.07378  0.46907  0.91987  1.0000
  Fe  Fe11      1.0  0.09318  0.16317  0.87203  1.0000
  S   S23       1.0  0.12194  0.19388  0.82032  1.0000
  H   H68       1.0  0.08567  0.47164  0.82274  1.0000
  H   H69       1.0  0.22099  0.39139  0.90267  1.0000
  H   H70       1.0  0.10614  0.27378  0.88251  1.0000
  H   H71       1.0  0.17416  0.24594  0.57476  1.0000
  S   S24       1.0  0.04010  0.43455  0.89075  1.0000
  C   C57       1.0  0.09782  0.05177  0.86877  1.0000
  C   C58       1.0  0.11169  0.38718  0.92375  1.0000
  H   H72       1.0  0.04918  0.04063  0.84204  1.0000
  Fe  Fe12      1.0  0.06242  0.41654  0.89873  1.0000
  S   S25       1.0  0.06176  0.39035  0.84553  1.0000
  S   S26       1.0  0.09737  0.45209  0.92174  1.0000
  C   C59       1.0  0.12801  0.25548  0.60703  1.0000
  C   C60       1.0  0.13372  0.25841  0.52389  1.0000
  C   C61       1.0  0.09669  0.03205  0.94201  1.0000
  C   C62       1.0  0.14663  0.26697  0.88251  1.0000
  C   C63       1.0  0.01210  0.00505  0.83713  1.0000
  H   H73       1.0  0.17863  0.34448  0.89915  1.0000
  C   C64       1.0  0.15686  0.29184  0.86304  1.0000
  H   H74       1.0  0.04803  0.44714  0.77978  1.0000
  H   H75       1.0  0.15224  0.24775  0.64480  1.0000
  H   H76       1.0  0.09690  0.01741  0.96183  1.0000
  C   C65       1.0  0.09811  0.41075  0.69819  1.0000
  C   C66       1.0  0.08849  0.39210  0.81988  1.0000
  C   C67       1.0  0.11319  0.41358  0.82272  1.0000
  C   C68       1.0  0.13384  0.41435  0.80119  1.0000
  C   C69       1.0  0.13008  0.39371  0.77665  1.0000
  C   C70       1.0  0.10544  0.37208  0.77436  1.0000
  C   C71       1.0  0.08474  0.37137  0.79570  1.0000
  H   H77       1.0  0.11647  0.42963  0.84138  1.0000
  H   H78       1.0  0.15285  0.43117  0.80303  1.0000
  H   H79       1.0  0.10229  0.35608  0.75555  1.0000
  H   H80       1.0  0.06570  0.35467  0.79328  1.0000
  C   C72       1.0  0.24791  0.37036  0.76680  1.0000
  C   C73       1.0  0.25113  0.39413  0.76597  1.0000
  C   C74       1.0  0.09653  0.05143  0.96460  1.0000
  C   C75       1.0  0.09510  0.46376  0.80345  1.0000
  C   C76       1.0  0.12073  0.25954  0.56344  1.0000
  H   H81       1.0  0.03540  0.99324  0.77533  1.0000
  H   H82       1.0  0.23844  0.39716  0.74669  1.0000
  N   N5        1.0  0.12031  0.37711  0.96049  1.0000
  H   H83       1.0  0.16216  0.31267  0.49875  1.0000
  C   C77       1.0  0.10691  0.24891  0.74424  1.0000
  C   C78       1.0  0.13160  0.25445  0.74655  1.0000
  C   C79       1.0  0.13579  0.23710  0.76894  1.0000
  C   C80       1.0  0.11554  0.21451  0.79059  1.0000
  C   C81       1.0  0.09084  0.20900  0.78843  1.0000
  C   C82       1.0  0.08652  0.22601  0.76480  1.0000
  H   H84       1.0  0.14747  0.27199  0.73072  1.0000
  H   H85       1.0  0.15489  0.24133  0.76986  1.0000
  H   H86       1.0  0.07503  0.19148  0.80431  1.0000
  H   H87       1.0  0.06735  0.22150  0.76284  1.0000
  H   H88       1.0  0.13782  0.37858  0.86913  1.0000
  H   H89       1.0  0.06173  0.24851  0.58266  1.0000
  H   H90       1.0  0.09955  0.39349  0.93788  1.0000
  H   H91       1.0  0.06496  0.40687  0.72652  1.0000
  H   H92       1.0  0.04070  0.98149  0.89903  1.0000
  H   H93       1.0  0.27146  0.37856  0.91134  1.0000
  H   H94       1.0  0.10909  0.21595  0.89003  1.0000
  C   C83       1.0  0.15963  0.34813  0.95780  1.0000
  H   H95       1.0  0.27843  0.38742  0.96992  1.0000
  N   N6        1.0  0.10103  0.26542  0.56055  1.0000
  C   C84       1.0  0.11037  0.28999  0.58179  1.0000
  N   N7        1.0  0.02152  0.98844  0.84575  1.0000
  H   H96       1.0  0.16411  0.36400  0.84360  1.0000
  H   H97       1.0  0.26242  0.34851  0.79223  1.0000
  H   H98       1.0  0.19952  0.30059  0.93428  1.0000
  C   C85       1.0  0.10249  0.25446  0.88559  1.0000
  C   C86       1.0  0.14695  0.25053  0.61092  1.0000
  H   H99       1.0  0.08336  0.24216  0.90321  1.0000
  C   C87       1.0  0.23976  0.39371  0.89927  1.0000
  H   H100      1.0  0.09681  0.29598  0.57866  1.0000
  H   H101      1.0  0.97145  0.97533  0.83092  1.0000
  H   H102      1.0  0.01663  0.98616  0.91956  1.0000
  H   H103      1.0  0.99241  0.08182  0.96691  1.0000
  C   C88       1.0  0.97541  0.12215  0.95106  1.0000
  H   H104      1.0  0.26378  0.33133  0.96482  1.0000
  C   C89       1.0  0.28823  0.41084  0.81360  1.0000
  H   H105      1.0  0.27396  0.43277  0.78733  1.0000
  C   C90       1.0  0.17947  0.30458  0.83587  1.0000
  H   H106      1.0  0.22864  0.34380  0.90173  1.0000
  H   H107      1.0  0.12810  0.40412  0.90497  1.0000
  H   H108      1.0  0.05194  0.42133  0.78413  1.0000
  C   C91       1.0  0.12434  0.42621  0.68996  1.0000
  C   C92       1.0  0.27751  0.33291  0.89550  1.0000
  H   H109      1.0  0.14714  0.30138  0.86771  1.0000
  C   C93       1.0  0.04196  0.99460  0.81102  1.0000
  H   H110      1.0  0.11090  0.28364  0.49239  1.0000
  H   H111      1.0  0.97053  0.01562  0.93605  1.0000
  Fe  Fe13      1.0  0.07023  0.15834  0.96766  1.0000
  C   C94       1.0  0.98605  0.99542  0.83005  1.0000
  H   H112      1.0  0.18651  0.32314  0.81974  1.0000
  C   C95       1.0  0.27133  0.41430  0.78896  1.0000
  C   C96       1.0  0.02098  0.04805  0.82705  1.0000
  C   C97       1.0  0.22110  0.34148  0.93661  1.0000
  S   S27       1.0  0.09325  0.09295  0.97034  1.0000
  C   C98       1.0  0.05718  0.43847  0.76223  1.0000
  C   C99       1.0  0.97600  0.06683  0.95041  1.0000
  C   C100      1.0  0.08510  0.42025  0.71963  1.0000
  H   H113      1.0  0.03438  0.06852  0.82623  1.0000
  C   C101      1.0  0.27220  0.39152  0.93723  1.0000
  H   H114      1.0  0.26150  0.33165  0.87956  1.0000
  Fe  Fe14      1.0  0.02703  0.42210  0.96445  1.0000
  C   C102      1.0  0.12494  0.46108  0.72408  1.0000
  C   C103      1.0  0.18360  0.26907  0.84732  1.0000
  C   C104      1.0  0.09819  0.44586  0.73310  1.0000
  S   S28       1.0  0.04832  0.11551  0.97014  1.0000
  C   C105      1.0  0.15855  0.36177  0.88000  1.0000
  H   H115      1.0  0.15459  0.23710  0.88684  1.0000
  H   H116      1.0  0.23876  0.38112  0.87225  1.0000
  H   H117      1.0  0.07915  0.27140  0.51174  1.0000
  H   H118      1.0  0.10002  0.37247  0.89866  1.0000
  C   C106      1.0  0.09624  0.07037  0.89152  1.0000
  H   H119      1.0  0.12986  0.26163  0.48927  1.0000
  N   N8        1.0  0.24751  0.38891  0.94425  1.0000
  H   H120      1.0  0.04667  0.01258  0.89788  1.0000
  H   H121      1.0  0.99184  0.47131  0.96280  1.0000
  C   C107      1.0  0.14332  0.37018  0.89529  1.0000
  C   C108      1.0  0.20454  0.31664  0.95498  1.0000
  C   C109      1.0  0.13584  0.36785  0.94272  1.0000
  C   C110      1.0  0.97530  0.06727  0.90235  1.0000
  H   H122      1.0  0.13444  0.41844  0.67494  1.0000
  Fe  Fe15      1.0  0.03920  0.11840  0.89723  1.0000
  H   H123      1.0  0.09376  0.21681  0.94165  1.0000
  H   H124      1.0  0.98443  0.41776  0.89825  1.0000
  H   H125      1.0  0.11327  0.28908  0.61916  1.0000
  H   H126      1.0  0.09613  0.08510  0.87182  1.0000
  N   N9        1.0  0.12242  0.25372  0.91058  1.0000
  C   C111      1.0  0.09547  0.07021  0.93969  1.0000
  S   S29       1.0  0.10661  0.16295  0.94330  1.0000
  C   C112      1.0  0.26465  0.36678  0.79184  1.0000
  Fe  Fe16      1.0  0.08373  0.12013  0.93903  1.0000
  C   C113      1.0  0.16094  0.25608  0.87434  1.0000
  H   H127      1.0  0.19359  0.25991  0.84003  1.0000
  H   H128      1.0  0.99862  0.01562  0.92518  1.0000
  H   H129      1.0  0.05916  0.01399  0.81411  1.0000
  H   H130      1.0  0.20978  0.30278  0.80542  1.0000
  H   H131      1.0  0.09906  0.05246  0.83153  1.0000
  S   S30       1.0  0.00067  0.09206  0.86769  1.0000
  C   C114      1.0  0.15930  0.24955  0.57156  1.0000
  C   C115      1.0  0.09733  0.03210  0.89391  1.0000
  S   S31       1.0  0.09645  0.00745  0.86411  1.0000
  H   H132      1.0  0.08793  0.39098  0.68942  1.0000
  H   H133      1.0  0.07986  0.24466  0.62377  1.0000
  H   H134      1.0  0.99922  0.03805  0.96228  1.0000
  C   C116      1.0  0.99555  0.03803  0.81897  1.0000
  C   C117      1.0  0.28469  0.38689  0.81529  1.0000
  H   H135      1.0  0.12527  0.22427  0.94364  1.0000
  C   C118      1.0  0.22845  0.36289  0.96323  1.0000
  C   C119      1.0  0.09437  0.26751  0.51260  1.0000
  C   C120      1.0  0.19272  0.29315  0.82779  1.0000
  H   H136      1.0  0.15404  0.41310  0.97515  1.0000
  H   H137      1.0  0.11942  0.25655  0.63868  1.0000
  H   H138      1.0  0.04868  0.98162  0.81509  1.0000
  H   H139      1.0  0.09173  0.44693  0.82379  1.0000
  C   C121      1.0  0.11232  0.22657  0.92183  1.0000
  C   C122      1.0  0.07733  0.24530  0.58605  1.0000
  C   C123      1.0  0.25162  0.40924  0.97487  1.0000
  H   H140      1.0  0.12890  0.30543  0.56530  1.0000
  H   H141      1.0  0.07064  0.22620  0.57330  1.0000
  C   C124      1.0  0.15271  0.25348  0.52817  1.0000
  C   C125      1.0  0.12651  0.26652  0.95461  1.0000
  H   H142      1.0  0.98946  0.05072  0.81111  1.0000
  H   H143      1.0  0.25381  0.41342  0.88496  1.0000
  S   S32       1.0  0.04592  0.40045  0.97040  1.0000
  C   C126      1.0  0.13773  0.45132  0.70289  1.0000
  H   H144      1.0  0.28741  0.41110  0.92473  1.0000
  H   H145      1.0  0.96598  0.11266  0.88046  1.0000
  C   C127      1.0  0.97804  0.01182  0.82112  1.0000
  H   H146      1.0  0.96139  0.47228  0.88225  1.0000
  C   C128      1.0  0.27875  0.33259  0.94330  1.0000
  C   C129      1.0  0.16668  0.35077  0.91117  1.0000
  H   H147      1.0  0.14112  0.26604  0.97464  1.0000
  C   C130      1.0  0.14457  0.35665  0.97351  1.0000
  H   H148      1.0  0.04834  0.43226  0.72832  1.0000
  N   N10       1.0  0.08523  0.45651  0.75676  1.0000
  C   C131      1.0  0.03180  0.99238  0.89244  1.0000
  H   H149      1.0  0.15824  0.46304  0.69737  1.0000
  H   H150      1.0  0.08736  0.24967  0.49436  1.0000
  C   C132      1.0  0.96870  0.41639  0.91699  1.0000
  H   H151      1.0  0.26562  0.42857  0.95904  1.0000
  H   H152      1.0  0.16256  0.25295  0.49761  1.0000
  C   C133      1.0  0.98749  0.01796  0.95229  1.0000
  H   H153      1.0  0.10877  0.25700  0.97703  1.0000
  H   H154      1.0  0.08640  0.33931  0.96458  1.0000
  C   C134      1.0  0.96631  0.41253  0.96495  1.0000
  Fe  Fe17      1.0  0.14981  0.83544  0.25404  1.0000
  S   S33       1.0  0.16081  0.86695  0.20013  1.0000
  S   S34       1.0  0.13718  0.83419  0.33005  1.0000
  Fe  Fe18      1.0  0.14989  0.80102  0.18179  1.0000
  S   S35       1.0  0.16162  0.82953  0.12341  1.0000
  S   S36       1.0  0.14290  0.76226  0.17100  1.0000
  Fe  Fe19      1.0  0.18854  0.85802  0.17205  1.0000
  S   S37       1.0  0.22607  0.89068  0.14096  1.0000
  Fe  Fe20      1.0  0.13328  0.83675  0.15378  1.0000
  S   S38       1.0  0.10757  0.83701  0.09982  1.0000
  S   S39       1.0  0.17979  0.82892  0.22880  1.0000
  S   S40       1.0  0.11943  0.80576  0.20945  1.0000
  H   H155      1.0  0.07727  0.88110  0.00829  1.0000
  H   H156      1.0  0.26361  0.92019  0.06898  1.0000
  H   H157      1.0  0.05983  0.80396  0.99374  1.0000
  S   S41       1.0  0.10988  0.93495  0.02865  1.0000
  C   C135      1.0  0.18009  0.78980  0.04993  1.0000
  C   C136      1.0  0.15457  0.89359  0.40338  1.0000
  H   H158      1.0  0.11962  0.89180  0.40794  1.0000
  C   C137      1.0  0.10821  0.86443  0.08143  1.0000
  C   C138      1.0  0.09090  0.86202  0.04888  1.0000
  C   C139      1.0  0.09092  0.88332  0.03288  1.0000
  C   C140      1.0  0.10834  0.90734  0.04927  1.0000
  C   C141      1.0  0.12582  0.90978  0.08149  1.0000
  C   C142      1.0  0.12581  0.88846  0.09747  1.0000
  H   H159      1.0  0.07706  0.84351  0.03657  1.0000
  H   H160      1.0  0.15392  0.89123  0.36645  1.0000
  H   H161      1.0  0.13940  0.92828  0.09434  1.0000
  H   H162      1.0  0.13928  0.89063  0.12249  1.0000
  C   C143      1.0  0.24633  0.88488  0.10902  1.0000
  C   C144      1.0  0.24657  0.86311  0.11792  1.0000
  C   C145      1.0  0.26477  0.86034  0.09504  1.0000
  C   C146      1.0  0.28248  0.87905  0.06259  1.0000
  C   C147      1.0  0.99347  0.53763  0.05370  1.0000
  C   C148      1.0  0.26369  0.90331  0.07595  1.0000
  H   H163      1.0  0.23339  0.84890  0.14366  1.0000
  H   H164      1.0  0.26544  0.84389  0.10314  1.0000
  C   C149      1.0  0.29237  0.90787  0.18520  1.0000
  S   S42       1.0  0.08467  0.59337  0.99334  1.0000
  C   C150      1.0  0.14902  0.83539  0.38621  1.0000
  C   C151      1.0  0.17397  0.84235  0.39292  1.0000
  C   C152      1.0  0.18266  0.84399  0.43806  1.0000
  C   C153      1.0  0.13292  0.82981  0.42546  1.0000
  H   H165      1.0  0.18672  0.84686  0.36337  1.0000
  C   C154      1.0  0.06107  0.47646  0.10738  1.0000
  H   H166      1.0  0.11361  0.82446  0.42092  1.0000
  C   C155      1.0  0.12325  0.74453  0.12580  1.0000
  C   C156      1.0  0.12094  0.72191  0.11387  1.0000
  C   C157      1.0  0.10512  0.70738  0.07831  1.0000
  C   C158      1.0  0.09118  0.71519  0.05499  1.0000
  C   C159      1.0  0.09381  0.73798  0.06659  1.0000
  C   C160      1.0  0.10989  0.75268  0.10153  1.0000
  H   H167      1.0  0.13128  0.71551  0.13242  1.0000
  H   H168      1.0  0.10321  0.68982  0.06982  1.0000
  H   H169      1.0  0.08300  0.74411  0.04919  1.0000
  H   H170      1.0  0.11141  0.76999  0.11056  1.0000
  H   H171      1.0  0.16115  0.79018  0.38613  1.0000
  C   C161      1.0  0.16790  0.76972  0.02025  1.0000
  H   H172      1.0  0.07760  0.51564  0.08526  1.0000
  C   C162      1.0  0.12108  0.75845  0.38315  1.0000
  C   C163      1.0  0.28140  0.90019  0.05227  1.0000
  H   H173      1.0  0.18018  0.84501  0.01884  1.0000
  H   H174      1.0  0.05957  0.76805  0.03047  1.0000
  H   H175      1.0  0.17268  0.78742  0.08509  1.0000
  C   C164      1.0  0.09956  0.74124  0.41233  1.0000
  C   C165      1.0  0.14383  0.77615  0.40513  1.0000
  H   H176      1.0  0.05764  0.73540  0.98380  1.0000
  H   H177      1.0  0.15169  0.72058  0.99877  1.0000
  H   H178      1.0  0.08385  0.54938  0.02430  1.0000
  H   H179      1.0  0.08164  0.72722  0.39817  1.0000
  C   C166      1.0  0.20209  0.81272  0.03497  1.0000
  H   H180      1.0  0.02812  0.96541  0.03063  1.0000
  C   C167      1.0  0.16661  0.83856  0.47733  1.0000
  C   C168      1.0  0.13517  0.89372  0.42691  1.0000
  N   N11       1.0  0.11923  0.75757  0.33238  1.0000
  C   C169      1.0  0.09932  0.76187  0.31839  1.0000
  C   C170      1.0  0.14327  0.77701  0.30691  1.0000
  C   C171      1.0  0.11230  0.73232  0.31728  1.0000
  H   H181      1.0  0.15105  0.75222  0.03368  1.0000
  H   H182      1.0  0.28327  0.88777  0.19378  1.0000
  H   H183      1.0  0.26528  0.91065  0.22615  1.0000
  C   C172      1.0  0.17448  0.89578  0.42751  1.0000
  C   C173      1.0  0.96968  0.51871  0.03898  1.0000
  H   H184      1.0  0.03836  0.50766  0.05122  1.0000
  H   H185      1.0  0.10343  0.78032  0.33057  1.0000
  H   H186      1.0  0.09808  0.76236  0.28023  1.0000
  H   H187      1.0  0.08007  0.74678  0.33240  1.0000
  H   H188      1.0  0.12513  0.81135  0.04284  1.0000
  H   H189      1.0  0.14119  0.77585  0.26889  1.0000
  H   H190      1.0  0.15900  0.77447  0.31433  1.0000
  S   S43       1.0  0.07001  0.69710  0.01168  1.0000
  H   H191      1.0  0.11184  0.73145  0.27893  1.0000
  H   H192      1.0  0.12633  0.72800  0.32873  1.0000
  H   H193      1.0  0.09320  0.71670  0.33108  1.0000
  C   C174      1.0  0.21201  0.81570  0.99024  1.0000
  H   H194      1.0  0.14918  0.79659  0.31541  1.0000
  H   H195      1.0  0.20206  0.84962  0.44260  1.0000
  H   H196      1.0  0.12364  0.84571  0.00178  1.0000
  C   C175      1.0  0.14472  0.77660  0.45320  1.0000
  C   C176      1.0  0.13182  0.80801  0.00964  1.0000
  C   C177      1.0  0.08330  0.54919  0.98715  1.0000
  C   C178      1.0  0.16771  0.85126  0.00687  1.0000
  C   C179      1.0  0.28223  0.92076  0.20358  1.0000
  H   H197      1.0  0.15020  0.93209  0.98663  1.0000
  H   H198      1.0  0.16215  0.79050  0.46933  1.0000
  H   H199      1.0  0.28512  0.95620  0.20564  1.0000
  H   H200      1.0  0.14359  0.80040  0.01829  1.0000
  C   C180      1.0  0.03850  0.49209  0.06765  1.0000
  H   H201      1.0  0.21166  0.82810  0.05833  1.0000
  H   H202      1.0  0.16053  0.85543  0.03855  1.0000
  S   S44       1.0  0.04322  0.62130  0.98429  1.0000
  C   C181      1.0  0.96763  0.50613  0.99878  1.0000
  C   C182      1.0  0.06058  0.49654  0.08694  1.0000
  H   H203      1.0  0.03393  0.55879  0.03970  1.0000
  C   C183      1.0  0.17486  0.89753  0.47541  1.0000
  H   H204      1.0  0.11455  0.79276  0.99321  1.0000
  H   H205      1.0  0.18925  0.89515  0.40910  1.0000
  C   C184      1.0  0.01354  0.53123  0.98860  1.0000
  C   C185      1.0  0.05920  0.76956  0.99318  1.0000
  C   C186      1.0  0.10065  0.74197  0.46036  1.0000
  C   C187      1.0  0.14156  0.83128  0.47061  1.0000
  C   C188      1.0  0.01537  0.54382  0.02864  1.0000
  H   H206      1.0  0.17952  0.86965  0.98664  1.0000
  H   H207      1.0  0.99493  0.54774  0.08428  1.0000
  H   H208      1.0  0.98989  0.96086  0.00411  1.0000
  H   H209      1.0  0.15042  0.90383  0.98579  1.0000
  C   C189      1.0  0.29334  0.94638  0.19165  1.0000
  H   H210      1.0  0.07900  0.48126  0.12064  1.0000
  H   H211      1.0  0.08285  0.51474  0.98328  1.0000
  C   C190      1.0  0.12317  0.75970  0.48073  1.0000
  H   H212      1.0  0.29448  0.91436  0.02667  1.0000
  C   C191      1.0  0.13551  0.89579  0.47475  1.0000
  Fe  Fe21      1.0  0.15516  0.86014  0.69024  1.0000
  S   S45       1.0  0.19193  0.86912  0.65631  1.0000
  S   S46       1.0  0.15212  0.89351  0.70570  1.0000
  Fe  Fe22      1.0  0.13284  0.80355  0.69486  1.0000
  S   S47       1.0  0.16734  0.80823  0.66000  1.0000
  S   S48       1.0  0.09917  0.76591  0.72378  1.0000
  Fe  Fe23      1.0  0.18922  0.84036  0.70764  1.0000
  S   S49       1.0  0.21797  0.83964  0.75276  1.0000
  Fe  Fe24      1.0  0.16690  0.83645  0.61084  1.0000
  S   S50       1.0  0.17904  0.84125  0.53343  1.0000
  S   S51       1.0  0.15448  0.83398  0.74478  1.0000
  S   S52       1.0  0.13033  0.82914  0.64248  1.0000
  C   C192      1.0  0.97507  0.56928  0.90804  1.0000
  S   S53       1.0  0.07061  0.62166  0.88394  1.0000
  Fe  Fe25      1.0  0.03300  0.92397  0.94432  1.0000
  C   C193      1.0  0.14175  0.88424  0.86441  1.0000
  C   C194      1.0  0.05786  0.77340  0.89735  1.0000
  H   H213      1.0  0.02243  0.53230  0.89510  1.0000
  S   S54       1.0  0.10222  0.94857  0.90081  1.0000
  Fe  Fe26      1.0  0.09275  0.66431  0.88608  1.0000
  S   S55       1.0  0.12414  0.69595  0.83945  1.0000
  H   H214      1.0  0.19036  0.89808  0.49188  1.0000
  C   C195      1.0  0.96889  0.91146  0.94862  1.0000
  H   H215      1.0  0.11224  0.82661  0.95314  1.0000
  S   S56       1.0  0.05836  0.66472  0.90335  1.0000
  S   S57       1.0  0.04626  0.93504  0.87011  1.0000
  H   H216      1.0  0.19486  0.91728  0.56084  1.0000
  C   C196      1.0  0.17753  0.75520  0.89822  1.0000
  S   S58       1.0  0.10340  0.66469  0.95948  1.0000
  Fe  Fe27      1.0  0.06579  0.91409  0.87947  1.0000
  S   S59       1.0  0.06417  0.88375  0.83587  1.0000
  H   H217      1.0  0.11135  0.88480  0.93680  1.0000
  H   H218      1.0  0.14006  0.85827  0.94659  1.0000
  C   C197      1.0  0.08310  0.56857  0.91447  1.0000
  H   H219      1.0  0.17195  0.93908  0.54909  1.0000
  C   C198      1.0  0.08285  0.52962  0.91575  1.0000
  H   H220      1.0  0.05908  0.80774  0.90877  1.0000
  H   H221      1.0  0.99398  0.53180  0.88803  1.0000
  N   N12       1.0  0.14859  0.91826  0.91879  1.0000
  H   H222      1.0  0.97831  0.90420  0.88188  1.0000
  H   H223      1.0  0.99330  0.95635  0.80866  1.0000
  C   C199      1.0  0.17637  0.90005  0.57329  1.0000
  H   H224      1.0  0.12396  0.76050  0.51796  1.0000
  C   C200      1.0  0.08927  0.88700  0.80089  1.0000
  C   C201      1.0  0.11135  0.91073  0.78892  1.0000
  C   C202      1.0  0.13056  0.91243  0.76011  1.0000
  C   C203      1.0  0.12806  0.89045  0.74355  1.0000
  C   C204      1.0  0.10624  0.86669  0.75637  1.0000
  C   C205      1.0  0.08688  0.86502  0.78462  1.0000
  H   H225      1.0  0.11332  0.92780  0.80091  1.0000
  H   H226      1.0  0.14733  0.93089  0.75022  1.0000
  H   H227      1.0  0.10400  0.84964  0.74364  1.0000
  H   H228      1.0  0.06983  0.84660  0.79358  1.0000
  C   C206      1.0  0.24432  0.86607  0.77765  1.0000
  C   C207      1.0  0.25849  0.86180  0.80883  1.0000
  S   S60       1.0  0.08393  0.50630  0.88484  1.0000
  S   S61       1.0  0.99566  0.91574  0.97648  1.0000
  C   C208      1.0  0.15501  0.82623  0.93638  1.0000
  C   C209      1.0  0.17756  0.77193  0.97458  1.0000
  H   H229      1.0  0.25271  0.84255  0.81790  1.0000
  C   C210      1.0  0.08292  0.54916  0.89122  1.0000
  C   C211      1.0  0.05017  0.73368  0.84047  1.0000
  C   C212      1.0  0.10656  0.74642  0.75442  1.0000
  C   C213      1.0  0.08710  0.72127  0.76722  1.0000
  C   C214      1.0  0.09226  0.70567  0.79344  1.0000
  C   C215      1.0  0.11706  0.71503  0.80640  1.0000
  C   C216      1.0  0.13666  0.74003  0.79268  1.0000
  C   C217      1.0  0.13140  0.75577  0.76715  1.0000
  H   H230      1.0  0.06804  0.71368  0.75601  1.0000
  H   H231      1.0  0.07717  0.68620  0.80267  1.0000
  H   H232      1.0  0.15602  0.74721  0.80133  1.0000
  H   H233      1.0  0.14663  0.77502  0.75683  1.0000
  H   H234      1.0  0.20844  0.84177  0.87133  1.0000
  C   C218      1.0  0.29009  0.84267  0.70239  1.0000
  H   H235      1.0  0.15248  0.95440  0.91355  1.0000
  H   H236      1.0  0.17670  0.88293  0.56662  1.0000
  H   H237      1.0  0.09500  0.75055  0.87838  1.0000
  H   H238      1.0  0.02952  0.69060  0.88631  1.0000
  H   H239      1.0  0.00926  0.94906  0.85008  1.0000
  H   H240      1.0  0.13871  0.85718  0.81683  1.0000
  H   H241      1.0  0.18382  0.87132  0.82077  1.0000
  H   H242      1.0  0.11351  0.87430  0.56066  1.0000
  H   H243      1.0  0.03653  0.70100  0.94311  1.0000
  C   C219      1.0  0.05669  0.75194  0.91750  1.0000
  C   C220      1.0  0.15773  0.90465  0.89293  1.0000
  C   C221      1.0  0.05942  0.78985  0.97254  1.0000
  H   H244      1.0  0.13780  0.92077  0.55313  1.0000
  C   C222      1.0  0.13824  0.74263  0.93773  1.0000
  H   H245      1.0  0.29060  0.89668  0.69826  1.0000
  H   H246      1.0  0.16765  0.73819  0.87683  1.0000
  H   H247      1.0  0.12649  0.73603  0.97050  1.0000
  H   H248      1.0  0.12210  0.87761  0.85991  1.0000
  C   C223      1.0  0.14442  0.80388  0.86384  1.0000
  H   H249      1.0  0.17770  0.77066  0.87845  1.0000
  C   C224      1.0  0.17651  0.88026  0.84125  1.0000
  H   H250      1.0  0.08352  0.58363  0.89502  1.0000
  H   H251      1.0  0.08319  0.54951  0.85396  1.0000
  H   H252      1.0  0.27883  0.82329  0.69143  1.0000
  H   H253      1.0  0.98610  0.95489  0.86983  1.0000
  N   N13       1.0  0.15456  0.89865  0.55146  1.0000
  C   C225      1.0  0.18113  0.83777  0.92313  1.0000
  H   H254      1.0  0.08001  0.48738  0.74680  1.0000
  C   C226      1.0  0.12990  0.84091  0.96975  1.0000
  H   H255      1.0  0.26516  0.85248  0.67380  1.0000
  H   H256      1.0  0.24129  0.89456  0.74188  1.0000
  C   C227      1.0  0.25202  0.89104  0.76591  1.0000
  C   C228      1.0  0.28050  0.88229  0.82740  1.0000
  C   C229      1.0  0.15884  0.94339  0.89525  1.0000
  H   H257      1.0  0.99949  0.51091  0.85661  1.0000
  C   C230      1.0  0.28245  0.85912  0.69205  1.0000
  C   C231      1.0  0.13687  0.80890  0.90558  1.0000
  C   C232      1.0  0.03302  0.70625  0.90855  1.0000
  N   N14       1.0  0.05456  0.73148  0.88996  1.0000
  H   H258      1.0  0.12959  0.85808  0.56055  1.0000
  H   H259      1.0  0.96775  0.96799  0.94790  1.0000
  H   H260      1.0  0.17534  0.90101  0.61147  1.0000
  H   H261      1.0  0.15500  0.92302  0.60270  1.0000
  H   H262      1.0  0.06681  0.75086  0.82240  1.0000
  H   H263      1.0  0.12822  0.72652  0.91434  1.0000
  Fe  Fe28      1.0  0.08157  0.96854  0.89850  1.0000
  S   S62       1.0  0.99979  0.59559  0.87487  1.0000
  H   H264      1.0  0.98556  0.58761  0.97267  1.0000
  N   N15       1.0  0.16470  0.74999  0.94451  1.0000
  H   H265      1.0  0.15235  0.94129  0.85927  1.0000
  C   C233      1.0  0.15736  0.92222  0.96678  1.0000
  H   H266      1.0  0.11073  0.49517  0.72926  1.0000
  H   H267      1.0  0.22948  0.83348  0.97915  1.0000
  C   C234      1.0  0.13096  0.87559  0.57139  1.0000
  H   H268      1.0  0.11670  0.79930  0.91338  1.0000
  C   C235      1.0  0.08265  0.52951  0.96395  1.0000
  C   C236      1.0  0.12039  0.90449  0.92198  1.0000
  H   H269      1.0  0.21276  0.90715  0.86839  1.0000
  C   C237      1.0  0.07837  0.73216  0.89265  1.0000
  C   C238      1.0  0.00100  0.48594  0.93389  1.0000
  H   H270      1.0  0.01510  0.70572  0.91145  1.0000
  H   H271      1.0  0.17590  0.81178  0.81934  1.0000
  N   N16       1.0  0.14649  0.83162  0.97990  1.0000
  C   C239      1.0  0.27430  0.91155  0.78394  1.0000
  Fe  Fe29      1.0  0.07769  0.62183  0.95923  1.0000
  C   C240      1.0  0.15109  0.87223  0.83930  1.0000
  H   H272      1.0  0.03106  0.53687  0.97018  1.0000
  C   C241      1.0  0.00161  0.51953  0.89051  1.0000
  C   C242      1.0  0.28877  0.90728  0.81438  1.0000
  H   H273      1.0  0.12884  0.82687  0.50012  1.0000
  Fe  Fe30      1.0  0.03690  0.62216  0.90883  1.0000
  N   N17       1.0  0.98834  0.49989  0.92861  1.0000
  C   C243      1.0  0.15482  0.92136  0.56450  1.0000
  H   H274      1.0  0.19636  0.85107  0.94421  1.0000
  H   H275      1.0  0.17998  0.95522  0.89337  1.0000
  H   H276      1.0  0.17831  0.93464  0.96870  1.0000
  H   H277      1.0  0.02156  0.49876  0.94075  1.0000
  C   C244      1.0  0.96521  0.90672  0.90176  1.0000
  C   C245      1.0  0.97194  0.57067  0.95540  1.0000
  C   C246      1.0  0.15525  0.89751  0.50061  1.0000
  H   H278      1.0  0.11395  0.91406  0.94452  1.0000
  H   H279      1.0  0.07746  0.71694  0.87262  1.0000
  C   C247      1.0  0.05899  0.79191  0.92472  1.0000
  H   H280      1.0  0.04714  0.71723  0.82138  1.0000
  H   H281      1.0  0.08219  0.72915  0.92863  1.0000
  H   H282      1.0  0.13627  0.48053  0.73425  1.0000
  C   C248      1.0  0.18842  0.83247  0.88140  1.0000
  H   H283      1.0  0.29145  0.87873  0.85070  1.0000
  Fe  Fe31      1.0  0.08497  0.93493  0.97279  1.0000
  C   C249      1.0  0.18368  0.91268  0.89333  1.0000
  H   H284      1.0  0.20882  0.79932  0.92616  1.0000
  H   H285      1.0  0.19737  0.76018  0.90067  1.0000
  H   H286      1.0  0.05749  0.77615  0.86056  1.0000
  H   H287      1.0  0.13039  0.79117  0.83999  1.0000
  C   C250      1.0  0.17012  0.81558  0.85191  1.0000
  H   H288      1.0  0.03289  0.73407  0.83606  1.0000
  C   C251      1.0  0.19278  0.90045  0.86820  1.0000
  H   H289      1.0  0.11228  0.90381  0.88801  1.0000
  H   H290      1.0  0.19739  0.92901  0.91180  1.0000
  H   H291      1.0  0.13031  0.87523  0.60984  1.0000
  C   C252      1.0  0.00157  0.96101  0.84327  1.0000
  C   C253      1.0  0.98963  0.51223  0.97204  1.0000
  S   S63       1.0  0.06770  0.95820  0.97230  1.0000
  H   H292      1.0  0.13798  0.75881  0.92236  1.0000
  H   H293      1.0  0.28058  0.93083  0.77364  1.0000
  S   S64       1.0  0.04915  0.89985  0.95175  1.0000
  C   C254      1.0  0.08366  0.56890  0.96257  1.0000
  H   H294      1.0  0.99991  0.47588  0.90223  1.0000
  H   H295      1.0  0.11583  0.47852  0.80285  1.0000
  C   C255      1.0  0.19997  0.79572  0.96019  1.0000
  C   C256      1.0  0.05798  0.75092  0.96617  1.0000
  C   C257      1.0  0.09028  0.47949  0.73059  1.0000
  Fe  Fe32      1.0  0.06842  0.66427  0.97694  1.0000
  H   H296      1.0  0.15583  0.71169  0.94336  1.0000
  H   H297      1.0  0.11992  0.89557  0.49147  1.0000
  C   C258      1.0  0.96191  0.48147  0.91479  1.0000
  H   H298      1.0  0.08420  0.47509  0.69449  1.0000
  H   H299      1.0  0.18324  0.73319  0.97514  1.0000
  C   C259      1.0  0.16386  0.72801  0.96649  1.0000
  H   H300      1.0  0.08391  0.72885  0.48199  1.0000
  H   H301      1.0  0.56405  0.20916  0.12502  1.0000
  H   H302      1.0  0.51197  0.00918  0.02557  1.0000
  H   H303      1.0  0.36567  0.99548  0.14121  1.0000
  H   H304      1.0  0.59535  0.16959  0.13910  1.0000
  H   H305      1.0  0.57632  0.36456  0.21961  1.0000
  S   S65       1.0  0.62337  0.30792  0.21501  1.0000
  Fe  Fe33      1.0  0.58220  0.43826  0.98943  1.0000
  H   H306      1.0  0.41414  0.41369  0.98998  1.0000
  H   H307      1.0  0.55875  0.41836  0.17745  1.0000
  H   H308      1.0  0.59953  0.25120  0.14945  1.0000
  H   H309      1.0  0.62101  0.37269  0.00540  1.0000
  H   H310      1.0  0.61783  0.33819  0.05427  1.0000
  S   S66       1.0  0.30530  0.38018  0.03959  1.0000
  C   C260      1.0  0.60284  0.24181  0.12238  1.0000
  H   H311      1.0  0.59372  0.20608  0.25933  1.0000
  H   H312      1.0  0.44608  0.04400  0.02880  1.0000
  H   H313      1.0  0.49545  0.39953  0.12247  1.0000
  H   H314      1.0  0.34252  0.36367  0.01187  1.0000
  S   S67       1.0  0.49089  0.41192  0.00138  1.0000
  H   H315      1.0  0.49718  0.37708  0.05830  1.0000
  S   S68       1.0  0.60161  0.34603  0.14554  1.0000
  H   H316      1.0  0.55276  0.43025  0.10868  1.0000
  C   C261      1.0  0.35523  0.36298  0.98565  1.0000
  H   H317      1.0  0.58295  0.40689  0.22430  1.0000
  S   S69       1.0  0.60765  0.44069  0.04663  1.0000
  C   C262      1.0  0.44813  0.41331  0.99458  1.0000
  H   H318      1.0  0.61016  0.24866  0.26558  1.0000
  H   H319      1.0  0.51774  0.40998  0.16714  1.0000
  H   H320      1.0  0.53147  0.41914  0.06287  1.0000
  C   C263      1.0  0.60492  0.37272  0.11607  1.0000
  C   C264      1.0  0.58821  0.36879  0.08103  1.0000
  C   C265      1.0  0.58907  0.38940  0.05888  1.0000
  C   C266      1.0  0.60643  0.41417  0.07213  1.0000
  H   H321      1.0  0.37168  0.36532  0.00399  1.0000
  S   S70       1.0  0.56161  0.17439  0.06020  1.0000
  H   H322      1.0  0.57435  0.34964  0.07126  1.0000
  H   H323      1.0  0.57611  0.38609  0.03200  1.0000
  H   H324      1.0  0.35505  0.98003  0.03966  1.0000
  S   S71       1.0  0.58607  0.08890  0.98711  1.0000
  C   C267      1.0  0.36905  0.98112  0.12829  1.0000
  C   C268      1.0  0.44744  0.04459  0.99155  1.0000
  H   H325      1.0  0.48185  0.08226  0.98639  1.0000
  C   C269      1.0  0.59231  0.18574  0.20115  1.0000
  C   C270      1.0  0.61539  0.33613  0.01744  1.0000
  C   C271      1.0  0.58680  0.20527  0.07384  1.0000
  H   H326      1.0  0.52061  0.34365  0.11947  1.0000
  H   H327      1.0  0.59097  0.04777  0.01264  1.0000
  C   C272      1.0  0.58275  0.21798  0.10845  1.0000
  S   S72       1.0  0.54025  0.11185  0.99602  1.0000
  C   C273      1.0  0.62319  0.41811  0.10705  1.0000
  H   H328      1.0  0.44811  0.41363  0.03179  1.0000
  H   H329      1.0  0.54508  0.33346  0.16753  1.0000
  Fe  Fe34      1.0  0.56428  0.15467  0.99821  1.0000
  C   C274      1.0  0.61709  0.35548  0.98995  1.0000
  H   H330      1.0  0.51307  0.03823  0.02637  1.0000
  H   H331      1.0  0.38585  0.99150  0.10351  1.0000
  N   N18       1.0  0.52315  0.38984  0.11409  1.0000
  C   C275      1.0  0.50684  0.37052  0.08071  1.0000
  C   C276      1.0  0.50659  0.39424  0.14361  1.0000
  C   C277      1.0  0.54137  0.41370  0.08702  1.0000
  C   C278      1.0  0.53716  0.38233  0.14333  1.0000
  C   C279      1.0  0.55503  0.39958  0.17447  1.0000
  C   C280      1.0  0.53356  0.35802  0.14217  1.0000
  C   C281      1.0  0.56887  0.39316  0.20177  1.0000
  C   C282      1.0  0.54736  0.35174  0.16998  1.0000
  C   C283      1.0  0.56508  0.36931  0.19943  1.0000
  H   H332      1.0  0.49147  0.35243  0.09844  1.0000
  S   S73       1.0  0.56277  0.45938  0.99281  1.0000
  H   H333      1.0  0.51830  0.36660  0.05704  1.0000
  H   H334      1.0  0.49289  0.37690  0.16527  1.0000
  C   C284      1.0  0.61001  0.31388  0.99772  1.0000
  H   H335      1.0  0.55506  0.41156  0.06639  1.0000
  H   H336      1.0  0.29985  0.33471  0.00099  1.0000
  H   H337      1.0  0.47015  0.01671  0.01044  1.0000
  H   H338      1.0  0.33712  0.98614  0.07851  1.0000
  S   S74       1.0  0.37722  0.43123  0.99377  1.0000
  H   H339      1.0  0.57217  0.17138  0.20672  1.0000
  C   C285      1.0  0.62251  0.39752  0.12885  1.0000
  H   H340      1.0  0.30766  0.42607  0.06311  1.0000
  H   H341      1.0  0.34929  0.31774  0.00824  1.0000
  C   C286      1.0  0.61103  0.21680  0.05263  1.0000
  C   C287      1.0  0.60484  0.20576  0.23091  1.0000
  H   H342      1.0  0.32124  0.31699  0.02188  1.0000
  C   C288      1.0  0.33309  0.31734  0.99261  1.0000
  H   H343      1.0  0.62176  0.22530  0.31592  1.0000
  C   C289      1.0  0.62725  0.25289  0.10222  1.0000
  S   S75       1.0  0.40456  0.99637  0.99906  1.0000
  H   H344      1.0  0.61439  0.20723  0.02600  1.0000
  H   H345      1.0  0.60846  0.29877  0.01947  1.0000
  C   C290      1.0  0.60537  0.18461  0.16309  1.0000
  Fe  Fe35      1.0  0.33480  0.41106  0.98902  1.0000
  H   H346      1.0  0.46529  0.98612  0.00273  1.0000
  C   C291      1.0  0.51542  0.02564  0.00370  1.0000
  H   H347      1.0  0.32234  0.97899  0.15248  1.0000
  H   H348      1.0  0.53570  0.03713  0.99130  1.0000
  C   C292      1.0  0.47170  0.00471  0.98499  1.0000
  Fe  Fe36      1.0  0.33841  0.43450  0.89412  1.0000
  S   S76       1.0  0.31315  0.43685  0.84219  1.0000
  H   H349      1.0  0.61426  0.42766  0.85098  1.0000
  H   H350      1.0  0.57743  0.18334  0.74676  1.0000
  C   C293      1.0  0.43089  0.02468  0.91944  1.0000
  C   C294      1.0  0.45096  0.04653  0.89544  1.0000
  H   H351      1.0  0.41673  0.00877  0.90062  1.0000
  H   H352      1.0  0.45218  0.04723  0.85817  1.0000
  S   S77       1.0  0.54718  0.40215  0.96842  1.0000
  H   H353      1.0  0.53541  0.97464  0.91277  1.0000
  C   C295      1.0  0.58832  0.02843  0.95080  1.0000
  N   N19       1.0  0.49799  0.01714  0.96479  1.0000
  C   C296      1.0  0.52053  0.97819  0.90922  1.0000
  H   H354      1.0  0.52387  0.04942  0.91984  1.0000
  S   S78       1.0  0.56510  0.11974  0.89099  1.0000
  C   C297      1.0  0.31813  0.33725  0.88824  1.0000
  C   C298      1.0  0.51907  0.99449  0.93876  1.0000
  S   S79       1.0  0.55273  0.16072  0.92880  1.0000
  Fe  Fe37      1.0  0.53188  0.11829  0.92435  1.0000
  S   S80       1.0  0.49503  0.09399  0.88834  1.0000
  Fe  Fe38      1.0  0.58683  0.16176  0.90159  1.0000
  C   C299      1.0  0.42833  0.41226  0.92288  1.0000
  S   S81       1.0  0.33650  0.44614  0.96597  1.0000
  C   C300      1.0  0.60600  0.31073  0.95047  1.0000
  C   C301      1.0  0.46777  0.06624  0.96759  1.0000
  S   S82       1.0  0.61536  0.18937  0.84606  1.0000
  S   S83       1.0  0.54030  0.43668  0.89121  1.0000
  C   C302      1.0  0.60564  0.37649  0.76779  1.0000
  C   C303      1.0  0.58128  0.33033  0.86132  1.0000
  Fe  Fe39      1.0  0.52880  0.42435  0.96557  1.0000
  Fe  Fe40      1.0  0.56209  0.41786  0.89592  1.0000
  S   S84       1.0  0.55990  0.39047  0.84364  1.0000
  S   S85       1.0  0.59806  0.45312  0.91706  1.0000
  H   H355      1.0  0.48031  0.46878  0.97695  1.0000
  C   C304      1.0  0.58108  0.06396  0.90655  1.0000
  H   H356      1.0  0.55140  0.14130  0.77069  1.0000
  C   C305      1.0  0.58565  0.02792  0.90311  1.0000
  C   C306      1.0  0.48234  0.98741  0.89940  1.0000
  S   S86       1.0  0.59978  0.15817  0.97132  1.0000
  H   H357      1.0  0.56178  0.16240  0.81811  1.0000
  C   C307      1.0  0.51912  0.16122  0.83018  1.0000
  H   H358      1.0  0.50613  0.17923  0.75063  1.0000
  C   C308      1.0  0.54485  0.14702  0.80091  1.0000
  C   C309      1.0  0.46957  0.06727  0.91943  1.0000
  C   C310      1.0  0.58724  0.39356  0.81777  1.0000
  H   H359      1.0  0.56377  0.31671  0.88264  1.0000
  C   C311      1.0  0.59405  0.21765  0.83715  1.0000
  C   C312      1.0  0.31996  0.33691  0.93699  1.0000
  C   C313      1.0  0.58429  0.37537  0.78701  1.0000
  H   H360      1.0  0.62294  0.34509  0.80702  1.0000
  H   H361      1.0  0.56537  0.36023  0.77829  1.0000
  H   H362      1.0  0.49594  0.11573  0.79136  1.0000
  H   H363      1.0  0.53523  0.17858  0.84509  1.0000
  S   S87       1.0  0.60545  0.27588  0.75340  1.0000
  C   C314      1.0  0.61016  0.25377  0.78205  1.0000
  C   C315      1.0  0.50451  0.04005  0.93664  1.0000
  C   C316      1.0  0.58188  0.04566  0.88117  1.0000
  H   H364      1.0  0.57087  0.23787  0.67087  1.0000
  C   C317      1.0  0.46729  0.41251  0.92230  1.0000
  H   H365      1.0  0.52608  0.21700  0.69854  1.0000
  H   H366      1.0  0.50386  0.16462  0.82427  1.0000
  Fe  Fe41      1.0  0.57489  0.11586  0.96290  1.0000
  Fe  Fe42      1.0  0.57517  0.47086  0.91865  1.0000
  H   H367      1.0  0.59571  0.22030  0.69460  1.0000
  C   C318      1.0  0.62559  0.34692  0.84487  1.0000
  H   H368      1.0  0.33285  0.33953  0.86481  1.0000
  H   H369      1.0  0.29636  0.33600  0.83082  1.0000
  H   H370      1.0  0.61170  0.12151  0.90219  1.0000
  H   H371      1.0  0.46739  0.99058  0.89373  1.0000
  H   H372      1.0  0.51120  0.14545  0.85706  1.0000
  H   H373      1.0  0.58010  0.20483  0.86335  1.0000
  C   C319      1.0  0.61379  0.21488  0.82366  1.0000
  H   H374      1.0  0.57623  0.23821  0.82553  1.0000
  H   H375      1.0  0.61085  0.29886  0.85874  1.0000
  H   H376      1.0  0.57639  0.32727  0.82440  1.0000
  S   S88       1.0  0.58907  0.00685  0.86959  1.0000
  H   H377      1.0  0.44730  0.41075  0.86169  1.0000
  Fe  Fe43      1.0  0.37749  0.42183  0.92023  1.0000
  H   H378      1.0  0.53525  0.13029  0.82573  1.0000
  H   H379      1.0  0.45122  0.46503  0.86453  1.0000
  H   H380      1.0  0.57977  0.04536  0.84430  1.0000
  H   H381      1.0  0.51147  0.46871  0.78760  1.0000
  C   C320      1.0  0.59206  0.23678  0.81600  1.0000
  H   H382      1.0  0.60312  0.36229  0.74442  1.0000
  H   H383      1.0  0.59137  0.30056  0.81758  1.0000
  H   H384      1.0  0.57814  0.07743  0.88916  1.0000
  H   H385      1.0  0.51046  0.12796  0.73457  1.0000
  C   C321      1.0  0.47964  0.46589  0.82316  1.0000
  H   H386      1.0  0.60168  0.29292  0.93758  1.0000
  H   H387      1.0  0.46587  0.45259  0.79968  1.0000
  S   S89       1.0  0.40361  0.41059  0.89167  1.0000
  H   H388      1.0  0.48194  0.41206  0.90321  1.0000
  C   C322      1.0  0.58481  0.06509  0.95396  1.0000
  C   C323      1.0  0.60716  0.32995  0.92157  1.0000
  H   H389      1.0  0.32152  0.29909  0.97506  1.0000
  C   C324      1.0  0.36108  0.34047  0.92706  1.0000
  H   H390      1.0  0.49004  0.13647  0.75981  1.0000
  C   C325      1.0  0.44757  0.41173  0.89881  1.0000
  C   C326      1.0  0.49976  0.99949  0.93489  1.0000
  C   C327      1.0  0.29957  0.33448  0.96380  1.0000
  C   C328      1.0  0.61311  0.35254  0.94275  1.0000
  C   C329      1.0  0.42904  0.02367  0.96760  1.0000
  H   H391      1.0  0.35266  0.32299  0.90710  1.0000
  H   H392      1.0  0.58608  0.34978  0.86766  1.0000
  C   C330      1.0  0.29716  0.33527  0.86807  1.0000
  H   H393      1.0  0.36943  0.35726  0.90243  1.0000
  C   C331      1.0  0.58813  0.04708  0.97598  1.0000
  C   C332      1.0  0.61177  0.41327  0.82819  1.0000
  S   S90       1.0  0.38132  0.45696  0.88988  1.0000
  H   H394      1.0  0.59154  0.01509  0.96802  1.0000
  H   H395      1.0  0.49091  0.03550  0.90889  1.0000
  N   N20       1.0  0.60236  0.32714  0.87171  1.0000
  S   S91       1.0  0.33471  0.39849  0.91724  1.0000
  N   N21       1.0  0.52755  0.15500  0.78749  1.0000
  C   C333      1.0  0.50504  0.13290  0.76733  1.0000
  C   C334      1.0  0.53952  0.17716  0.75417  1.0000
  C   C335      1.0  0.52562  0.18748  0.73887  1.0000
  C   C336      1.0  0.56507  0.18935  0.73661  1.0000
  C   C337      1.0  0.53679  0.20900  0.70888  1.0000
  C   C338      1.0  0.57593  0.21072  0.70631  1.0000
  C   C339      1.0  0.56194  0.22068  0.69288  1.0000
  H   H396      1.0  0.57764  0.28615  0.87318  1.0000
  C   C340      1.0  0.59525  0.30205  0.85504  1.0000
  C   C341      1.0  0.46750  0.41296  0.97038  1.0000
  H   H397      1.0  0.61435  0.36801  0.92300  1.0000
  H   H398      1.0  0.53341  0.00298  0.96410  1.0000
  H   H399      1.0  0.50437  0.05438  0.95790  1.0000
  H   H400      1.0  0.45761  0.00104  0.95880  1.0000
  H   H401      1.0  0.36290  0.37996  0.96189  1.0000
  Fe  Fe44      1.0  0.37906  0.46543  0.96354  1.0000
  C   C342      1.0  0.42883  0.41332  0.97093  1.0000
  H   H402      1.0  0.29776  0.38409  0.83367  1.0000
  H   H403      1.0  0.44218  0.46487  0.94170  1.0000
  H   H404      1.0  0.37755  0.34261  0.94511  1.0000
  N   N22       1.0  0.34201  0.33936  0.95978  1.0000
  C   C343      1.0  0.47145  0.47327  0.86091  1.0000
  S   S92       1.0  0.62662  0.33622  0.67684  1.0000
  H   H405      1.0  0.62675  0.13276  0.84590  1.0000
  H   H406      1.0  0.57539  0.91582  0.12497  1.0000
  N   N23       1.0  0.56665  0.63634  0.11571  1.0000
  H   H407      1.0  0.58641  0.61951  0.14164  1.0000
  H   H408      1.0  0.57441  0.54665  0.02255  1.0000
  C   C344      1.0  0.31448  0.95915  0.16082  1.0000
  S   S93       1.0  0.62481  0.80621  0.20233  1.0000
  H   H409      1.0  0.52535  0.82732  0.19066  1.0000
  H   H410      1.0  0.45153  0.55040  0.01627  1.0000
  C   C345      1.0  0.50389  0.88744  0.11959  1.0000
  H   H411      1.0  0.55849  0.91526  0.05374  1.0000
  H   H412      1.0  0.51597  0.62283  0.10834  1.0000
  H   H413      1.0  0.60292  0.66711  0.08629  1.0000
  C   C346      1.0  0.57768  0.54827  0.98556  1.0000
  C   C347      1.0  0.51416  0.86990  0.05690  1.0000
  C   C348      1.0  0.52396  0.85497  0.14767  1.0000
  C   C349      1.0  0.58545  0.64909  0.07644  1.0000
  N   N24       1.0  0.52490  0.88780  0.09485  1.0000
  S   S94       1.0  0.37753  0.92557  0.99001  1.0000
  S   S95       1.0  0.49479  0.91064  0.98507  1.0000
  H   H414      1.0  0.52893  0.86798  0.03979  1.0000
  H   H415      1.0  0.59479  0.90075  0.17549  1.0000
  H   H416      1.0  0.59157  0.63696  0.06225  1.0000
  C   C350      1.0  0.57850  0.63053  0.15339  1.0000
  C   C351      1.0  0.54396  0.61251  0.10048  1.0000
  Fe  Fe45      1.0  0.33513  0.90538  0.98387  1.0000
  H   H417      1.0  0.49817  0.85059  0.06887  1.0000
  H   H418      1.0  0.36040  0.93560  0.11266  1.0000
  H   H419      1.0  0.62461  0.84017  0.05091  1.0000
  H   H420      1.0  0.57341  0.88290  0.02797  1.0000
  C   C352      1.0  0.60694  0.87050  0.10276  1.0000
  C   C353      1.0  0.58710  0.86626  0.07484  1.0000
  C   C354      1.0  0.58884  0.88643  0.04903  1.0000
  C   C355      1.0  0.61022  0.91118  0.05181  1.0000
  H   H421      1.0  0.57839  0.67248  0.14401  1.0000
  H   H422      1.0  0.54715  0.64650  0.16311  1.0000
  H   H423      1.0  0.57016  0.84729  0.07367  1.0000
  H   H424      1.0  0.31941  0.90879  0.13971  1.0000
  C   C356      1.0  0.52531  0.57018  0.06942  1.0000
  H   H425      1.0  0.60268  0.76293  0.11217  1.0000
  N   N25       1.0  0.34652  0.96012  0.10616  1.0000
  H   H426      1.0  0.55317  0.66099  0.10570  1.0000
  C   C357      1.0  0.59738  0.81831  0.00056  1.0000
  S   S96       1.0  0.56058  0.68714  0.02020  1.0000
  C   C358      1.0  0.57482  0.88817  0.16841  1.0000
  C   C359      1.0  0.58727  0.71272  0.04582  1.0000
  C   C360      1.0  0.58432  0.72964  0.07117  1.0000
  H   H427      1.0  0.48030  0.58359  0.08101  1.0000
  C   C361      1.0  0.49871  0.58605  0.08282  1.0000
  H   H428      1.0  0.48899  0.86815  0.13393  1.0000
  H   H429      1.0  0.56582  0.72689  0.07458  1.0000
  S   S97       1.0  0.61272  0.93752  0.02241  1.0000
  C   C362      1.0  0.54614  0.59254  0.08542  1.0000
  H   H430      1.0  0.50631  0.87636  0.02994  1.0000
  C   C363      1.0  0.56096  0.65473  0.13300  1.0000
  C   C364      1.0  0.53752  0.87998  0.12718  1.0000
  C   C365      1.0  0.32485  0.94641  0.14031  1.0000
  C   C366      1.0  0.61121  0.71636  0.04177  1.0000
  C   C367      1.0  0.54234  0.91374  0.07350  1.0000
  C   C368      1.0  0.51950  0.60861  0.09863  1.0000
  H   H431      1.0  0.55011  0.92851  0.09964  1.0000
  C   C369      1.0  0.56121  0.86325  0.18659  1.0000
  H   H432      1.0  0.51110  0.90042  0.14876  1.0000
  H   H433      1.0  0.52784  0.55566  0.05680  1.0000
  H   H434      1.0  0.57631  0.51331  0.98290  1.0000
  H   H435      1.0  0.53241  0.91891  0.04892  1.0000
  H   H436      1.0  0.56439  0.61931  0.18229  1.0000
  H   H437      1.0  0.56423  0.59435  0.08441  1.0000
  H   H438      1.0  0.50422  0.84144  0.14085  1.0000
  H   H439      1.0  0.32196  0.95613  0.05206  1.0000
  H   H440      1.0  0.57062  0.85658  0.20762  1.0000
  C   C370      1.0  0.60516  0.75007  0.09245  1.0000
  C   C371      1.0  0.53577  0.84674  0.17657  1.0000
  C   C372      1.0  0.50161  0.56689  0.06828  1.0000
  H   H441      1.0  0.37021  0.95446  0.06032  1.0000
  H   H442      1.0  0.45632  0.91892  0.01573  1.0000
  S   S98       1.0  0.60293  0.84498  0.13768  1.0000
  H   H443      1.0  0.49422  0.89359  0.09617  1.0000
  H   H444      1.0  0.33813  0.92779  0.06771  1.0000
  H   H445      1.0  0.48553  0.54963  0.05547  1.0000
  S   S99       1.0  0.30653  0.87617  0.03759  1.0000
  C   C373      1.0  0.61734  0.84072  0.01769  1.0000
  C   C374      1.0  0.56331  0.89655  0.13909  1.0000
  C   C375      1.0  0.35404  0.94368  0.08601  1.0000
  H   H446      1.0  0.59470  0.64817  0.16753  1.0000
  H   H447      1.0  0.57722  0.65393  0.04777  1.0000
  C   C376      1.0  0.31329  0.92033  0.15386  1.0000
  H   H448      1.0  0.48126  0.49342  0.00853  1.0000
  H   H449      1.0  0.58938  0.80051  0.02041  1.0000
  S   S100      1.0  0.58177  0.59383  0.99045  1.0000
  H   H450      1.0  0.61373  0.70344  0.02254  1.0000
  S   S101      1.0  0.40747  0.50273  0.99467  1.0000
  C   C377      1.0  0.62727  0.86398  0.99343  1.0000
  C   C378      1.0  0.33984  0.97105  0.06759  1.0000
  H   H451      1.0  0.37441  0.97376  0.15803  1.0000
  Fe  Fe46      1.0  0.33989  0.92985  0.88987  1.0000
  S   S102      1.0  0.31788  0.93353  0.83274  1.0000
  S   S103      1.0  0.38279  0.95293  0.88787  1.0000
  C   C379      1.0  0.43147  0.52700  0.91083  1.0000
  C   C380      1.0  0.45143  0.54716  0.88342  1.0000
  H   H452      1.0  0.41583  0.51094  0.89469  1.0000
  H   H453      1.0  0.45109  0.54636  0.84627  1.0000
  C   C381      1.0  0.44681  0.90472  0.88636  1.0000
  Fe  Fe47      1.0  0.37925  0.96008  0.96188  1.0000
  S   S104      1.0  0.40428  0.90659  0.88177  1.0000
  H   H454      1.0  0.44400  0.90036  0.85039  1.0000
  S   S105      1.0  0.33606  0.89357  0.91204  1.0000
  Fe  Fe48      1.0  0.37881  0.91728  0.91590  1.0000
  C   C382      1.0  0.43001  0.90892  0.91065  1.0000
  C   C383      1.0  0.35992  0.90952  0.79054  1.0000
  N   N26       1.0  0.34836  0.88370  0.77273  1.0000
  C   C384      1.0  0.34029  0.86556  0.81311  1.0000
  H   H455      1.0  0.37603  0.91462  0.81305  1.0000
  H   H456      1.0  0.35567  0.87215  0.83819  1.0000
  H   H457      1.0  0.38539  0.88957  0.76635  1.0000
  C   C385      1.0  0.36844  0.88359  0.74547  1.0000
  H   H458      1.0  0.37488  0.89684  0.71458  1.0000
  C   C386      1.0  0.32632  0.87593  0.74385  1.0000
  H   H459      1.0  0.33529  0.84648  0.80345  1.0000
  H   H460      1.0  0.32336  0.86302  0.83168  1.0000
  H   H461      1.0  0.36178  0.86442  0.73328  1.0000
  C   C387      1.0  0.43382  0.91442  0.95725  1.0000
  H   H462      1.0  0.34580  0.91085  0.81163  1.0000
  H   H463      1.0  0.36781  0.92446  0.76223  1.0000
  C   C388      1.0  0.46714  0.90591  0.90840  1.0000
  C   C389      1.0  0.43161  0.52797  0.95886  1.0000
  H   H464      1.0  0.44623  0.49177  0.90907  1.0000
  S   S106      1.0  0.33676  0.94054  0.96161  1.0000
  C   C390      1.0  0.47068  0.91099  0.95519  1.0000
  H   H465      1.0  0.42100  0.91757  0.97645  1.0000
  C   C391      1.0  0.47176  0.56937  0.95188  1.0000
  H   H466      1.0  0.32792  0.91172  0.74260  1.0000
  H   H467      1.0  0.52700  0.62699  0.78832  1.0000
  H   H468      1.0  0.46989  0.96134  0.84439  1.0000
  C   C392      1.0  0.29678  0.88403  0.70599  1.0000
  C   C393      1.0  0.47171  0.56835  0.90385  1.0000
  C   C394      1.0  0.45305  0.48600  0.93889  1.0000
  H   H469      1.0  0.44757  0.49201  0.97023  1.0000
  C   C395      1.0  0.45168  0.54932  0.97922  1.0000
  C   C396      1.0  0.31182  0.85094  0.72751  1.0000
  C   C397      1.0  0.31836  0.89243  0.73163  1.0000
  H   H470      1.0  0.31694  0.83747  0.73475  1.0000
  H   H471      1.0  0.50926  0.49955  0.97858  1.0000
  C   C398      1.0  0.62428  0.76885  0.95537  1.0000
  H   H472      1.0  0.62476  0.91459  0.52846  1.0000
  H   H473      1.0  0.61343  0.91171  0.89712  1.0000
  H   H474      1.0  0.60655  0.77898  0.88205  1.0000
  C   C399      1.0  0.57454  0.58570  0.78550  1.0000
  N   N27       1.0  0.62012  0.75658  0.91070  1.0000
  H   H475      1.0  0.62063  0.72550  0.94260  1.0000
  H   H476      1.0  0.50414  0.95365  0.85269  1.0000
  N   N28       1.0  0.62741  0.88956  0.92376  1.0000
  H   H477      1.0  0.60630  0.75982  0.97701  1.0000
  C   C400      1.0  0.50526  0.47491  0.81631  1.0000
  H   H478      1.0  0.61510  0.87006  0.52280  1.0000
  H   H479      1.0  0.59978  0.75240  0.84953  1.0000
  S   S107      1.0  0.54030  0.61948  0.97729  1.0000
  H   H480      1.0  0.48743  0.53189  0.96295  1.0000
  C   C401      1.0  0.50300  0.96646  0.87512  1.0000
  Fe  Fe49      1.0  0.57542  0.62162  0.95250  1.0000
  Fe  Fe50      1.0  0.57780  0.96825  0.90007  1.0000
  S   S108      1.0  0.56637  0.95703  0.97459  1.0000
  H   H481      1.0  0.47972  0.90233  0.88942  1.0000
  C   C402      1.0  0.58747  0.55284  0.89054  1.0000
  S   S109      1.0  0.54263  0.93393  0.87348  1.0000
  C   C403      1.0  0.60847  0.72901  0.92081  1.0000
  H   H482      1.0  0.58906  0.58790  0.89317  1.0000
  C   C404      1.0  0.58744  0.81895  0.95857  1.0000
  C   C405      1.0  0.48828  0.48955  0.97645  1.0000
  Fe  Fe51      1.0  0.58565  0.93584  0.96975  1.0000
  C   C406      1.0  0.58061  0.65034  0.72080  1.0000
  H   H483      1.0  0.59883  0.89494  0.95125  1.0000
  S   S110      1.0  0.56725  0.62055  0.87784  1.0000
  C   C407      1.0  0.60668  0.89376  0.91750  1.0000
  H   H484      1.0  0.61402  0.93023  0.80723  1.0000
  C   C408      1.0  0.54659  0.64082  0.77378  1.0000
  H   H485      1.0  0.55032  0.54898  0.82020  1.0000
  S   S111      1.0  0.55348  0.66303  0.89723  1.0000
  C   C409      1.0  0.61746  0.90641  0.63905  1.0000
  C   C410      1.0  0.52288  0.49165  0.84683  1.0000
  H   H486      1.0  0.48688  0.58586  0.96798  1.0000
  Fe  Fe52      1.0  0.56449  0.91517  0.87723  1.0000
  S   S112      1.0  0.58748  0.50945  0.88631  1.0000
  C   C411      1.0  0.57466  0.85668  0.64475  1.0000
  H   H487      1.0  0.58068  0.66680  0.70565  1.0000
  H   H488      1.0  0.57168  0.80152  0.94551  1.0000
  C   C412      1.0  0.53745  0.62128  0.70039  1.0000
  N   N29       1.0  0.48093  0.49758  0.93454  1.0000
  H   H489      1.0  0.59184  0.55495  0.85385  1.0000
  H   H490      1.0  0.54278  0.49839  0.84172  1.0000
  H   H491      1.0  0.59877  0.91313  0.69436  1.0000
  H   H492      1.0  0.59157  0.58553  0.78874  1.0000
  H   H493      1.0  0.60489  0.71863  0.88858  1.0000
  C   C413      1.0  0.58924  0.70941  0.79317  1.0000
  C   C414      1.0  0.61747  0.86536  0.95059  1.0000
  H   H494      1.0  0.62198  0.87381  0.85646  1.0000
  C   C415      1.0  0.61640  0.88878  0.60826  1.0000
  H   H495      1.0  0.59229  0.84847  0.59192  1.0000
  H   H496      1.0  0.58980  0.71995  0.94011  1.0000
  S   S113      1.0  0.60067  0.95055  0.89698  1.0000
  Fe  Fe53      1.0  0.53327  0.62051  0.90250  1.0000
  S   S114      1.0  0.60005  0.66450  0.95182  1.0000
  C   C416      1.0  0.53073  0.58618  0.77889  1.0000
  H   H497      1.0  0.51721  0.60800  0.71221  1.0000
  C   C417      1.0  0.58762  0.86820  0.78408  1.0000
  C   C418      1.0  0.58144  0.56955  0.96055  1.0000
  C   C419      1.0  0.57607  0.60674  0.76438  1.0000
  S   S115      1.0  0.49663  0.59316  0.86853  1.0000
  H   H498      1.0  0.51142  0.54944  0.81457  1.0000
  H   H499      1.0  0.53857  0.63760  0.68191  1.0000
  H   H500      1.0  0.55948  0.64767  0.80309  1.0000
  C   C420      1.0  0.58585  0.57150  0.91276  1.0000
  C   C421      1.0  0.48892  0.49008  0.89313  1.0000
  H   H501      1.0  0.51327  0.58560  0.77806  1.0000
  C   C422      1.0  0.57876  0.52934  0.96316  1.0000
  C   C423      1.0  0.61295  0.71243  0.79345  1.0000
  H   H502      1.0  0.59455  0.65817  0.74858  1.0000
  S   S116      1.0  0.56241  0.88647  0.82856  1.0000
  H   H503      1.0  0.59059  0.87841  0.89876  1.0000
  C   C424      1.0  0.59741  0.89946  0.67071  1.0000
  C   C425      1.0  0.58943  0.88980  0.80093  1.0000
  H   H504      1.0  0.52937  0.51199  0.90760  1.0000
  C   C426      1.0  0.51495  0.49925  0.88459  1.0000
  C   C427      1.0  0.60860  0.87019  0.76110  1.0000
  S   S117      1.0  0.60291  0.77022  0.71477  1.0000
  H   H505      1.0  0.51479  0.53590  0.93422  1.0000
  Fe  Fe54      1.0  0.56408  0.66216  0.97020  1.0000
  Fe  Fe55      1.0  0.53201  0.92201  0.94814  1.0000
  H   H506      1.0  0.58783  0.64364  0.69333  1.0000
  C   C428      1.0  0.60727  0.74824  0.74467  1.0000
  C   C429      1.0  0.49374  0.52562  0.93319  1.0000
  N   N30       1.0  0.55489  0.62970  0.73917  1.0000
  H   H507      1.0  0.56789  0.72442  0.76776  1.0000
  H   H508      1.0  0.58890  0.84164  0.90146  1.0000
  C   C430      1.0  0.55131  0.56506  0.80335  1.0000
  C   C431      1.0  0.59447  0.86348  0.61253  1.0000
  H   H509      1.0  0.58204  0.74774  0.90226  1.0000
  C   C432      1.0  0.61245  0.91344  0.79478  1.0000
  H   H510      1.0  0.54670  0.65733  0.75886  1.0000
  C   C433      1.0  0.57603  0.87468  0.67347  1.0000
  H   H511      1.0  0.59476  0.62220  0.75212  1.0000
  C   C434      1.0  0.58634  0.72701  0.76824  1.0000
  S   S118      1.0  0.61730  0.69056  0.82408  1.0000
  H   H512      1.0  0.60692  0.85347  0.74793  1.0000
  H   H513      1.0  0.56983  0.84985  0.78850  1.0000
  C   C435      1.0  0.52945  0.56531  0.80004  1.0000
  H   H514      1.0  0.48934  0.53246  0.90131  1.0000
  H   H515      1.0  0.57308  0.69350  0.81183  1.0000
  Fe  Fe56      1.0  0.58817  0.66313  0.87884  1.0000
  C   C436      1.0  0.55409  0.60764  0.76056  1.0000
  H   H516      1.0  0.54211  0.61141  0.67492  1.0000
  H   H517      1.0  0.56085  0.86927  0.69895  1.0000
  C   C437      1.0  0.60139  0.75909  0.88514  1.0000
  C   C438      1.0  0.58414  0.53178  0.91562  1.0000
  S   S119      1.0  0.55037  0.89981  0.95011  1.0000
  C   C439      1.0  0.59735  0.84207  0.93376  1.0000
  H   H518      1.0  0.55827  0.83723  0.64793  1.0000
  C   C440      1.0  0.48384  0.97094  0.87038  1.0000
  C   C441      1.0  0.45388  0.91518  0.97948  1.0000
  S   S120      1.0  0.66381  0.36942  0.22723  1.0000
  S   S121      1.0  0.80432  0.38237  0.03824  1.0000
  C   C442      1.0  0.64172  0.23776  0.30213  1.0000
  Fe  Fe57      1.0  0.68996  0.36638  0.17739  1.0000
  S   S122      1.0  0.72685  0.40021  0.14614  1.0000
  S   S123      1.0  0.68451  0.33192  0.21374  1.0000
  H   H519      1.0  0.70022  0.33560  0.06638  1.0000
  C   C443      1.0  0.69627  0.39237  0.02820  1.0000
  H   H520      1.0  0.64084  0.20291  0.12410  1.0000
  H   H521      1.0  0.91119  0.41018  0.98332  1.0000
  H   H522      1.0  0.67846  0.37441  0.01930  1.0000
  C   C444      1.0  0.72856  0.35079  0.42686  1.0000
  Fe  Fe58      1.0  0.65250  0.30964  0.16626  1.0000
  Fe  Fe59      1.0  0.65602  0.33277  0.26112  1.0000
  S   S124      1.0  0.65635  0.31983  0.33659  1.0000
  H   H523      1.0  0.67457  0.41941  0.09740  1.0000
  N   N31       1.0  0.69141  0.41233  0.03861  1.0000
  C   C445      1.0  0.72013  0.36327  0.40036  1.0000
  H   H524      1.0  0.67941  0.28201  0.26526  1.0000
  H   H525      1.0  0.70396  0.38770  0.05820  1.0000
  N   N32       1.0  0.64336  0.24710  0.25393  1.0000
  Fe  Fe60      1.0  0.63330  0.34447  0.17815  1.0000
  C   C446      1.0  0.74847  0.39509  0.11698  1.0000
  C   C447      1.0  0.74653  0.37197  0.12195  1.0000
  C   C448      1.0  0.76427  0.36864  0.09877  1.0000
  C   C449      1.0  0.78368  0.38813  0.06950  1.0000
  C   C450      1.0  0.78547  0.41118  0.06433  1.0000
  C   C451      1.0  0.76804  0.41469  0.08821  1.0000
  H   H526      1.0  0.73162  0.35677  0.14418  1.0000
  H   H527      1.0  0.76274  0.35075  0.10304  1.0000
  H   H528      1.0  0.80047  0.42644  0.04247  1.0000
  H   H529      1.0  0.76986  0.43273  0.08457  1.0000
  C   C452      1.0  0.65531  0.32906  0.39431  1.0000
  C   C453      1.0  0.65242  0.34900  0.40394  1.0000
  C   C454      1.0  0.65216  0.35570  0.45005  1.0000
  H   H530      1.0  0.73138  0.33711  0.41113  1.0000
  H   H531      1.0  0.66010  0.30055  0.42514  1.0000
  C   C455      1.0  0.67068  0.26603  0.24138  1.0000
  C   C456      1.0  0.71613  0.43625  0.04589  1.0000
  Fe  Fe61      1.0  0.83451  0.41144  0.98611  1.0000
  H   H532      1.0  0.63503  0.40074  0.15655  1.0000
  H   H533      1.0  0.95546  0.04738  0.01431  1.0000
  H   H534      1.0  0.67324  0.27494  0.20632  1.0000
  C   C457      1.0  0.69979  0.33597  0.02901  1.0000
  H   H535      1.0  0.65069  0.22676  0.30476  1.0000
  C   C458      1.0  0.65761  0.32271  0.47790  1.0000
  H   H536      1.0  0.68427  0.39881  0.11007  1.0000
  H   H537      1.0  0.73995  0.35583  0.02000  1.0000
  H   H538      1.0  0.72864  0.44315  0.01401  1.0000
  C   C459      1.0  0.63019  0.26058  0.25200  1.0000
  C   C460      1.0  0.94197  0.09513  0.00843  1.0000
  S   S125      1.0  0.65380  0.28128  0.12191  1.0000
  C   C461      1.0  0.71588  0.38043  0.42054  1.0000
  H   H539      1.0  0.65042  0.35931  0.37590  1.0000
  S   S126      1.0  0.66005  0.34413  0.12692  1.0000
  S   S127      1.0  0.90831  0.00278  0.99038  1.0000
  C   C462      1.0  0.65782  0.31598  0.43180  1.0000
  S   S128      1.0  0.87716  0.43242  0.99059  1.0000
  C   C463      1.0  0.67582  0.40411  0.08249  1.0000
  H   H540      1.0  0.71613  0.35910  0.36439  1.0000
  H   H541      1.0  0.65142  0.25379  0.32583  1.0000
  H   H542      1.0  0.71363  0.45167  0.05600  1.0000
  H   H543      1.0  0.72653  0.43369  0.07383  1.0000
  H   H544      1.0  0.65003  0.24888  0.05129  1.0000
  H   H545      1.0  0.65617  0.38743  0.07780  1.0000
  H   H546      1.0  0.71093  0.39859  0.99990  1.0000
  H   H547      1.0  0.66325  0.23814  0.17410  1.0000
  C   C464      1.0  0.73278  0.35547  0.47366  1.0000
  H   H548      1.0  0.70852  0.38946  0.40006  1.0000
  H   H549      1.0  0.93423  0.08862  0.04319  1.0000
  C   C465      1.0  0.66691  0.43048  0.00927  1.0000
  C   C466      1.0  0.94559  0.41055  0.98869  1.0000
  C   C467      1.0  0.67861  0.41698  0.00120  1.0000
  H   H550      1.0  0.63652  0.43720  0.11777  1.0000
  C   C468      1.0  0.72243  0.34736  0.00222  1.0000
  H   H551      1.0  0.68193  0.25731  0.24258  1.0000
  H   H552      1.0  0.94352  0.40750  0.02577  1.0000
  H   H553      1.0  0.66685  0.43768  0.04252  1.0000
  H   H554      1.0  0.64990  0.37115  0.45674  1.0000
  C   C469      1.0  0.63119  0.24042  0.06702  1.0000
  C   C470      1.0  0.71981  0.38510  0.46738  1.0000
  C   C471      1.0  0.63093  0.22545  0.22314  1.0000
  C   C472      1.0  0.64372  0.22367  0.18399  1.0000
  H   H555      1.0  0.95059  0.00308  0.02024  1.0000
  H   H556      1.0  0.65903  0.31489  0.02909  1.0000
  H   H557      1.0  0.95740  0.12747  0.08358  1.0000
  C   C473      1.0  0.63102  0.20343  0.15470  1.0000
  C   C474      1.0  0.67655  0.32437  0.00798  1.0000
  H   H558      1.0  0.63973  0.27790  0.27267  1.0000
  H   H559      1.0  0.62986  0.26653  0.21576  1.0000
  H   H560      1.0  0.90694  0.06458  0.98166  1.0000
  H   H561      1.0  0.64613  0.44557  0.98140  1.0000
  Fe  Fe62      1.0  0.65765  0.36744  0.71682  1.0000
  S   S129      1.0  0.68758  0.37807  0.66088  1.0000
  S   S130      1.0  0.65764  0.39740  0.75869  1.0000
  N   N33       1.0  0.73290  0.37718  0.54519  1.0000
  S   S131      1.0  0.66496  0.31699  0.65667  1.0000
  N   N34       1.0  0.74682  0.35787  0.92636  1.0000
  Fe  Fe63      1.0  0.69370  0.35023  0.69739  1.0000
  S   S132      1.0  0.73280  0.35741  0.70732  1.0000
  Fe  Fe64      1.0  0.65715  0.34460  0.62274  1.0000
  S   S133      1.0  0.65479  0.35261  0.54507  1.0000
  S   S134      1.0  0.66633  0.34214  0.75607  1.0000
  C   C475      1.0  0.63214  0.23213  0.79022  1.0000
  Fe  Fe65      1.0  0.83714  0.43438  0.89132  1.0000
  S   S135      1.0  0.81065  0.43850  0.84539  1.0000
  S   S136      1.0  0.87996  0.45772  0.88686  1.0000
  H   H562      1.0  0.78223  0.39418  0.91337  1.0000
  C   C476      1.0  0.76405  0.38538  0.93425  1.0000
  H   H563      1.0  0.64449  0.26460  0.74355  1.0000
  H   H564      1.0  0.64894  0.06970  0.96547  1.0000
  H   H565      1.0  0.65961  0.31241  0.50595  1.0000
  H   H566      1.0  0.64210  0.34567  0.85236  1.0000
  C   C477      1.0  0.63050  0.25169  0.76981  1.0000
  C   C478      1.0  0.93304  0.02800  0.90786  1.0000
  S   S137      1.0  0.83429  0.39864  0.91430  1.0000
  H   H567      1.0  0.74670  0.32394  0.93800  1.0000
  C   C479      1.0  0.65113  0.10310  0.93864  1.0000
  H   H568      1.0  0.65202  0.42996  0.81674  1.0000
  C   C480      1.0  0.75365  0.37927  0.74744  1.0000
  C   C481      1.0  0.74908  0.39631  0.76777  1.0000
  C   C482      1.0  0.76664  0.41421  0.79792  1.0000
  C   C483      1.0  0.78864  0.41491  0.80885  1.0000
  C   C484      1.0  0.79299  0.39757  0.78922  1.0000
  C   C485      1.0  0.77564  0.37995  0.75841  1.0000
  H   H569      1.0  0.73232  0.39611  0.75939  1.0000
  H   H570      1.0  0.76322  0.42771  0.81257  1.0000
  H   H571      1.0  0.80998  0.39807  0.79696  1.0000
  H   H572      1.0  0.77939  0.36690  0.74272  1.0000
  C   C486      1.0  0.69854  0.33585  0.93289  1.0000
  H   H573      1.0  0.71819  0.33789  0.56457  1.0000
  H   H574      1.0  0.73306  0.40022  0.59911  1.0000
  H   H575      1.0  0.65146  0.10910  0.97320  1.0000
  H   H576      1.0  0.76324  0.38963  0.59237  1.0000
  H   H577      1.0  0.66798  0.41007  0.88506  1.0000
  C   C487      1.0  0.65542  0.42790  0.92981  1.0000
  Fe  Fe66      1.0  0.63700  0.31126  0.71336  1.0000
  C   C488      1.0  0.92722  0.41206  0.96469  1.0000
  H   H578      1.0  0.73584  0.36583  0.86138  1.0000
  C   C489      1.0  0.64769  0.08323  0.85232  1.0000
  H   H579      1.0  0.65495  0.16764  0.95001  1.0000
  H   H580      1.0  0.69501  0.34591  0.56459  1.0000
  H   H581      1.0  0.74162  0.41544  0.54283  1.0000
  C   C490      1.0  0.75934  0.38551  0.55526  1.0000
  H   H582      1.0  0.95257  0.04858  0.84418  1.0000
  H   H583      1.0  0.77338  0.40301  0.53427  1.0000
  C   C491      1.0  0.95013  0.41748  0.89294  1.0000
  H   H584      1.0  0.70881  0.39096  0.55879  1.0000
  C   C492      1.0  0.93440  0.08772  0.92728  1.0000
  C   C493      1.0  0.92921  0.41516  0.91658  1.0000
  H   H585      1.0  0.64566  0.05210  0.88916  1.0000
  H   H586      1.0  0.91645  0.01324  0.89123  1.0000
  H   H587      1.0  0.76208  0.36255  0.85693  1.0000
  H   H588      1.0  0.64552  0.07494  0.81913  1.0000
  C   C494      1.0  0.65111  0.11684  0.89899  1.0000
  C   C495      1.0  0.67593  0.32458  0.96003  1.0000
  Fe  Fe67      1.0  0.87725  0.42297  0.91680  1.0000
  C   C496      1.0  0.95359  0.04800  0.88126  1.0000
  C   C497      1.0  0.71510  0.35317  0.57216  1.0000
  H   H589      1.0  0.73886  0.34499  0.49295  1.0000
  S   S138      1.0  0.90621  0.41637  0.88461  1.0000
  C   C498      1.0  0.65412  0.14954  0.94928  1.0000
  C   C499      1.0  0.62884  0.13732  0.88283  1.0000
  C   C500      1.0  0.64787  0.07034  0.89178  1.0000
  H   H590      1.0  0.75520  0.39592  0.92461  1.0000
  C   C501      1.0  0.66739  0.41533  0.92014  1.0000
  H   H591      1.0  0.71501  0.39777  0.48099  1.0000
  N   N35       1.0  0.65220  0.14085  0.90160  1.0000
  C   C502      1.0  0.92590  0.08113  0.97325  1.0000
  C   C503      1.0  0.67456  0.16145  0.87393  1.0000
  H   H592      1.0  0.69249  0.16404  0.88587  1.0000
  C   C504      1.0  0.72894  0.39685  0.56195  1.0000
  H   H593      1.0  0.69666  0.33502  0.89600  1.0000
  H   H594      1.0  0.71718  0.35580  0.60995  1.0000
  H   H595      1.0  0.64753  0.23021  0.77964  1.0000
  H   H596      1.0  0.76328  0.37075  0.54825  1.0000
  H   H597      1.0  0.67155  0.15303  0.96547  1.0000
  C   C505      1.0  0.72865  0.37288  0.49538  1.0000
  C   C506      1.0  0.67885  0.40987  0.95517  1.0000
  C   C507      1.0  0.95906  0.10825  0.91622  1.0000
  H   H598      1.0  0.95181  0.41986  0.85575  1.0000
  C   C508      1.0  0.93367  0.02763  0.95590  1.0000
  H   H599      1.0  0.77733  0.35178  0.92050  1.0000
  H   H600      1.0  0.67337  0.15760  0.83666  1.0000
  H   H601      1.0  0.68801  0.40034  0.94522  1.0000
  H   H602      1.0  0.64880  0.11524  0.82409  1.0000
  C   C509      1.0  0.75943  0.34486  0.94123  1.0000
  S   S139      1.0  0.83566  0.44610  0.96302  1.0000
  Fe  Fe68      1.0  0.87820  0.46616  0.96051  1.0000
  H   H603      1.0  0.67629  0.17995  0.87631  1.0000
  H   H604      1.0  0.63099  0.36646  0.85209  1.0000
  C   C510      1.0  0.64940  0.10619  0.85567  1.0000
  C   C511      1.0  0.64968  0.08029  0.93477  1.0000
  C   C512      1.0  0.65475  0.34269  0.48752  1.0000
  C   C513      1.0  0.74359  0.35504  0.87591  1.0000
  H   H605      1.0  0.73106  0.33475  0.86727  1.0000
  C   C514      1.0  0.72255  0.34716  0.95343  1.0000
  H   H606      1.0  0.92213  0.07637  0.90021  1.0000
  H   H607      1.0  0.65778  0.31541  0.94381  1.0000
  H   H608      1.0  0.76515  0.34826  0.97763  1.0000
  H   H609      1.0  0.63717  0.13542  0.97149  1.0000
  C   C515      1.0  0.65520  0.43546  0.97421  1.0000
  C   C516      1.0  0.63310  0.41453  0.80870  1.0000
  H   H610      1.0  0.64663  0.43224  0.90278  1.0000
  H   H611      1.0  0.95099  0.46569  0.94126  1.0000
  C   C517      1.0  0.63016  0.39604  0.77884  1.0000
  H   H612      1.0  0.95816  0.00421  0.81562  1.0000
  H   H613      1.0  0.76949  0.38906  0.97077  1.0000
  C   C518      1.0  0.95504  0.04733  0.97712  1.0000
  C   C519      1.0  0.96042  0.97397  0.97649  1.0000
  H   H614      1.0  0.62854  0.15475  0.88528  1.0000
  H   H615      1.0  0.74974  0.89473  0.35919  1.0000
  H   H616      1.0  0.65039  0.73917  0.06055  1.0000
  S   S140      1.0  0.65565  0.77846  0.11558  1.0000
  Fe  Fe69      1.0  0.69184  0.86481  0.16979  1.0000
  S   S141      1.0  0.73127  0.89891  0.14981  1.0000
  S   S142      1.0  0.68540  0.82975  0.20568  1.0000
  H   H617      1.0  0.69064  0.82581  0.06040  1.0000
  H   H618      1.0  0.64152  0.79376  0.41803  1.0000
  S   S143      1.0  0.66458  0.86739  0.21744  1.0000
  C   C520      1.0  0.66917  0.84865  0.47608  1.0000
  C   C521      1.0  0.65117  0.81390  0.42321  1.0000
  S   S144      1.0  0.80710  0.88122  0.03602  1.0000
  H   H619      1.0  0.70433  0.83860  0.29876  1.0000
  H   H620      1.0  0.95310  0.91608  0.01110  1.0000
  S   S145      1.0  0.66343  0.84379  0.11613  1.0000
  H   H621      1.0  0.77382  0.91059  0.31430  1.0000
  C   C522      1.0  0.77369  0.89070  0.23140  1.0000
  H   H622      1.0  0.71736  0.89061  0.30254  1.0000
  C   C523      1.0  0.65644  0.82265  0.46854  1.0000
  C   C524      1.0  0.65829  0.83085  0.38459  1.0000
  C   C525      1.0  0.75906  0.89151  0.32965  1.0000
  Fe  Fe70      1.0  0.65478  0.80856  0.15519  1.0000
  C   C526      1.0  0.75163  0.89378  0.11626  1.0000
  C   C527      1.0  0.74522  0.86922  0.10811  1.0000
  C   C528      1.0  0.76222  0.86565  0.08281  1.0000
  C   C529      1.0  0.78568  0.88656  0.06526  1.0000
  C   C530      1.0  0.79188  0.91114  0.07256  1.0000
  C   C531      1.0  0.77495  0.91471  0.09817  1.0000
  H   H623      1.0  0.72740  0.85294  0.12211  1.0000
  H   H624      1.0  0.75728  0.84657  0.07735  1.0000
  H   H625      1.0  0.80997  0.92740  0.05949  1.0000
  H   H626      1.0  0.78005  0.93377  0.10441  1.0000
  C   C532      1.0  0.69843  0.82826  0.02556  1.0000
  C   C533      1.0  0.67077  0.85685  0.39217  1.0000
  C   C534      1.0  0.67627  0.86563  0.43747  1.0000
  H   H627      1.0  0.67628  0.87019  0.36312  1.0000
  H   H628      1.0  0.94762  0.55225  0.01637  1.0000
  C   C535      1.0  0.77969  0.86217  0.18765  1.0000
  H   H629      1.0  0.67982  0.78816  0.01799  1.0000
  N   N36       1.0  0.74034  0.87497  0.29574  1.0000
  H   H630      1.0  0.73071  0.82833  0.26533  1.0000
  H   H631      1.0  0.71573  0.87699  0.24839  1.0000
  H   H632      1.0  0.71069  0.85573  0.34956  1.0000
  H   H633      1.0  0.95289  0.95935  0.00537  1.0000
  H   H634      1.0  0.76897  0.88278  0.34383  1.0000
  C   C536      1.0  0.62902  0.75351  0.08885  1.0000
  H   H635      1.0  0.80181  0.90265  0.17585  1.0000
  H   H636      1.0  0.75362  0.82238  0.20461  1.0000
  H   H637      1.0  0.78947  0.85918  0.15997  1.0000
  C   C537      1.0  0.75946  0.84149  0.21279  1.0000
  C   C538      1.0  0.74640  0.84525  0.24775  1.0000
  H   H638      1.0  0.74304  0.90713  0.26016  1.0000
  H   H639      1.0  0.72733  0.84087  0.33800  1.0000
  S   S146      1.0  0.87964  0.93082  0.98785  1.0000
  C   C539      1.0  0.78670  0.88671  0.19679  1.0000
  C   C540      1.0  0.75333  0.87012  0.25842  1.0000
  Fe  Fe71      1.0  0.83706  0.91081  0.98450  1.0000
  H   H640      1.0  0.68612  0.88578  0.44264  1.0000
  C   C541      1.0  0.71991  0.85150  0.32145  1.0000
  Fe  Fe72      1.0  0.65623  0.83062  0.25066  1.0000
  H   H641      1.0  0.77940  0.91005  0.23620  1.0000
  C   C542      1.0  0.72870  0.88804  0.27607  1.0000
  S   S147      1.0  0.65183  0.81849  0.32802  1.0000
  H   H642      1.0  0.64690  0.93442  0.08131  1.0000
  H   H643      1.0  0.95256  0.51417  0.05801  1.0000
  Fe  Fe73      1.0  0.63538  0.84312  0.16598  1.0000
  S   S148      1.0  0.90455  0.50482  0.98945  1.0000
  C   C543      1.0  0.71515  0.85267  0.00569  1.0000
  H   H644      1.0  0.64410  0.89861  0.12554  1.0000
  C   C544      1.0  0.63197  0.73664  0.06331  1.0000
  H   H645      1.0  0.71931  0.86824  0.02681  1.0000
  C   C545      1.0  0.69230  0.80693  0.00159  1.0000
  H   H646      1.0  0.94852  0.49214  0.98901  1.0000
  H   H647      1.0  0.64216  0.88061  0.00968  1.0000
  H   H648      1.0  0.75803  0.90241  0.00245  1.0000
  C   C546      1.0  0.62875  0.89508  0.10404  1.0000
  C   C547      1.0  0.63024  0.91534  0.07906  1.0000
  Fe  Fe74      1.0  0.87912  0.92119  0.91389  1.0000
  S   S149      1.0  0.69514  0.87565  0.65769  1.0000
  H   H649      1.0  0.78363  0.83179  0.67808  1.0000
  C   C548      1.0  0.63726  0.88830  0.87780  1.0000
  S   S150      1.0  0.67104  0.81522  0.64692  1.0000
  C   C549      1.0  0.66100  0.90436  0.59850  1.0000
  Fe  Fe75      1.0  0.69406  0.84452  0.69911  1.0000
  S   S151      1.0  0.72544  0.84387  0.73523  1.0000
  Fe  Fe76      1.0  0.66910  0.84580  0.60842  1.0000
  S   S152      1.0  0.67704  0.86115  0.53243  1.0000
  S   S153      1.0  0.66053  0.83584  0.74386  1.0000
  H   H650      1.0  0.65093  0.93392  0.76598  1.0000
  Fe  Fe77      1.0  0.84003  0.93397  0.89002  1.0000
  S   S154      1.0  0.81622  0.93688  0.83580  1.0000
  C   C550      1.0  0.70262  0.80986  0.95722  1.0000
  Fe  Fe78      1.0  0.65955  0.86466  0.69875  1.0000
  H   H651      1.0  0.85570  0.87655  0.83314  1.0000
  H   H652      1.0  0.87611  0.91956  0.81192  1.0000
  C   C551      1.0  0.79459  0.85089  0.69046  1.0000
  C   C552      1.0  0.81517  0.85831  0.71841  1.0000
  S   S155      1.0  0.65823  0.89760  0.72487  1.0000
  C   C553      1.0  0.94464  0.90549  0.88050  1.0000
  H   H653      1.0  0.64870  0.80565  0.87378  1.0000
  C   C554      1.0  0.93065  0.91249  0.95317  1.0000
  C   C555      1.0  0.92765  0.90902  0.90591  1.0000
  S   S156      1.0  0.90342  0.90967  0.87735  1.0000
  H   H654      1.0  0.92217  0.51017  0.89363  1.0000
  C   C556      1.0  0.74925  0.86954  0.76576  1.0000
  C   C557      1.0  0.75383  0.89384  0.76084  1.0000
  C   C558      1.0  0.77431  0.91426  0.78282  1.0000
  C   C559      1.0  0.79005  0.91048  0.81052  1.0000
  C   C560      1.0  0.78495  0.88602  0.81665  1.0000
  C   C561      1.0  0.76473  0.86567  0.79411  1.0000
  H   H655      1.0  0.74208  0.89705  0.73896  1.0000
  H   H656      1.0  0.77813  0.93315  0.77789  1.0000
  H   H657      1.0  0.79693  0.88291  0.83782  1.0000
  H   H658      1.0  0.76141  0.84694  0.79775  1.0000
  H   H659      1.0  0.86971  0.93076  0.76070  1.0000
  C   C562      1.0  0.80151  0.89232  0.69497  1.0000
  H   H660      1.0  0.77116  0.86174  0.65871  1.0000
  C   C563      1.0  0.77030  0.88415  0.93323  1.0000
  H   H661      1.0  0.84224  0.48539  0.89126  1.0000
  C   C564      1.0  0.64838  0.91221  0.94591  1.0000
  H   H662      1.0  0.73637  0.87212  0.86894  1.0000
  H   H663      1.0  0.79570  0.90523  0.68673  1.0000
  H   H664      1.0  0.85317  0.51362  0.92115  1.0000
  C   C565      1.0  0.64457  0.76907  0.88349  1.0000
  H   H665      1.0  0.64917  0.73690  0.88356  1.0000
  H   H666      1.0  0.87312  0.50145  0.91471  1.0000
  S   S157      1.0  0.83840  0.94572  0.96166  1.0000
  S   S158      1.0  0.63354  0.83651  0.64814  1.0000
  Fe  Fe79      1.0  0.88096  0.96504  0.95890  1.0000
  H   H667      1.0  0.63405  0.92558  0.63960  1.0000
  C   C566      1.0  0.67920  0.80654  0.83912  1.0000
  C   C567      1.0  0.87656  0.50503  0.82233  1.0000
  H   H668      1.0  0.64728  0.76768  0.72712  1.0000
  H   H669      1.0  0.93310  0.58476  0.94191  1.0000
  H   H670      1.0  0.83353  0.50415  0.82706  1.0000
  H   H671      1.0  0.66750  0.92104  0.61994  1.0000
  C   C568      1.0  0.71951  0.83418  0.93706  1.0000
  Fe  Fe80      1.0  0.63755  0.80834  0.69006  1.0000
  C   C569      1.0  0.93187  0.58450  0.82534  1.0000
  C   C570      1.0  0.92604  0.57833  0.90797  1.0000
  H   H672      1.0  0.75116  0.90487  0.87878  1.0000
  H   H673      1.0  0.83613  0.85190  0.79603  1.0000
  S   S159      1.0  0.83629  0.89787  0.91272  1.0000
  C   C571      1.0  0.82195  0.89988  0.72334  1.0000
  H   H674      1.0  0.89377  0.54403  0.93533  1.0000
  C   C572      1.0  0.73751  0.88544  0.89452  1.0000
  H   H675      1.0  0.71849  0.88261  0.89774  1.0000
  H   H676      1.0  0.82379  0.86795  0.82475  1.0000
  H   H677      1.0  0.63807  0.76713  0.97572  1.0000
  H   H678      1.0  0.86492  0.87175  0.72864  1.0000
  H   H679      1.0  0.84599  0.91586  0.80754  1.0000
  C   C573      1.0  0.84099  0.87074  0.80695  1.0000
  C   C574      1.0  0.69048  0.79344  0.82844  1.0000
  C   C575      1.0  0.63149  0.89391  0.75433  1.0000
  H   H680      1.0  0.72753  0.83548  0.90302  1.0000
  S   S160      1.0  0.88287  0.95662  0.88506  1.0000
  C   C576      1.0  0.65675  0.79472  0.86666  1.0000
  C   C577      1.0  0.90898  0.56110  0.82044  1.0000
  C   C578      1.0  0.95705  0.54728  0.88595  1.0000
  C   C579      1.0  0.94047  0.59299  0.86902  1.0000
  H   H681      1.0  0.85808  0.53301  0.79753  1.0000
  H   H682      1.0  0.65511  0.93007  0.92507  1.0000
  H   H683      1.0  0.63183  0.78941  0.95089  1.0000
  C   C580      1.0  0.67955  0.76859  0.84569  1.0000
  C   C581      1.0  0.87108  0.89054  0.74222  1.0000
  C   C582      1.0  0.75044  0.90312  0.96859  1.0000
  C   C583      1.0  0.93224  0.52875  0.95795  1.0000
  C   C584      1.0  0.78766  0.86780  0.67908  1.0000
  H   H684      1.0  0.88121  0.51285  0.78620  1.0000
  N   N37       1.0  0.74575  0.88188  0.93996  1.0000
  H   H685      1.0  0.65178  0.88356  0.88088  1.0000
  C   C585      1.0  0.86085  0.91510  0.78773  1.0000
  C   C586      1.0  0.85150  0.52295  0.83198  1.0000
  H   H686      1.0  0.90314  0.55535  0.78585  1.0000
  C   C587      1.0  0.65695  0.75646  0.87281  1.0000
  H   H687      1.0  0.68813  0.75827  0.83665  1.0000
  C   C588      1.0  0.93594  0.52690  0.91098  1.0000
  C   C589      1.0  0.82913  0.88286  0.73665  1.0000
  H   H688      1.0  0.76897  0.86987  0.90991  1.0000
  C   C590      1.0  0.89430  0.54518  0.85940  1.0000
  H   H689      1.0  0.84676  0.53408  0.85403  1.0000
  H   H690      1.0  0.64851  0.88361  0.51594  1.0000
  H   H691      1.0  0.89295  0.50462  0.83448  1.0000
  H   H692      1.0  0.78550  0.90321  0.91819  1.0000
  N   N38       1.0  0.85012  0.88985  0.76787  1.0000
  H   H693      1.0  0.83117  0.91889  0.73557  1.0000
  C   C591      1.0  0.63104  0.75144  0.74532  1.0000
  C   C592      1.0  0.90331  0.55474  0.90353  1.0000
  H   H694      1.0  0.68765  0.82575  0.82485  1.0000
  C   C593      1.0  0.85945  0.50453  0.89706  1.0000
  H   H695      1.0  0.70750  0.80245  0.80603  1.0000
  C   C594      1.0  0.63373  0.73331  0.76890  1.0000
  N   N39       1.0  0.87087  0.51986  0.85318  1.0000
  H   H696      1.0  0.81982  0.84453  0.72613  1.0000
  H   H697      1.0  0.76496  0.92199  0.95182  1.0000
  H   H698      1.0  0.88731  0.89596  0.76473  1.0000
  H   H699      1.0  0.87839  0.90453  0.71233  1.0000
  H   H700      1.0  0.65209  0.73570  0.76855  1.0000
  H   H701      1.0  0.67707  0.90899  0.57422  1.0000
  H   H702      1.0  0.65084  0.80926  0.49757  1.0000
  H   H703      1.0  0.64627  0.90668  0.85748  1.0000
  H   H704      1.0  0.65775  0.88873  0.62239  1.0000
  H   H705      1.0  0.94335  0.59591  0.79518  1.0000
  H   H706      1.0  0.86004  0.48496  0.82066  1.0000
  C   C595      1.0  0.72655  0.85638  0.96091  1.0000
  C   C596      1.0  0.63331  0.91549  0.77123  1.0000
  H   H707      1.0  0.66513  0.91092  0.95027  1.0000
  N   N40       1.0  0.63759  0.89688  0.57408  1.0000
  H   H708      1.0  0.95927  0.54620  0.84924  1.0000
  H   H709      1.0  0.69798  0.79322  0.93875  1.0000
  H   H710      1.0  0.65739  0.92479  0.51790  1.0000
  H   H711      1.0  0.91725  0.91439  0.97343  1.0000
  H   H712      1.0  0.95870  0.61064  0.87277  1.0000
  C   C597      1.0  0.95101  0.91346  0.97443  1.0000
  H   H713      1.0  0.64907  0.93610  0.56583  1.0000
  C   C598      1.0  0.64236  0.91905  0.54541  1.0000
  H   H714      1.0  0.73281  0.90283  0.97484  1.0000
  H   H715      1.0  0.94213  0.90217  0.84410  1.0000
  H   H716      1.0  0.63089  0.86017  0.56063  1.0000
  C   C599      1.0  0.95037  0.55065  0.98006  1.0000
  H   H717      1.0  0.95148  0.49084  0.90896  1.0000
  H   H718      1.0  0.77691  0.88124  0.96656  1.0000
  C   C600      1.0  0.63261  0.87676  0.54210  1.0000
  H   H719      1.0  0.64205  0.91480  0.98012  1.0000
  H   H720      1.0  0.94364  0.97353  0.96357  1.0000
