data_image0
_chemical_formula_structural       SCFeSFeCSCH3CSCNCNCSH4C3SFeH2CHC3HCHCH4CH5FeHCHCH3C2H2C4HCH4CHNH3SC2HCHC3HSHCH2C3H2CH7FeHCH2CFeS2FeHFeNFeS3FeS2FeSHFeSFeS3HFeCSFeS2C2H4C2SC7H2CHCH2CH5C6HNCHC3H2C6H4NC6HCH9CHNHCH3C2H4CHC4H8C2HCHCHC2HSHNCHC4HCNHCHCH3CH2CH3C2HCHCH3CHCSHCHSHNHSCH3CH3CS2C3H4CHFeCHCH2C4HSCH2CFeS2FeS2FeHFeS3FeS2FeS2FeSFeSCSHFeS2HFeS2C4HC3HNHCNHC9HSH3C2NHCH4C6H4C3H2C2HCH3CHCHCH4C2H2NC9H14NC4HCSH15C3H7CHSHCHC3H3C4FeH2C4H2CSH2SH2CHC2HCH2CH3C4S2CFeSCSCSFeCH2C3H2CHCH2C3HCH2CH2CHC2HCH2C2H4CH3CHCSHCHCH4CNCH3CHCH2CH2S2H2CH2CFeS2FeNFeHC2S2FeSCFeSHFeSFeS3CH2CH5CHC8H4CSH2C3H4C2HCH2CHC2HSH2CHCHSHCH2C2FeC2HNH3C2HNC9H17CHNHSH2SHCHC2HCH3C8HC4NH3C2SHCHC3H3FeS2C5HC2HFeS2FeCSNFeS2CHFeSH2FeS2H3CH6C2HC2HCHC3H2C2H3CHFeNH2CHCFeCH2CHSC4HCHNHFeCSH5C2HCSC4HCHCHFeCH2SCH3SCHC2HCH2CHC2HCFeCSCH2C2H4CSHNC5H2SCSHC3HC2HSHFeS2C5FeS2HCH2CFeCFeS2H4SFeCSCH2CHC2H4SCH2S2CHSC4HC2HCFeC2H3CHCH2FeCFeHNH2SH7C2FeH4NHCHSH3FeCHC2HCHCHC2HCSH2CH2CHC3HNC8H5SHCHCH5SC2H3C2H2CH2CHCHCHCNSFeSCFeS2FeSFeS3FeSCFeSCFeSFeCSHCH2C2SHCHCHC2H2C6H5CHCHCH3C4HCH3C3H2NH3CHCHSH2SCNC2SNC9H17C2HCH6SC3H2C2H2CH2CH2C2HCH3CSH2C2H2SFeCH2C2SHSHCHFeSCHCHCSH2CH2CSH2FeH7C2HCH3CSH3C2HC2H3C4H4CSH2CHCH2CNCHC6HC2H2C2HCHCH2CHNH6CH3CNC3SC2HCFeSNFeS2FeHFeS3FeSHFeS2FeSFeS3FeS2FeSCHCH4C6NHCH3SH2C2HC4HCH4CH3C7H11C2NCHC7H7C2H2CHCH3SC4H2CH3CH2CNCSHC4HCHCH5CH2C2H2CHCH5CH4C3HC2HCH2NHC4H3CHCHCSC3HC3H9FeS2FeS2FeSFeS3FeCHFeS2FeSFeHS2HFeS2FeHSHC7H5SCH2C6H5C4HFeC6H4CH2C2HCH2CSH2NC9H14NC9H15CH2C3H3SHC4SH3NH2C5HC5H2CH5NH5C3NH4C2SFeH2CH2SHFeHSH2CHCH2SHC3H2CHCNFeHCHCHCHCFeCHCHC2H2C5HS2HCSHNC8H6SFeC2SH5CH5CH3C2HCH4SFeHNC
_chemical_formula_sum              "S192 C720 Fe96 H864 N48"
_cell_length_a       68.8473
_cell_length_b       37.8972
_cell_length_c       37.1266
_cell_angle_alpha    89.5553
_cell_angle_beta     89.8433
_cell_angle_gamma    88.4789

_space_group_name_H-M_alt    "P 1"
_space_group_IT_number       1

loop_
  _space_group_symop_operation_xyz
  'x, y, z'

loop_
  _atom_site_type_symbol
  _atom_site_label
  _atom_site_symmetry_multiplicity
  _atom_site_fract_x
  _atom_site_fract_y
  _atom_site_fract_z
  _atom_site_occupancy
  S   S1        1.0  0.02781  0.09960  0.37998  1.0000
  C   C1        1.0  0.01607  0.28158  0.26298  1.0000
  Fe  Fe1       1.0  0.02713  0.06617  0.32999  1.0000
  S   S2        1.0  0.05389  0.06752  0.29293  1.0000
  Fe  Fe2       1.0  0.02240  0.46643  0.33217  1.0000
  C   C2        1.0  0.16799  0.04308  0.01196  1.0000
  S   S3        1.0  0.03048  0.42954  0.37806  1.0000
  C   C3        1.0  0.02460  0.26014  0.36174  1.0000
  H   H1        1.0  0.04015  0.26340  0.36228  1.0000
  H   H2        1.0  0.02464  0.39337  0.44901  1.0000
  H   H3        1.0  0.02961  0.30125  0.42930  1.0000
  C   C4        1.0  0.07009  0.03260  0.27947  1.0000
  S   S4        1.0  0.01373  0.02039  0.35841  1.0000
  C   C5        1.0  0.05384  0.16374  0.25152  1.0000
  N   N1        1.0  0.11121  0.49428  0.14980  1.0000
  C   C6        1.0  0.03084  0.36599  0.44914  1.0000
  N   N2        1.0  0.01722  0.34050  0.46530  1.0000
  C   C7        1.0  0.09115  0.46295  0.19765  1.0000
  S   S5        1.0  0.00470  0.42577  0.30341  1.0000
  H   H4        1.0  0.12310  0.49144  0.09591  1.0000
  H   H5        1.0  0.07270  0.43991  0.23809  1.0000
  H   H6        1.0  0.07632  0.46195  0.31757  1.0000
  H   H7        1.0  0.08967  0.06810  0.25319  1.0000
  C   C8        1.0  0.31565  0.17715  0.47711  1.0000
  C   C9        1.0  0.08695  0.04086  0.25994  1.0000
  C   C10       1.0  0.09612  0.04214  0.36237  1.0000
  S   S6        1.0  0.02279  0.33243  0.35170  1.0000
  Fe  Fe3       1.0  0.01244  0.05486  0.40758  1.0000
  H   H8        1.0  0.06523  0.17684  0.26743  1.0000
  H   H9        1.0  0.04342  0.47425  0.21998  1.0000
  C   C11       1.0  0.16345  0.48355  0.04724  1.0000
  H   H10       1.0  0.05762  0.13493  0.25290  1.0000
  C   C12       1.0  0.03506  0.27184  0.25367  1.0000
  C   C13       1.0  0.01223  0.29009  0.35737  1.0000
  C   C14       1.0  0.02537  0.30448  0.45814  1.0000
  H   H11       1.0  0.01911  0.15741  0.21756  1.0000
  C   C15       1.0  0.10032  0.01418  0.24889  1.0000
  H   H12       1.0  0.32264  0.23202  0.47233  1.0000
  C   C16       1.0  0.09265  0.48745  0.16860  1.0000
  H   H13       1.0  0.19572  0.49908  0.12617  1.0000
  H   H14       1.0  0.02679  0.20344  0.36937  1.0000
  H   H15       1.0  0.01476  0.28344  0.46323  1.0000
  H   H16       1.0  0.16257  0.01112  0.29135  1.0000
  C   C17       1.0  0.04100  0.23622  0.25355  1.0000
  H   H17       1.0  0.20707  0.06258  0.99886  1.0000
  H   H18       1.0  0.01925  0.16367  0.31666  1.0000
  H   H19       1.0  0.09031  0.06887  0.36521  1.0000
  H   H20       1.0  0.05598  0.23067  0.24660  1.0000
  H   H21       1.0  0.22713  0.43982  0.01895  1.0000
  Fe  Fe4       1.0  0.01108  0.39012  0.35139  1.0000
  H   H22       1.0  0.11306  0.02104  0.23349  1.0000
  C   C18       1.0  0.01707  0.22592  0.36525  1.0000
  H   H23       1.0  0.10352  0.44817  0.20817  1.0000
  C   C19       1.0  0.15667  0.00948  0.36268  1.0000
  H   H24       1.0  0.23699  0.03786  0.02155  1.0000
  H   H25       1.0  0.04496  0.36567  0.46365  1.0000
  H   H26       1.0  0.32859  0.02730  0.19253  1.0000
  C   C20       1.0  0.08407  0.01389  0.36894  1.0000
  C   C21       1.0  0.02039  0.14899  0.24626  1.0000
  H   H27       1.0  0.04388  0.17762  0.32042  1.0000
  H   H28       1.0  0.15470  0.03845  0.36626  1.0000
  C   C22       1.0  0.03398  0.16108  0.30451  1.0000
  C   C23       1.0  0.05687  0.47725  0.20508  1.0000
  C   C24       1.0  0.08058  0.48413  0.30115  1.0000
  C   C25       1.0  0.10027  0.48781  0.29108  1.0000
  H   H29       1.0  0.11098  0.46831  0.30005  1.0000
  C   C26       1.0  0.02793  0.20920  0.26311  1.0000
  H   H30       1.0  0.01169  0.30926  0.26415  1.0000
  H   H31       1.0  0.04533  0.29219  0.24726  1.0000
  H   H32       1.0  0.03880  0.13317  0.30840  1.0000
  H   H33       1.0  0.12411  0.05897  0.34688  1.0000
  C   C27       1.0  0.07344  0.45788  0.21527  1.0000
  H   H34       1.0  0.14453  0.04373  0.30243  1.0000
  N   N3        1.0  0.03405  0.17151  0.26602  1.0000
  H   H35       1.0  0.23223  0.46403  0.07895  1.0000
  H   H36       1.0  0.17231  0.06812  0.06329  1.0000
  H   H37       1.0  0.05501  0.17189  0.22274  1.0000
  S   S7        1.0  0.02541  0.03093  0.45939  1.0000
  C   C28       1.0  0.12781  0.47200  0.16310  1.0000
  C   C29       1.0  0.17153  0.01159  0.06973  1.0000
  H   H38       1.0  0.16736  0.45716  0.05647  1.0000
  C   C30       1.0  0.17080  0.04325  0.04960  1.0000
  H   H39       1.0  0.32826  0.01474  0.27502  1.0000
  C   C31       1.0  0.14720  0.01482  0.30042  1.0000
  C   C32       1.0  0.11537  0.03611  0.35143  1.0000
  C   C33       1.0  0.32046  0.21000  0.49058  1.0000
  H   H40       1.0  0.03407  0.36000  0.42037  1.0000
  S   S8        1.0  0.17615  0.01338  0.11684  1.0000
  H   H41       1.0  0.06904  0.01875  0.37681  1.0000
  C   C34       1.0  0.00870  0.22014  0.27251  1.0000
  H   H42       1.0  0.03853  0.29884  0.47474  1.0000
  H   H43       1.0  0.21898  0.47759  0.13287  1.0000
  C   C35       1.0  0.16058  0.48975  0.01011  1.0000
  C   C36       1.0  0.22453  0.48034  0.05943  1.0000
  C   C37       1.0  0.10917  0.48763  0.11065  1.0000
  H   H44       1.0  0.31412  0.17371  0.44829  1.0000
  H   H45       1.0  0.10454  0.46016  0.10571  1.0000
  C   C38       1.0  0.22186  0.46631  0.02510  1.0000
  H   H46       1.0  0.12509  0.44341  0.15973  1.0000
  H   H47       1.0  0.14149  0.47764  0.14830  1.0000
  H   H48       1.0  0.02524  0.12063  0.24688  1.0000
  H   H49       1.0  0.13085  0.47716  0.19205  1.0000
  H   H50       1.0  0.30938  0.12382  0.48824  1.0000
  H   H51       1.0  0.00558  0.14955  0.25820  1.0000
  H   H52       1.0  0.16733  0.06769  0.99698  1.0000
  Fe  Fe5       1.0  0.00337  0.45037  0.40588  1.0000
  H   H53       1.0  0.17227  0.00458  0.35560  1.0000
  C   C39       1.0  0.12307  0.00137  0.34606  1.0000
  H   H54       1.0  0.30814  0.49122  0.48974  1.0000
  H   H55       1.0  0.13766  0.00507  0.27872  1.0000
  C   C40       1.0  0.21208  0.48602  0.99870  1.0000
  Fe  Fe6       1.0  0.15691  0.38851  0.86366  1.0000
  S   S9        1.0  0.16942  0.41957  0.81792  1.0000
  S   S10       1.0  0.14540  0.33575  0.84585  1.0000
  Fe  Fe7       1.0  0.16401  0.44796  0.91803  1.0000
  H   H56       1.0  0.16812  0.31305  0.90887  1.0000
  Fe  Fe8       1.0  0.15219  0.46587  0.84039  1.0000
  N   N4        1.0  0.31215  0.12281  0.56417  1.0000
  Fe  Fe9       1.0  0.19328  0.43362  0.85569  1.0000
  S   S11       1.0  0.22583  0.42164  0.84651  1.0000
  S   S12       1.0  0.13808  0.43373  0.88400  1.0000
  S   S13       1.0  0.18152  0.39982  0.90048  1.0000
  Fe  Fe10      1.0  0.16516  0.13064  0.87978  1.0000
  S   S14       1.0  0.16062  0.11818  0.82141  1.0000
  S   S15       1.0  0.17306  0.18381  0.90305  1.0000
  Fe  Fe11      1.0  0.16352  0.05335  0.90367  1.0000
  S   S16       1.0  0.15920  0.03515  0.84652  1.0000
  H   H57       1.0  0.28337  0.14201  0.57776  1.0000
  Fe  Fe12      1.0  0.18227  0.07353  0.83072  1.0000
  S   S17       1.0  0.20409  0.05743  0.78679  1.0000
  Fe  Fe13      1.0  0.13781  0.08052  0.84103  1.0000
  S   S18       1.0  0.10851  0.07994  0.81134  1.0000
  S   S19       1.0  0.18832  0.08799  0.88794  1.0000
  S   S20       1.0  0.14067  0.09679  0.89926  1.0000
  H   H58       1.0  0.06111  0.29750  0.76299  1.0000
  Fe  Fe14      1.0  0.31743  0.44186  0.71156  1.0000
  C   C41       1.0  0.18723  0.32117  0.78775  1.0000
  S   S21       1.0  0.28451  0.45091  0.71620  1.0000
  Fe  Fe15      1.0  0.31709  0.08683  0.73675  1.0000
  S   S22       1.0  0.31206  0.10015  0.67860  1.0000
  S   S23       1.0  0.29427  0.09393  0.78152  1.0000
  C   C42       1.0  0.02531  0.00712  0.52967  1.0000
  C   C43       1.0  0.21939  0.34371  0.78394  1.0000
  H   H59       1.0  0.30086  0.43551  0.59768  1.0000
  H   H60       1.0  0.29035  0.42210  0.78910  1.0000
  H   H61       1.0  0.27114  0.02814  0.87302  1.0000
  H   H62       1.0  0.18100  0.34858  0.78813  1.0000
  C   C44       1.0  0.07354  0.34554  0.78220  1.0000
  C   C45       1.0  0.23199  0.02222  0.93051  1.0000
  S   S24       1.0  0.17735  0.48286  0.87544  1.0000
  C   C46       1.0  0.08024  0.28737  0.80767  1.0000
  C   C47       1.0  0.22886  0.06970  0.78478  1.0000
  C   C48       1.0  0.24044  0.05829  0.75559  1.0000
  C   C49       1.0  0.26037  0.06607  0.75371  1.0000
  C   C50       1.0  0.26900  0.08510  0.78126  1.0000
  C   C51       1.0  0.25736  0.09680  0.81030  1.0000
  C   C52       1.0  0.23739  0.08939  0.81196  1.0000
  H   H63       1.0  0.23404  0.04298  0.73445  1.0000
  H   H64       1.0  0.26913  0.05675  0.73131  1.0000
  C   C53       1.0  0.30065  0.27542  0.78218  1.0000
  H   H65       1.0  0.22006  0.33751  0.75473  1.0000
  C   C54       1.0  0.10027  0.02330  0.69876  1.0000
  H   H66       1.0  0.29342  0.11000  0.60890  1.0000
  H   H67       1.0  0.28920  0.17440  0.77839  1.0000
  C   C55       1.0  0.09421  0.04464  0.79533  1.0000
  H   H68       1.0  0.31735  0.07925  0.52778  1.0000
  H   H69       1.0  0.29008  0.32769  0.73736  1.0000
  H   H70       1.0  0.28568  0.43297  0.63616  1.0000
  H   H71       1.0  0.23035  0.18169  0.80099  1.0000
  H   H72       1.0  0.26389  0.11138  0.83185  1.0000
  C   C56       1.0  0.24182  0.43031  0.80989  1.0000
  C   C57       1.0  0.26174  0.42169  0.81370  1.0000
  C   C58       1.0  0.27502  0.42791  0.78545  1.0000
  C   C59       1.0  0.26848  0.44252  0.75282  1.0000
  C   C60       1.0  0.24852  0.45065  0.74881  1.0000
  C   C61       1.0  0.23525  0.44468  0.77716  1.0000
  H   H73       1.0  0.27469  0.21172  0.82633  1.0000
  N   N5        1.0  0.30661  0.31266  0.78457  1.0000
  C   C62       1.0  0.24212  0.03520  0.99315  1.0000
  H   H74       1.0  0.22000  0.45149  0.77379  1.0000
  C   C63       1.0  0.33072  0.11523  0.58313  1.0000
  C   C64       1.0  0.11760  0.03516  0.71334  1.0000
  C   C65       1.0  0.31982  0.18614  0.55118  1.0000
  H   H75       1.0  0.21373  0.37153  0.78574  1.0000
  H   H76       1.0  0.25060  0.47418  0.61291  1.0000
  C   C66       1.0  0.15229  0.29373  0.86351  1.0000
  C   C67       1.0  0.14656  0.26337  0.84522  1.0000
  C   C68       1.0  0.15253  0.22945  0.85728  1.0000
  C   C69       1.0  0.16424  0.22563  0.88786  1.0000
  C   C70       1.0  0.16976  0.25601  0.90636  1.0000
  C   C71       1.0  0.16378  0.28992  0.89434  1.0000
  H   H77       1.0  0.13764  0.26606  0.82137  1.0000
  H   H78       1.0  0.14819  0.20627  0.84283  1.0000
  H   H79       1.0  0.17876  0.25325  0.93012  1.0000
  H   H80       1.0  0.22872  0.09815  0.83470  1.0000
  N   N6        1.0  0.08991  0.39960  0.80767  1.0000
  C   C72       1.0  0.07886  0.42015  0.77989  1.0000
  C   C73       1.0  0.08464  0.41450  0.84336  1.0000
  C   C74       1.0  0.11088  0.40503  0.80097  1.0000
  C   C75       1.0  0.08609  0.36131  0.80749  1.0000
  C   C76       1.0  0.09528  0.33843  0.83305  1.0000
  C   C77       1.0  0.09251  0.30205  0.83289  1.0000
  H   H81       1.0  0.08215  0.44875  0.78072  1.0000
  C   C78       1.0  0.33310  0.01350  0.57463  1.0000
  H   H82       1.0  0.06288  0.41839  0.78399  1.0000
  H   H83       1.0  0.08631  0.44359  0.84392  1.0000
  H   H84       1.0  0.09402  0.40368  0.86536  1.0000
  H   H85       1.0  0.06928  0.40903  0.85040  1.0000
  H   H86       1.0  0.11564  0.39316  0.77498  1.0000
  H   H87       1.0  0.14093  0.06112  0.76871  1.0000
  H   H88       1.0  0.14807  0.08064  0.72625  1.0000
  H   H89       1.0  0.10498  0.34844  0.85317  1.0000
  H   H90       1.0  0.10012  0.28517  0.85231  1.0000
  C   C79       1.0  0.23005  0.27000  0.78224  1.0000
  H   H91       1.0  0.18753  0.31202  0.75936  1.0000
  N   N7        1.0  0.22589  0.02713  0.96851  1.0000
  H   H92       1.0  0.31850  0.26288  0.73507  1.0000
  C   C80       1.0  0.21150  0.05687  0.97058  1.0000
  H   H93       1.0  0.21733  0.08145  0.95857  1.0000
  H   H94       1.0  0.32916  0.30147  0.82348  1.0000
  H   H95       1.0  0.00314  0.36064  0.60710  1.0000
  C   C81       1.0  0.21024  0.22014  0.82320  1.0000
  C   C82       1.0  0.20553  0.33186  0.84172  1.0000
  H   H96       1.0  0.26282  0.03500  0.93622  1.0000
  H   H97       1.0  0.12021  0.39298  0.82233  1.0000
  H   H98       1.0  0.23435  0.34375  0.79524  1.0000
  H   H99       1.0  0.26412  0.47794  0.65369  1.0000
  C   C83       1.0  0.30430  0.21723  0.75356  1.0000
  H   H100      1.0  0.11436  0.43355  0.80006  1.0000
  C   C84       1.0  0.07581  0.05254  0.78029  1.0000
  C   C85       1.0  0.32719  0.31316  0.79611  1.0000
  C   C86       1.0  0.31480  0.15235  0.53845  1.0000
  C   C87       1.0  0.28403  0.22355  0.80625  1.0000
  H   H101      1.0  0.17669  0.30462  0.80247  1.0000
  H   H102      1.0  0.24327  0.46205  0.72376  1.0000
  H   H103      1.0  0.07038  0.07959  0.77997  1.0000
  H   H104      1.0  0.32183  0.19083  0.57964  1.0000
  H   H105      1.0  0.21974  0.32897  0.85578  1.0000
  H   H106      1.0  0.17224  0.00738  0.77372  1.0000
  H   H107      1.0  0.32958  0.09232  0.60188  1.0000
  H   H108      1.0  0.23823  0.28776  0.76561  1.0000
  C   C88       1.0  0.30854  0.25307  0.75500  1.0000
  C   C89       1.0  0.06440  0.02585  0.76538  1.0000
  H   H109      1.0  0.29937  0.36197  0.81092  1.0000
  C   C90       1.0  0.29492  0.33390  0.81071  1.0000
  H   H110      1.0  0.31083  0.20067  0.73276  1.0000
  C   C91       1.0  0.26302  0.48776  0.62534  1.0000
  H   H111      1.0  0.33285  0.34046  0.79627  1.0000
  C   C92       1.0  0.28812  0.25954  0.80783  1.0000
  C   C93       1.0  0.22594  0.20940  0.80185  1.0000
  H   H112      1.0  0.20243  0.20081  0.83904  1.0000
  S   S25       1.0  0.32639  0.40156  0.67020  1.0000
  H   H113      1.0  0.06578  0.36073  0.76189  1.0000
  N   N8        1.0  0.15314  0.02420  0.73045  1.0000
  C   C94       1.0  0.07070  0.30908  0.78250  1.0000
  H   H114      1.0  0.07816  0.25910  0.80765  1.0000
  C   C95       1.0  0.00440  0.32031  0.52545  1.0000
  C   C96       1.0  0.29703  0.13272  0.59112  1.0000
  C   C97       1.0  0.29213  0.20243  0.77923  1.0000
  C   C98       1.0  0.23578  0.23425  0.78135  1.0000
  H   H115      1.0  0.26699  0.41081  0.83900  1.0000
  C   C99       1.0  0.10097  0.00948  0.79558  1.0000
  N   N9        1.0  0.20685  0.31901  0.80410  1.0000
  H   H116      1.0  0.19174  0.26240  0.84027  1.0000
  C   C100      1.0  0.30482  0.33066  0.74893  1.0000
  H   H117      1.0  0.16591  0.06751  0.75867  1.0000
  C   C101      1.0  0.16874  0.02453  0.70285  1.0000
  H   H118      1.0  0.29206  0.09317  0.53250  1.0000
  H   H119      1.0  0.08271  0.41137  0.75218  1.0000
  H   H120      1.0  0.30178  0.15395  0.60945  1.0000
  C   C102      1.0  0.32258  0.21446  0.52755  1.0000
  H   H121      1.0  0.28154  0.27414  0.82973  1.0000
  H   H122      1.0  0.27918  0.33400  0.80391  1.0000
  C   C103      1.0  0.22342  0.00922  0.86784  1.0000
  H   H123      1.0  0.20309  0.00953  0.91094  1.0000
  H   H124      1.0  0.30759  0.35946  0.75067  1.0000
  H   H125      1.0  0.31565  0.32053  0.72905  1.0000
  C   C104      1.0  0.20429  0.25567  0.82397  1.0000
  C   C105      1.0  0.28599  0.44248  0.60766  1.0000
  H   H126      1.0  0.05040  0.03250  0.75367  1.0000
  C   C106      1.0  0.29695  0.50032  0.62295  1.0000
  H   H127      1.0  0.24642  0.01174  0.82869  1.0000
  C   C107      1.0  0.01904  0.37766  0.52203  1.0000
  H   H128      1.0  0.33540  0.13774  0.59971  1.0000
  H   H129      1.0  0.20110  0.36028  0.84270  1.0000
  H   H130      1.0  0.19792  0.05119  0.95594  1.0000
  C   C108      1.0  0.13469  0.01320  0.71400  1.0000
  H   H131      1.0  0.18271  0.03356  0.71442  1.0000
  C   C109      1.0  0.21402  0.28179  0.80368  1.0000
  S   S26       1.0  0.16505  0.00893  0.94594  1.0000
  H   H132      1.0  0.24782  0.22561  0.76439  1.0000
  C   C110      1.0  0.30612  0.08957  0.54690  1.0000
  H   H133      1.0  0.11693  0.06112  0.72518  1.0000
  S   S27       1.0  0.16367  0.45382  0.97970  1.0000
  H   H134      1.0  0.29698  0.32425  0.83886  1.0000
  N   N10       1.0  0.28134  0.48093  0.60495  1.0000
  H   H135      1.0  0.32678  0.26127  0.63480  1.0000
  S   S28       1.0  0.33562  0.48430  0.68658  1.0000
  C   C111      1.0  0.01415  0.02271  0.50176  1.0000
  H   H136      1.0  0.19452  0.31798  0.85794  1.0000
  H   H137      1.0  0.16475  0.04266  0.68016  1.0000
  H   H138      1.0  0.30409  0.06806  0.56716  1.0000
  C   C112      1.0  0.15187  0.05993  0.74660  1.0000
  H   H139      1.0  0.20952  0.47475  0.97239  1.0000
  H   H140      1.0  0.27546  0.42696  0.59206  1.0000
  H   H141      1.0  0.21250  0.00308  0.84797  1.0000
  C   C113      1.0  0.00619  0.35650  0.57875  1.0000
  S   S29       1.0  0.32606  0.01829  0.62073  1.0000
  S   S30       1.0  0.33320  0.18878  0.65537  1.0000
  C   C114      1.0  0.28023  0.49223  0.56668  1.0000
  C   C115      1.0  0.16635  0.01111  0.99379  1.0000
  C   C116      1.0  0.01403  0.34598  0.50436  1.0000
  H   H142      1.0  0.02554  0.39949  0.50800  1.0000
  H   H143      1.0  0.01909  0.40712  0.57144  1.0000
  H   H144      1.0  0.08722  0.03995  0.69980  1.0000
  H   H145      1.0  0.24882  0.06072  0.98586  1.0000
  C   C117      1.0  0.31289  0.14859  0.50053  1.0000
  H   H146      1.0  0.32650  0.23993  0.53807  1.0000
  Fe  Fe16      1.0  0.33406  0.05694  0.66552  1.0000
  C   C118      1.0  0.01525  0.38257  0.55870  1.0000
  H   H147      1.0  0.30878  0.47039  0.55204  1.0000
  C   C119      1.0  0.33578  0.26088  0.65863  1.0000
  H   H148      1.0  0.29752  0.49417  0.65234  1.0000
  H   H149      1.0  0.25350  0.01379  0.99299  1.0000
  C   C120      1.0  0.24250  0.01422  0.85691  1.0000
  C   C121      1.0  0.25135  0.02745  0.91837  1.0000
  C   C122      1.0  0.25641  0.02347  0.88204  1.0000
  C   C123      1.0  0.21819  0.01307  0.90403  1.0000
  H   H150      1.0  0.04053  0.00090  0.52503  1.0000
  S   S31       1.0  0.13621  0.49870  0.79676  1.0000
  C   C124      1.0  0.29599  0.48490  0.54295  1.0000
  H   H151      1.0  0.31154  0.49341  0.61167  1.0000
  H   H152      1.0  0.11493  0.00282  0.80736  1.0000
  C   C125      1.0  0.29577  0.49671  0.50718  1.0000
  Fe  Fe17      1.0  0.16131  0.63727  0.21462  1.0000
  S   S32       1.0  0.17128  0.59487  0.25403  1.0000
  S   S33       1.0  0.15604  0.69279  0.23658  1.0000
  Fe  Fe18      1.0  0.16058  0.58500  0.15155  1.0000
  S   S34       1.0  0.17086  0.53984  0.18639  1.0000
  S   S35       1.0  0.15410  0.58141  0.09125  1.0000
  Fe  Fe19      1.0  0.14908  0.56071  0.22731  1.0000
  H   H153      1.0  0.14975  0.57800  0.01441  1.0000
  Fe  Fe20      1.0  0.19197  0.57790  0.21018  1.0000
  S   S36       1.0  0.22470  0.56559  0.21232  1.0000
  S   S37       1.0  0.13770  0.60436  0.19101  1.0000
  S   S38       1.0  0.18308  0.62201  0.17216  1.0000
  Fe  Fe21      1.0  0.14348  0.94612  0.21777  1.0000
  S   S39       1.0  0.14974  0.92873  0.16064  1.0000
  S   S40       1.0  0.11369  0.94402  0.24539  1.0000
  Fe  Fe22      1.0  0.18708  0.95084  0.23592  1.0000
  S   S41       1.0  0.19653  0.93473  0.18039  1.0000
  S   S42       1.0  0.20533  0.95782  0.28642  1.0000
  Fe  Fe23      1.0  0.17223  0.97082  0.16008  1.0000
  S   S43       1.0  0.13123  0.51877  0.25671  1.0000
  Fe  Fe24      1.0  0.17345  0.89381  0.18491  1.0000
  S   S44       1.0  0.18151  0.83829  0.16594  1.0000
  C   C126      1.0  0.06646  0.50893  0.28955  1.0000
  S   S45       1.0  0.16553  0.90767  0.24155  1.0000
  H   H154      1.0  0.10555  0.55045  0.14267  1.0000
  Fe  Fe25      1.0  0.31894  0.95225  0.33559  1.0000
  S   S46       1.0  0.29794  0.96593  0.28957  1.0000
  S   S47       1.0  0.31367  0.93502  0.39289  1.0000
  H   H155      1.0  0.14000  0.94626  0.30750  1.0000
  Fe  Fe26      1.0  0.31292  0.57852  0.35451  1.0000
  S   S48       1.0  0.27987  0.57621  0.34999  1.0000
  S   S49       1.0  0.32249  0.61984  0.39343  1.0000
  C   C127      1.0  0.10308  0.74403  0.20054  1.0000
  C   C128      1.0  0.11726  0.72985  0.17764  1.0000
  C   C129      1.0  0.23115  0.95868  0.28676  1.0000
  C   C130      1.0  0.24200  0.95988  0.25489  1.0000
  H   H156      1.0  0.23464  0.96049  0.22919  1.0000
  C   C131      1.0  0.27228  0.96151  0.28946  1.0000
  C   C132      1.0  0.26145  0.95958  0.32132  1.0000
  C   C133      1.0  0.24099  0.95837  0.31994  1.0000
  H   H157      1.0  0.05369  0.99036  0.30227  1.0000
  N   N11       1.0  0.14358  0.99574  0.33470  1.0000
  H   H158      1.0  0.26880  0.95980  0.34704  1.0000
  C   C134      1.0  0.24068  0.53160  0.11314  1.0000
  N   N12       1.0  0.21969  0.52829  0.10539  1.0000
  H   H159      1.0  0.21636  0.58394  0.09288  1.0000
  C   C135      1.0  0.08006  0.97050  0.27656  1.0000
  C   C136      1.0  0.22393  0.68287  0.27418  1.0000
  C   C137      1.0  0.22647  0.70535  0.30320  1.0000
  C   C138      1.0  0.23983  0.56916  0.25085  1.0000
  C   C139      1.0  0.23219  0.57572  0.28516  1.0000
  C   C140      1.0  0.24468  0.57790  0.31507  1.0000
  C   C141      1.0  0.26495  0.57383  0.31109  1.0000
  C   C142      1.0  0.27264  0.56790  0.27667  1.0000
  C   C143      1.0  0.26012  0.56543  0.24677  1.0000
  H   H160      1.0  0.21663  0.57873  0.28877  1.0000
  S   S50       1.0  0.04117  0.50487  0.29958  1.0000
  H   H161      1.0  0.28818  0.56455  0.27319  1.0000
  H   H162      1.0  0.26621  0.56034  0.22038  1.0000
  H   H163      1.0  0.29816  0.67403  0.28147  1.0000
  C   C144      1.0  0.09214  0.54140  0.25826  1.0000
  C   C145      1.0  0.07244  0.53759  0.26813  1.0000
  N   N13       1.0  0.27982  0.68848  0.32661  1.0000
  H   H164      1.0  0.30957  0.66871  0.32438  1.0000
  C   C146      1.0  0.32978  0.76330  0.39631  1.0000
  H   H165      1.0  0.09637  0.56355  0.24178  1.0000
  H   H166      1.0  0.06169  0.55691  0.25890  1.0000
  H   H167      1.0  0.23739  0.64431  0.23949  1.0000
  H   H168      1.0  0.21208  0.51416  0.16006  1.0000
  C   C147      1.0  0.16434  0.73266  0.21744  1.0000
  C   C148      1.0  0.17422  0.73349  0.18449  1.0000
  C   C149      1.0  0.17953  0.76605  0.16927  1.0000
  C   C150      1.0  0.17516  0.79799  0.18691  1.0000
  C   C151      1.0  0.16601  0.79705  0.22055  1.0000
  C   C152      1.0  0.16046  0.76456  0.23553  1.0000
  H   H169      1.0  0.17734  0.70913  0.17034  1.0000
  H   H170      1.0  0.18677  0.76647  0.14336  1.0000
  H   H171      1.0  0.16307  0.82128  0.23493  1.0000
  H   H172      1.0  0.15294  0.76408  0.26115  1.0000
  C   C153      1.0  0.10622  0.51644  0.26960  1.0000
  C   C154      1.0  0.23956  0.66233  0.26164  1.0000
  C   C155      1.0  0.26087  0.68653  0.30790  1.0000
  H   H173      1.0  0.24865  0.50573  0.11242  1.0000
  H   H174      1.0  0.24578  0.72457  0.34269  1.0000
  C   C156      1.0  0.25776  0.66386  0.27819  1.0000
  C   C157      1.0  0.15666  0.54547  0.06077  1.0000
  H   H175      1.0  0.13058  0.53765  0.14245  1.0000
  C   C158      1.0  0.16700  0.97945  0.01392  1.0000
  H   H176      1.0  0.23856  0.58253  0.34154  1.0000
  H   H177      1.0  0.11711  0.53785  0.18419  1.0000
  H   H178      1.0  0.19423  0.56273  0.10652  1.0000
  C   C159      1.0  0.33500  0.73025  0.38146  1.0000
  H   H179      1.0  0.27063  0.96333  0.23149  1.0000
  C   C160      1.0  0.15361  0.55163  0.02375  1.0000
  H   H180      1.0  0.20974  0.68086  0.26175  1.0000
  C   C161      1.0  0.33485  0.79494  0.37903  1.0000
  H   H181      1.0  0.24306  0.54263  0.14054  1.0000
  H   H182      1.0  0.07727  0.94326  0.28320  1.0000
  H   H183      1.0  0.09474  0.72647  0.21739  1.0000
  H   H184      1.0  0.17003  0.95508  0.06669  1.0000
  C   C162      1.0  0.12837  0.75215  0.15650  1.0000
  C   C163      1.0  0.20742  0.53408  0.04074  1.0000
  H   H185      1.0  0.12902  0.84287  0.23001  1.0000
  H   H186      1.0  0.26899  0.64633  0.26769  1.0000
  N   N14       1.0  0.23043  0.84465  0.23959  1.0000
  C   C164      1.0  0.22714  0.80693  0.23155  1.0000
  C   C165      1.0  0.21192  0.85972  0.25422  1.0000
  C   C166      1.0  0.23457  0.86353  0.20540  1.0000
  C   C167      1.0  0.24713  0.84783  0.26438  1.0000
  C   C168      1.0  0.26558  0.83263  0.25529  1.0000
  C   C169      1.0  0.24588  0.86662  0.29738  1.0000
  C   C170      1.0  0.28163  0.83558  0.27806  1.0000
  C   C171      1.0  0.26203  0.86932  0.31993  1.0000
  C   C172      1.0  0.27985  0.85388  0.31034  1.0000
  H   H187      1.0  0.22472  0.79149  0.25673  1.0000
  H   H188      1.0  0.21415  0.80375  0.21408  1.0000
  H   H189      1.0  0.23944  0.79423  0.21674  1.0000
  H   H190      1.0  0.20794  0.84703  0.28024  1.0000
  H   H191      1.0  0.19958  0.85584  0.23545  1.0000
  H   H192      1.0  0.21272  0.88872  0.25818  1.0000
  H   H193      1.0  0.24746  0.85216  0.19118  1.0000
  H   H194      1.0  0.22212  0.86240  0.18626  1.0000
  H   H195      1.0  0.23736  0.89192  0.21042  1.0000
  H   H196      1.0  0.26780  0.81883  0.23021  1.0000
  H   H197      1.0  0.23270  0.88009  0.30619  1.0000
  H   H198      1.0  0.29565  0.82413  0.27049  1.0000
  H   H199      1.0  0.26084  0.88420  0.34474  1.0000
  H   H200      1.0  0.29237  0.85655  0.32779  1.0000
  N   N15       1.0  0.10947  0.84304  0.18504  1.0000
  C   C173      1.0  0.09230  0.85519  0.20644  1.0000
  C   C174      1.0  0.12703  0.85571  0.20316  1.0000
  C   C175      1.0  0.10792  0.86013  0.14895  1.0000
  C   C176      1.0  0.11128  0.80417  0.18163  1.0000
  H   H201      1.0  0.13552  0.80480  0.14337  1.0000
  C   C177      1.0  0.10000  0.78063  0.20255  1.0000
  S   S51       1.0  0.16449  0.99035  0.21596  1.0000
  H   H202      1.0  0.20097  0.56001  0.04498  1.0000
  H   H203      1.0  0.32197  0.76440  0.42164  1.0000
  H   H204      1.0  0.09341  0.84657  0.23510  1.0000
  H   H205      1.0  0.09102  0.88462  0.20734  1.0000
  H   H206      1.0  0.07855  0.84559  0.19478  1.0000
  H   H207      1.0  0.21172  0.99763  0.01079  1.0000
  H   H208      1.0  0.12611  0.88464  0.20748  1.0000
  H   H209      1.0  0.14041  0.85024  0.18710  1.0000
  H   H210      1.0  0.10532  0.88922  0.15100  1.0000
  H   H211      1.0  0.12146  0.85693  0.13278  1.0000
  H   H212      1.0  0.09579  0.84912  0.13319  1.0000
  H   H213      1.0  0.23275  0.95749  0.34476  1.0000
  H   H214      1.0  0.08899  0.78975  0.22126  1.0000
  H   H215      1.0  0.16378  0.50595  0.10073  1.0000
  H   H216      1.0  0.14790  0.94215  0.35393  1.0000
  C   C178      1.0  0.12568  0.78874  0.15875  1.0000
  C   C179      1.0  0.27760  0.67649  0.36449  1.0000
  C   C180      1.0  0.28648  0.72545  0.32643  1.0000
  H   H217      1.0  0.27218  0.64903  0.36574  1.0000
  H   H218      1.0  0.29166  0.67660  0.37926  1.0000
  H   H219      1.0  0.26723  0.69344  0.37997  1.0000
  H   H220      1.0  0.28730  0.73610  0.29847  1.0000
  H   H221      1.0  0.27683  0.74340  0.34235  1.0000
  H   H222      1.0  0.12003  0.70153  0.17701  1.0000
  H   H223      1.0  0.29203  0.63775  0.31107  1.0000
  C   C181      1.0  0.11033  0.97310  0.35281  1.0000
  H   H224      1.0  0.21414  0.72077  0.31325  1.0000
  S   S52       1.0  0.33403  0.59493  0.31196  1.0000
  H   H225      1.0  0.30121  0.72744  0.33852  1.0000
  C   C182      1.0  0.29549  0.66628  0.30997  1.0000
  H   H226      1.0  0.13969  0.74099  0.13935  1.0000
  C   C183      1.0  0.21714  0.51450  0.06851  1.0000
  C   C184      1.0  0.24463  0.70726  0.31985  1.0000
  C   C185      1.0  0.11631  0.53164  0.15494  1.0000
  H   H227      1.0  0.16452  0.95487  0.31945  1.0000
  H   H228      1.0  0.15395  0.99664  0.38923  1.0000
  H   H229      1.0  0.07546  0.52592  0.13723  1.0000
  C   C186      1.0  0.14915  0.95805  0.32877  1.0000
  C   C187      1.0  0.16945  0.97965  0.05167  1.0000
  C   C188      1.0  0.09118  0.97947  0.36430  1.0000
  C   C189      1.0  0.02083  0.93364  0.48277  1.0000
  Fe  Fe27      1.0  0.33553  0.89112  0.38023  1.0000
  H   H230      1.0  0.21230  0.57302  0.13892  1.0000
  H   H231      1.0  0.24765  0.54938  0.09322  1.0000
  C   C190      1.0  0.26243  0.96156  0.25628  1.0000
  C   C191      1.0  0.16156  0.51119  0.07241  1.0000
  C   C192      1.0  0.09705  0.97881  0.25746  1.0000
  C   C193      1.0  0.21021  0.56350  0.11095  1.0000
  H   H232      1.0  0.03439  0.94188  0.47081  1.0000
  H   H233      1.0  0.31801  0.99067  0.21507  1.0000
  C   C194      1.0  0.20512  0.51995  0.00637  1.0000
  S   S53       1.0  0.32786  0.83574  0.39903  1.0000
  H   H234      1.0  0.33121  0.70618  0.39535  1.0000
  H   H235      1.0  0.11462  0.94583  0.34875  1.0000
  S   S54       1.0  0.33313  0.53607  0.37745  1.0000
  H   H236      1.0  0.08155  0.95765  0.36860  1.0000
  H   H237      1.0  0.04494  0.51687  0.16939  1.0000
  C   C195      1.0  0.15558  0.52401  0.99854  1.0000
  H   H238      1.0  0.01248  0.52344  0.46911  1.0000
  C   C196      1.0  0.21127  0.50367  0.13214  1.0000
  C   C197      1.0  0.06664  0.99718  0.28750  1.0000
  H   H239      1.0  0.09840  0.50591  0.09763  1.0000
  C   C198      1.0  0.07539  0.50644  0.15862  1.0000
  H   H240      1.0  0.16572  0.95455  0.00018  1.0000
  H   H241      1.0  0.27987  0.52546  0.46619  1.0000
  C   C199      1.0  0.27986  0.51608  0.49389  1.0000
  H   H242      1.0  0.33606  0.98317  0.18051  1.0000
  H   H243      1.0  0.33534  0.95574  0.25863  1.0000
  H   H244      1.0  0.00349  0.96069  0.44259  1.0000
  C   C200      1.0  0.00337  0.94439  0.46677  1.0000
  C   C201      1.0  0.05783  0.50143  0.17675  1.0000
  C   C202      1.0  0.33189  0.00047  0.20352  1.0000
  C   C203      1.0  0.00812  0.51579  0.49601  1.0000
  S   S55       1.0  0.05862  0.95655  0.74293  1.0000
  S   S56       1.0  0.02442  0.59706  0.68614  1.0000
  C   C204      1.0  0.32711  0.98700  0.51555  1.0000
  Fe  Fe28      1.0  0.02361  0.55486  0.72927  1.0000
  S   S57       1.0  0.04591  0.53710  0.77243  1.0000
  C   C205      1.0  0.07295  0.70666  0.78766  1.0000
  S   S58       1.0  0.02236  0.92884  0.66790  1.0000
  C   C206      1.0  0.01697  0.99945  0.56351  1.0000
  S   S59       1.0  0.00690  0.56199  0.59518  1.0000
  Fe  Fe29      1.0  0.02719  0.95276  0.72268  1.0000
  C   C207      1.0  0.11105  0.50936  0.79052  1.0000
  H   H245      1.0  0.19722  0.53488  0.98583  1.0000
  H   H246      1.0  0.06776  0.51691  0.83510  1.0000
  C   C208      1.0  0.06016  0.68569  0.76737  1.0000
  C   C209      1.0  0.02088  0.91407  0.51491  1.0000
  C   C210      1.0  0.00446  0.53033  0.56020  1.0000
  H   H247      1.0  0.00310  0.76924  0.63877  1.0000
  H   H248      1.0  0.25174  0.53882  0.50582  1.0000
  C   C211      1.0  0.04808  0.74040  0.73809  1.0000
  H   H249      1.0  0.02580  0.98770  0.58471  1.0000
  C   C212      1.0  0.07308  0.74339  0.78324  1.0000
  H   H250      1.0  0.29468  0.52938  0.61987  1.0000
  H   H251      1.0  0.03065  0.89901  0.58699  1.0000
  C   C213      1.0  0.08972  0.98288  0.78009  1.0000
  C   C214      1.0  0.00977  0.53972  0.52477  1.0000
  C   C215      1.0  0.32290  0.99020  0.55269  1.0000
  H   H252      1.0  0.15328  0.52925  0.97016  1.0000
  C   C216      1.0  0.06525  0.62962  0.73758  1.0000
  H   H253      1.0  0.02900  0.64179  0.75743  1.0000
  H   H254      1.0  0.11454  0.52002  0.73377  1.0000
  C   C217      1.0  0.11583  0.96743  0.68456  1.0000
  H   H255      1.0  0.31894  0.96922  0.49910  1.0000
  H   H256      1.0  0.01536  0.56570  0.51959  1.0000
  C   C218      1.0  0.26416  0.51204  0.55225  1.0000
  H   H257      1.0  0.08293  0.69539  0.80724  1.0000
  C   C219      1.0  0.07791  0.51742  0.81280  1.0000
  C   C220      1.0  0.26406  0.52361  0.51633  1.0000
  H   H258      1.0  0.22706  0.97151  0.98107  1.0000
  C   C221      1.0  0.00320  0.90458  0.53194  1.0000
  H   H259      1.0  0.06413  0.60035  0.73940  1.0000
  H   H260      1.0  0.11490  0.94091  0.67412  1.0000
  C   C222      1.0  0.07113  0.52674  0.77816  1.0000
  C   C223      1.0  0.04786  0.70373  0.74222  1.0000
  H   H261      1.0  0.06063  0.78871  0.75547  1.0000
  H   H262      1.0  0.08055  0.63559  0.73054  1.0000
  H   H263      1.0  0.03317  0.65255  0.80361  1.0000
  H   H264      1.0  0.03833  0.75356  0.71903  1.0000
  C   C224      1.0  0.10433  0.51919  0.75597  1.0000
  H   H265      1.0  0.09530  0.95594  0.77979  1.0000
  H   H266      1.0  0.03494  0.90751  0.52621  1.0000
  H   H267      1.0  0.07063  0.60286  0.80329  1.0000
  C   C225      1.0  0.13334  0.97917  0.69857  1.0000
  H   H268      1.0  0.08759  0.63665  0.79511  1.0000
  C   C226      1.0  0.03902  0.63713  0.78042  1.0000
  S   S60       1.0  0.00674  0.91560  0.75064  1.0000
  H   H269      1.0  0.05608  0.63843  0.71448  1.0000
  C   C227      1.0  0.02209  0.87517  0.58118  1.0000
  H   H270      1.0  0.31149  0.97468  0.56445  1.0000
  C   C228      1.0  0.06062  0.76022  0.75863  1.0000
  H   H271      1.0  0.03795  0.60864  0.78739  1.0000
  H   H272      1.0  0.03778  0.68962  0.72571  1.0000
  H   H273      1.0  0.06800  0.64340  0.82742  1.0000
  H   H274      1.0  0.07958  0.53476  0.72292  1.0000
  C   C229      1.0  0.08449  0.52766  0.74973  1.0000
  N   N16       1.0  0.05925  0.64687  0.77171  1.0000
  C   C230      1.0  0.07196  0.63209  0.80073  1.0000
  H   H275      1.0  0.02105  0.86047  0.60726  1.0000
  H   H276      1.0  0.03046  0.85776  0.56242  1.0000
  H   H277      1.0  0.14571  0.96105  0.69802  1.0000
  C   C231      1.0  0.21678  0.99461  0.98238  1.0000
  H   H278      1.0  0.10271  0.50201  0.84582  1.0000
  C   C232      1.0  0.09771  0.50875  0.81897  1.0000
  H   H279      1.0  0.16227  0.97203  0.74927  1.0000
  H   H280      1.0  0.08283  0.75900  0.79910  1.0000
  C   C233      1.0  0.07139  0.99083  0.76474  1.0000
  H   H281      1.0  0.20367  0.98764  0.96689  1.0000
  H   H282      1.0  0.25155  0.51923  0.56816  1.0000
  S   S61       1.0  0.00422  0.99529  0.71390  1.0000
  S   S62       1.0  0.00351  0.51975  0.69857  1.0000
  H   H283      1.0  0.25950  0.51651  0.62735  1.0000
  H   H284      1.0  0.08552  0.97982  0.67539  1.0000
  C   C234      1.0  0.15892  0.99894  0.75948  1.0000
  H   H285      1.0  0.17181  0.99795  0.69146  1.0000
  H   H286      1.0  0.14713  0.99670  0.77990  1.0000
  C   C235      1.0  0.09929  0.98938  0.68492  1.0000
  Fe  Fe30      1.0  0.49797  0.40814  0.19664  1.0000
  S   S63       1.0  0.47435  0.44930  0.18616  1.0000
  S   S64       1.0  0.48790  0.35225  0.18320  1.0000
  Fe  Fe31      1.0  0.52695  0.46592  0.21648  1.0000
  N   N17       1.0  0.54899  0.00338  0.12855  1.0000
  Fe  Fe32      1.0  0.48404  0.47594  0.23628  1.0000
  H   H287      1.0  0.40549  0.04045  0.44924  1.0000
  C   C236      1.0  0.57111  0.00431  0.07448  1.0000
  C   C237      1.0  0.50644  0.05357  0.02309  1.0000
  S   S65       1.0  0.50633  0.43291  0.24914  1.0000
  S   S66       1.0  0.52004  0.43793  0.16431  1.0000
  Fe  Fe33      1.0  0.51534  0.05884  0.22410  1.0000
  S   S67       1.0  0.49567  0.09486  0.25694  1.0000
  C   C238      1.0  0.59561  0.04822  0.40940  1.0000
  Fe  Fe34      1.0  0.49672  0.08287  0.15265  1.0000
  S   S68       1.0  0.47571  0.12107  0.18001  1.0000
  H   H288      1.0  0.46258  0.37036  0.05313  1.0000
  Fe  Fe35      1.0  0.50088  0.13685  0.21433  1.0000
  S   S69       1.0  0.50926  0.19270  0.23209  1.0000
  Fe  Fe36      1.0  0.47140  0.07729  0.22111  1.0000
  S   S70       1.0  0.44051  0.07113  0.24396  1.0000
  S   S71       1.0  0.52228  0.10171  0.18440  1.0000
  S   S72       1.0  0.49051  0.03827  0.19095  1.0000
  C   C239      1.0  0.62963  0.06203  0.40874  1.0000
  H   H289      1.0  0.38473  0.08773  0.17691  1.0000
  H   H290      1.0  0.51493  0.07672  0.01798  1.0000
  C   C240      1.0  0.62292  0.41572  0.49383  1.0000
  H   H291      1.0  0.47060  0.42515  0.08457  1.0000
  H   H292      1.0  0.52166  0.42931  0.06684  1.0000
  H   H293      1.0  0.47217  0.34212  0.08750  1.0000
  H   H294      1.0  0.48166  0.33797  0.04264  1.0000
  H   H295      1.0  0.33733  0.05145  0.25093  1.0000
  C   C241      1.0  0.36675  0.04777  0.20053  1.0000
  H   H296      1.0  0.61725  0.37671  0.45387  1.0000
  C   C242      1.0  0.51427  0.42563  0.04155  1.0000
  C   C243      1.0  0.38405  0.06065  0.18638  1.0000
  C   C244      1.0  0.49473  0.30808  0.19626  1.0000
  C   C245      1.0  0.50892  0.30050  0.22232  1.0000
  C   C246      1.0  0.51323  0.26512  0.23258  1.0000
  C   C247      1.0  0.50361  0.23671  0.21683  1.0000
  C   C248      1.0  0.48951  0.24432  0.19057  1.0000
  C   C249      1.0  0.48508  0.27972  0.18051  1.0000
  H   H297      1.0  0.51651  0.32183  0.23477  1.0000
  H   H298      1.0  0.52415  0.25967  0.25293  1.0000
  H   H299      1.0  0.48190  0.22292  0.17827  1.0000
  H   H300      1.0  0.47400  0.28509  0.16047  1.0000
  C   C250      1.0  0.61972  0.00352  0.42348  1.0000
  S   S73       1.0  0.53721  0.01504  0.24173  1.0000
  H   H301      1.0  0.51825  0.38207  0.10151  1.0000
  H   H302      1.0  0.47708  0.39597  0.12152  1.0000
  C   C251      1.0  0.66450  0.01896  0.48637  1.0000
  C   C252      1.0  0.42796  0.03538  0.26403  1.0000
  C   C253      1.0  0.40957  0.04212  0.27964  1.0000
  H   H303      1.0  0.64297  0.48641  0.38968  1.0000
  H   H304      1.0  0.40362  0.06882  0.27960  1.0000
  H   H305      1.0  0.48142  0.01356  0.09029  1.0000
  H   H306      1.0  0.59960  0.47343  0.24953  1.0000
  C   C254      1.0  0.52079  0.44486  0.01182  1.0000
  C   C255      1.0  0.56029  0.01555  0.26355  1.0000
  H   H307      1.0  0.66574  0.02563  0.45816  1.0000
  C   C256      1.0  0.61555  0.02896  0.49525  1.0000
  H   H308      1.0  0.42495  0.00903  0.45801  1.0000
  H   H309      1.0  0.35310  0.02684  0.28082  1.0000
  C   C257      1.0  0.56876  0.04679  0.27467  1.0000
  H   H310      1.0  0.38398  0.03340  0.39777  1.0000
  C   C258      1.0  0.55215  0.04092  0.13724  1.0000
  C   C259      1.0  0.40006  0.00435  0.19757  1.0000
  H   H311      1.0  0.35424  0.06559  0.20099  1.0000
  S   S74       1.0  0.62009  0.01397  0.32065  1.0000
  H   H312      1.0  0.58377  0.03384  0.42316  1.0000
  H   H313      1.0  0.60700  0.10841  0.45317  1.0000
  C   C260      1.0  0.59719  0.01343  0.29818  1.0000
  H   H314      1.0  0.63215  0.05252  0.38076  1.0000
  C   C261      1.0  0.49857  0.04814  0.05770  1.0000
  H   H315      1.0  0.43131  0.10359  0.35695  1.0000
  S   S75       1.0  0.55907  0.46976  0.23247  1.0000
  H   H316      1.0  0.54217  0.05875  0.12141  1.0000
  C   C262      1.0  0.48765  0.01806  0.06392  1.0000
  H   H317      1.0  0.61159  0.41963  0.40527  1.0000
  H   H318      1.0  0.62638  0.45850  0.36685  1.0000
  C   C263      1.0  0.58705  0.04567  0.29191  1.0000
  C   C264      1.0  0.61506  0.42949  0.43165  1.0000
  Fe  Fe37      1.0  0.49692  0.48047  0.15660  1.0000
  C   C265      1.0  0.40071  0.03904  0.18514  1.0000
  C   C266      1.0  0.39875  0.01467  0.29503  1.0000
  H   H319      1.0  0.59340  0.07006  0.30033  1.0000
  N   N18       1.0  0.61452  0.04157  0.42765  1.0000
  H   H320      1.0  0.51590  0.34729  0.06917  1.0000
  H   H321      1.0  0.50281  0.34681  0.11113  1.0000
  H   H322      1.0  0.56722  0.04911  0.13168  1.0000
  C   C267      1.0  0.50778  0.36421  0.08877  1.0000
  C   C268      1.0  0.61307  0.05281  0.46571  1.0000
  H   H323      1.0  0.62563  0.09049  0.40611  1.0000
  N   N19       1.0  0.45169  0.38595  0.29208  1.0000
  C   C269      1.0  0.47021  0.39457  0.30995  1.0000
  C   C270      1.0  0.45218  0.39926  0.25445  1.0000
  C   C271      1.0  0.43581  0.40561  0.31110  1.0000
  C   C272      1.0  0.44938  0.34719  0.29199  1.0000
  C   C273      1.0  0.46360  0.32492  0.27527  1.0000
  C   C274      1.0  0.43315  0.33046  0.30784  1.0000
  C   C275      1.0  0.46180  0.28829  0.27467  1.0000
  C   C276      1.0  0.43149  0.29372  0.30702  1.0000
  C   C277      1.0  0.44579  0.27270  0.29050  1.0000
  H   H324      1.0  0.48312  0.38345  0.29553  1.0000
  H   H325      1.0  0.47226  0.42366  0.31106  1.0000
  H   H326      1.0  0.47069  0.38411  0.33803  1.0000
  H   H327      1.0  0.46484  0.38838  0.23913  1.0000
  H   H328      1.0  0.45325  0.42851  0.25342  1.0000
  H   H329      1.0  0.43886  0.39214  0.23953  1.0000
  H   H330      1.0  0.43479  0.39744  0.33987  1.0000
  H   H331      1.0  0.43827  0.43458  0.31107  1.0000
  H   H332      1.0  0.42151  0.40218  0.29780  1.0000
  H   H333      1.0  0.47622  0.33568  0.26220  1.0000
  H   H334      1.0  0.42150  0.34512  0.32089  1.0000
  H   H335      1.0  0.47287  0.27185  0.26165  1.0000
  H   H336      1.0  0.41900  0.28143  0.31917  1.0000
  H   H337      1.0  0.44448  0.24425  0.28977  1.0000
  H   H338      1.0  0.53310  0.46190  0.01448  1.0000
  H   H339      1.0  0.40932  0.07087  0.39594  1.0000
  H   H340      1.0  0.58230  0.49211  0.41391  1.0000
  C   C278      1.0  0.49815  0.40317  0.03898  1.0000
  H   H341      1.0  0.59607  0.03941  0.38079  1.0000
  N   N20       1.0  0.49129  0.38363  0.07110  1.0000
  H   H342      1.0  0.64376  0.05985  0.42311  1.0000
  S   S76       1.0  0.50288  0.07970  0.09188  1.0000
  H   H343      1.0  0.41431  0.04943  0.17536  1.0000
  H   H344      1.0  0.45785  0.07267  0.32411  1.0000
  S   S77       1.0  0.34631  0.00705  0.45239  1.0000
  H   H345      1.0  0.56121  0.07182  0.27007  1.0000
  C   C279      1.0  0.42088  0.05628  0.38248  1.0000
  H   H346      1.0  0.54956  0.04614  0.16639  1.0000
  C   C280      1.0  0.48273  0.40925  0.09693  1.0000
  C   C281      1.0  0.47628  0.35740  0.06294  1.0000
  H   H347      1.0  0.49354  0.42844  0.10595  1.0000
  C   C282      1.0  0.36574  0.01289  0.21458  1.0000
  H   H348      1.0  0.59134  0.07669  0.40869  1.0000
  H   H349      1.0  0.38467  0.02047  0.30669  1.0000
  H   H350      1.0  0.59155  0.46227  0.38023  1.0000
  C   C283      1.0  0.60924  0.08883  0.47415  1.0000
  C   C284      1.0  0.40999  0.01218  0.44695  1.0000
  C   C285      1.0  0.61826  0.40468  0.45927  1.0000
  C   C286      1.0  0.48859  0.40214  0.00506  1.0000
  C   C287      1.0  0.59243  0.49591  0.26213  1.0000
  C   C288      1.0  0.61650  0.46627  0.43787  1.0000
  C   C289      1.0  0.62788  0.48495  0.37904  1.0000
  C   C290      1.0  0.42294  0.01905  0.38646  1.0000
  H   H351      1.0  0.35055  0.50043  0.46502  1.0000
  C   C291      1.0  0.43849  0.00220  0.36732  1.0000
  C   C292      1.0  0.40654  0.50060  0.26222  1.0000
  C   C293      1.0  0.34132  0.02446  0.26062  1.0000
  C   C294      1.0  0.59363  0.48845  0.39272  1.0000
  N   N21       1.0  0.61340  0.49194  0.40795  1.0000
  H   H352      1.0  0.58270  0.01429  0.09078  1.0000
  H   H353      1.0  0.51795  0.01231  0.12570  1.0000
  H   H354      1.0  0.47595  0.38656  0.00064  1.0000
  C   C295      1.0  0.45108  0.02161  0.34569  1.0000
  C   C296      1.0  0.44848  0.05801  0.34206  1.0000
  S   S78       1.0  0.46503  0.49684  0.28264  1.0000
  H   H355      1.0  0.43252  0.48321  0.23369  1.0000
  C   C297      1.0  0.43343  0.07532  0.36043  1.0000
  H   H356      1.0  0.61884  0.00117  0.49175  1.0000
  C   C298      1.0  0.62116  0.47659  0.47355  1.0000
  C   C299      1.0  0.42678  0.49506  0.25803  1.0000
  C   C300      1.0  0.38911  0.00546  0.39571  1.0000
  H   H357      1.0  0.39684  0.49274  0.24101  1.0000
  H   H358      1.0  0.46255  0.00824  0.33054  1.0000
  H   H359      1.0  0.58905  0.00493  0.02676  1.0000
  Fe  Fe38      1.0  0.64271  0.44156  0.71436  1.0000
  S   S79       1.0  0.63943  0.42056  0.65809  1.0000
  S   S80       1.0  0.61863  0.44469  0.75716  1.0000
  C   C301      1.0  0.34136  0.22836  0.67450  1.0000
  C   C302      1.0  0.60115  0.47949  0.76355  1.0000
  C   C303      1.0  0.35908  0.26018  0.71995  1.0000
  C   C304      1.0  0.34149  0.00744  0.49968  1.0000
  C   C305      1.0  0.64911  0.26161  0.71322  1.0000
  H   H360      1.0  0.44897  0.02743  0.81691  1.0000
  C   C306      1.0  0.50460  0.46450  0.72125  1.0000
  C   C307      1.0  0.41639  0.47639  0.75927  1.0000
  H   H361      1.0  0.57768  0.39818  0.74547  1.0000
  Fe  Fe39      1.0  0.65619  0.13336  0.70034  1.0000
  S   S81       1.0  0.33738  0.04047  0.72431  1.0000
  S   S82       1.0  0.64740  0.18920  0.71733  1.0000
  Fe  Fe40      1.0  0.64564  0.05721  0.71951  1.0000
  C   C308      1.0  0.50627  0.04861  0.72242  1.0000
  S   S83       1.0  0.63444  0.09594  0.67747  1.0000
  N   N22       1.0  0.52014  0.46826  0.74844  1.0000
  Fe  Fe41      1.0  0.36021  0.46430  0.72249  1.0000
  S   S84       1.0  0.37158  0.42545  0.68157  1.0000
  S   S85       1.0  0.62988  0.01872  0.75746  1.0000
  C   C309      1.0  0.61153  0.07650  0.53807  1.0000
  H   H362      1.0  0.53893  0.49594  0.68961  1.0000
  Fe  Fe42      1.0  0.35094  0.38757  0.70751  1.0000
  S   S86       1.0  0.36005  0.33222  0.72563  1.0000
  H   H363      1.0  0.47932  0.05000  0.79908  1.0000
  H   H364      1.0  0.42853  0.03726  0.96693  1.0000
  Fe  Fe43      1.0  0.36171  0.07929  0.72531  1.0000
  S   S87       1.0  0.35951  0.09307  0.66589  1.0000
  S   S88       1.0  0.39077  0.07646  0.75600  1.0000
  H   H365      1.0  0.35071  0.45093  0.50940  1.0000
  H   H366      1.0  0.59000  0.42962  0.69227  1.0000
  H   H367      1.0  0.36311  0.04625  0.50987  1.0000
  C   C310      1.0  0.41220  0.05691  0.90131  1.0000
  H   H368      1.0  0.44539  0.45469  0.76762  1.0000
  H   H369      1.0  0.49002  0.47193  0.73255  1.0000
  H   H370      1.0  0.63241  0.47946  0.82266  1.0000
  H   H371      1.0  0.62804  0.46004  0.52790  1.0000
  H   H372      1.0  0.59386  0.05611  0.73407  1.0000
  H   H373      1.0  0.37573  0.06107  0.83948  1.0000
  C   C311      1.0  0.35334  0.29271  0.70434  1.0000
  C   C312      1.0  0.43108  0.00960  0.95803  1.0000
  H   H374      1.0  0.62559  0.39650  0.51519  1.0000
  C   C313      1.0  0.60480  0.01511  0.76950  1.0000
  C   C314      1.0  0.35188  0.03042  0.52171  1.0000
  H   H375      1.0  0.34264  0.10918  0.56368  1.0000
  C   C315      1.0  0.56519  0.00696  0.79023  1.0000
  H   H376      1.0  0.50494  0.03720  0.69502  1.0000
  C   C316      1.0  0.66759  0.23001  0.66776  1.0000
  C   C317      1.0  0.47119  0.05095  0.72898  1.0000
  C   C318      1.0  0.43643  0.02124  0.80110  1.0000
  H   H377      1.0  0.37036  0.49858  0.63317  1.0000
  H   H378      1.0  0.63965  0.26141  0.73652  1.0000
  C   C319      1.0  0.40665  0.04093  0.76960  1.0000
  C   C320      1.0  0.42327  0.04840  0.78999  1.0000
  H   H379      1.0  0.33721  0.31780  0.66121  1.0000
  H   H380      1.0  0.36811  0.25973  0.74377  1.0000
  H   H381      1.0  0.42594  0.07542  0.79725  1.0000
  C   C321      1.0  0.34910  0.47782  0.51874  1.0000
  H   H382      1.0  0.44650  0.12814  0.70673  1.0000
  Fe  Fe44      1.0  0.66761  0.39052  0.66891  1.0000
  N   N23       1.0  0.48972  0.03862  0.74566  1.0000
  H   H383      1.0  0.41103  0.45260  0.74733  1.0000
  H   H384      1.0  0.52044  0.03903  0.73396  1.0000
  C   C322      1.0  0.57573  0.43659  0.70294  1.0000
  H   H385      1.0  0.35633  0.05027  0.57561  1.0000
  C   C323      1.0  0.59010  0.03640  0.75397  1.0000
  Fe  Fe45      1.0  0.33772  0.13528  0.68283  1.0000
  C   C324      1.0  0.34793  0.03307  0.55899  1.0000
  H   H386      1.0  0.60630  0.12820  0.51569  1.0000
  H   H387      1.0  0.41929  0.07444  0.91960  1.0000
  C   C325      1.0  0.40337  0.00585  0.76046  1.0000
  H   H388      1.0  0.50730  0.07769  0.71923  1.0000
  S   S89       1.0  0.54002  0.00294  0.80150  1.0000
  C   C326      1.0  0.49198  0.05533  0.78140  1.0000
  C   C327      1.0  0.65495  0.29414  0.69858  1.0000
  C   C328      1.0  0.58803  0.47737  0.79258  1.0000
  C   C329      1.0  0.34168  0.29295  0.67353  1.0000
  H   H389      1.0  0.58879  0.45469  0.81044  1.0000
  C   C330      1.0  0.61471  0.04083  0.53081  1.0000
  H   H390      1.0  0.50017  0.45754  0.79204  1.0000
  N   N24       1.0  0.43536  0.00726  0.91893  1.0000
  H   H391      1.0  0.45567  0.02914  0.88147  1.0000
  Fe  Fe46      1.0  0.65847  0.46519  0.64051  1.0000
  C   C331      1.0  0.55070  0.42862  0.74807  1.0000
  S   S90       1.0  0.65977  0.48796  0.69637  1.0000
  H   H392      1.0  0.51584  0.45944  0.95650  1.0000
  H   H393      1.0  0.61177  0.08568  0.56568  1.0000
  H   H394      1.0  0.47771  0.10700  0.73098  1.0000
  H   H395      1.0  0.57058  0.47843  0.66470  1.0000
  H   H396      1.0  0.50404  0.43679  0.71166  1.0000
  C   C332      1.0  0.45267  0.02852  0.91090  1.0000
  C   C333      1.0  0.56478  0.46416  0.68758  1.0000
  H   H397      1.0  0.61743  0.02251  0.55293  1.0000
  C   C334      1.0  0.40816  0.49578  0.64921  1.0000
  S   S91       1.0  0.65842  0.07281  0.58066  1.0000
  C   C335      1.0  0.43592  0.47767  0.77085  1.0000
  C   C336      1.0  0.45658  0.02749  0.71789  1.0000
  C   C337      1.0  0.60865  0.10042  0.50983  1.0000
  C   C338      1.0  0.43537  0.07636  0.69960  1.0000
  H   H398      1.0  0.50981  0.03386  0.96873  1.0000
  C   C339      1.0  0.56870  0.41885  0.73305  1.0000
  H   H399      1.0  0.45095  0.05624  0.92011  1.0000
  C   C340      1.0  0.62428  0.45156  0.50095  1.0000
  H   H400      1.0  0.40267  0.47187  0.63591  1.0000
  Fe  Fe47      1.0  0.34593  0.44306  0.64757  1.0000
  C   C341      1.0  0.39688  0.07103  0.88060  1.0000
  H   H401      1.0  0.49344  0.08438  0.77949  1.0000
  H   H402      1.0  0.65000  0.31869  0.71061  1.0000
  S   S92       1.0  0.66906  0.03480  0.68263  1.0000
  C   C342      1.0  0.38721  0.04986  0.85638  1.0000
  H   H403      1.0  0.48736  0.42152  0.95023  1.0000
  H   H404      1.0  0.50675  0.48184  0.69738  1.0000
  H   H405      1.0  0.55935  0.04903  0.75197  1.0000
  S   S93       1.0  0.34764  0.44779  0.58626  1.0000
  C   C343      1.0  0.64422  0.48964  0.83992  1.0000
  H   H406      1.0  0.42779  0.02199  0.69616  1.0000
  C   C344      1.0  0.54673  0.47407  0.70223  1.0000
  C   C345      1.0  0.51444  0.44793  0.78103  1.0000
  H   H407      1.0  0.54642  0.41416  0.77181  1.0000
  C   C346      1.0  0.34731  0.48433  0.55588  1.0000
  H   H408      1.0  0.35750  0.20329  0.71763  1.0000
  H   H409      1.0  0.50528  0.04524  0.79555  1.0000
  C   C347      1.0  0.46724  0.08760  0.72367  1.0000
  H   H410      1.0  0.51286  0.41944  0.77502  1.0000
  C   C348      1.0  0.44950  0.10001  0.70951  1.0000
  C   C349      1.0  0.66150  0.03768  0.54937  1.0000
  H   H411      1.0  0.46591  0.01761  0.92466  1.0000
  C   C350      1.0  0.39266  0.01440  0.85308  1.0000
  Fe  Fe48      1.0  0.65938  0.07622  0.64239  1.0000
  C   C351      1.0  0.53914  0.45672  0.73307  1.0000
  S   S94       1.0  0.34165  0.12463  0.74167  1.0000
  C   C352      1.0  0.35306  0.22814  0.70523  1.0000
  H   H412      1.0  0.39263  0.09869  0.88281  1.0000
  H   H413      1.0  0.52515  0.45082  0.80318  1.0000
  C   C353      1.0  0.57048  0.03227  0.76422  1.0000
  C   C354      1.0  0.66710  0.29478  0.66833  1.0000
  H   H414      1.0  0.65698  0.45883  0.77883  1.0000
  H   H415      1.0  0.66030  0.04900  0.80872  1.0000
  H   H416      1.0  0.66185  0.07317  0.50373  1.0000
  H   H417      1.0  0.42135  0.08601  0.68981  1.0000
  C   C355      1.0  0.66238  0.00220  0.56010  1.0000
  S   S95       1.0  0.34089  0.42540  0.75088  1.0000
  H   H418      1.0  0.64761  0.46827  0.85985  1.0000
  N   N25       1.0  0.66154  0.49876  0.81810  1.0000
  C   C356      1.0  0.66807  0.46650  0.79879  1.0000
  C   C357      1.0  0.65538  0.22938  0.69793  1.0000
  C   C358      1.0  0.41851  0.02109  0.89789  1.0000
  C   C359      1.0  0.66256  0.04583  0.51235  1.0000
  C   C360      1.0  0.43903  0.04022  0.70327  1.0000
  H   H419      1.0  0.39079  0.48497  0.58222  1.0000
  H   H420      1.0  0.40778  0.48960  0.67866  1.0000
  S   S96       1.0  0.66609  0.09574  0.74438  1.0000
  C   C361      1.0  0.50353  0.02932  0.99504  1.0000
  S   S97       1.0  0.66962  0.40786  0.72656  1.0000
  H   H421      1.0  0.42361  0.49883  0.64121  1.0000
  C   C362      1.0  0.66959  0.48007  0.53496  1.0000
  C   C363      1.0  0.49502  0.42213  0.97569  1.0000
  C   C364      1.0  0.51109  0.44342  0.97907  1.0000
  H   H422      1.0  0.33686  0.29762  0.77775  1.0000
  C   C365      1.0  0.52890  0.99522  0.14002  1.0000
  C   C366      1.0  0.48471  0.99384  0.03586  1.0000
  H   H423      1.0  0.65733  0.77153  0.28891  1.0000
  S   S98       1.0  0.65739  0.84211  0.31633  1.0000
  H   H424      1.0  0.49470  0.76362  0.03826  1.0000
  Fe  Fe49      1.0  0.36339  0.94193  0.34185  1.0000
  S   S99       1.0  0.39289  0.94390  0.31286  1.0000
  S   S100      1.0  0.36120  0.92177  0.39901  1.0000
  C   C367      1.0  0.34924  0.96425  0.24639  1.0000
  C   C368      1.0  0.34503  0.79320  0.34639  1.0000
  C   C369      1.0  0.49831  0.71394  0.01066  1.0000
  C   C370      1.0  0.49265  0.99923  0.00130  1.0000
  C   C371      1.0  0.49550  0.51540  0.06183  1.0000
  Fe  Fe50      1.0  0.35538  0.55601  0.33745  1.0000
  S   S101      1.0  0.33956  0.90700  0.32254  1.0000
  S   S102      1.0  0.36758  0.59586  0.37526  1.0000
  H   H425      1.0  0.65448  0.56254  0.47746  1.0000
  C   C372      1.0  0.60352  0.51987  0.28191  1.0000
  H   H426      1.0  0.66275  0.71253  0.31762  1.0000
  H   H427      1.0  0.43866  0.61785  0.31253  1.0000
  C   C373      1.0  0.34522  0.72853  0.34889  1.0000
  Fe  Fe51      1.0  0.34406  0.57854  0.41377  1.0000
  C   C374      1.0  0.65866  0.53946  0.49319  1.0000
  Fe  Fe52      1.0  0.64017  0.58362  0.33584  1.0000
  S   S103      1.0  0.60765  0.58048  0.32340  1.0000
  S   S104      1.0  0.64618  0.59936  0.39315  1.0000
  H   H428      1.0  0.56405  0.95892  0.26142  1.0000
  H   H429      1.0  0.44952  0.99499  0.25222  1.0000
  H   H430      1.0  0.53852  0.53878  0.02396  1.0000
  H   H431      1.0  0.46833  0.51526  0.03307  1.0000
  S   S105      1.0  0.66919  0.99428  0.36611  1.0000
  Fe  Fe53      1.0  0.64334  0.97222  0.33712  1.0000
  C   C375      1.0  0.66968  0.51217  0.47734  1.0000
  S   S106      1.0  0.63966  0.92738  0.37667  1.0000
  C   C376      1.0  0.61678  0.67430  0.36168  1.0000
  H   H432      1.0  0.42768  0.95396  0.42111  1.0000
  H   H433      1.0  0.38384  0.96467  0.22281  1.0000
  C   C377      1.0  0.56314  0.53020  0.27442  1.0000
  H   H434      1.0  0.44100  0.97397  0.36780  1.0000
  C   C378      1.0  0.34893  0.50583  0.49346  1.0000
  C   C379      1.0  0.57422  0.55412  0.29430  1.0000
  H   H435      1.0  0.61107  0.83506  0.33499  1.0000
  H   H436      1.0  0.63251  0.68030  0.36294  1.0000
  H   H437      1.0  0.60460  0.53673  0.44025  1.0000
  H   H438      1.0  0.63027  0.53402  0.42933  1.0000
  S   S107      1.0  0.66777  0.94849  0.46553  1.0000
  C   C380      1.0  0.59448  0.54926  0.29802  1.0000
  H   H439      1.0  0.39287  0.66357  0.33123  1.0000
  H   H440      1.0  0.38466  0.68312  0.27249  1.0000
  S   S108      1.0  0.65992  0.62462  0.31224  1.0000
  S   S109      1.0  0.66343  0.54096  0.33573  1.0000
  C   C381      1.0  0.43945  0.50473  0.28542  1.0000
  H   H441      1.0  0.50308  0.70111  0.03526  1.0000
  S   S110      1.0  0.37303  0.52186  0.29768  1.0000
  C   C382      1.0  0.49352  0.75001  0.01281  1.0000
  C   C383      1.0  0.52317  0.53358  0.02580  1.0000
  C   C384      1.0  0.42456  0.97315  0.27940  1.0000
  C   C385      1.0  0.49159  0.53130  0.99788  1.0000
  H   H442      1.0  0.43045  0.94641  0.27906  1.0000
  C   C386      1.0  0.41143  0.52643  0.32066  1.0000
  C   C387      1.0  0.44945  0.57616  0.23484  1.0000
  H   H443      1.0  0.60923  0.69002  0.27276  1.0000
  C   C388      1.0  0.41303  0.96067  0.41007  1.0000
  Fe  Fe54      1.0  0.34490  0.63363  0.35232  1.0000
  C   C389      1.0  0.66102  0.76968  0.31717  1.0000
  C   C390      1.0  0.56254  0.98100  0.15045  1.0000
  H   H444      1.0  0.38015  0.60234  0.25912  1.0000
  H   H445      1.0  0.34902  0.81732  0.33282  1.0000
  H   H446      1.0  0.41802  0.66705  0.32014  1.0000
  C   C391      1.0  0.43220  0.58212  0.21603  1.0000
  H   H447      1.0  0.49683  0.64079  0.02777  1.0000
  C   C392      1.0  0.57044  0.98329  0.26979  1.0000
  H   H448      1.0  0.57863  0.69137  0.35481  1.0000
  H   H449      1.0  0.58554  0.65256  0.32959  1.0000
  Fe  Fe55      1.0  0.66081  0.89625  0.34191  1.0000
  C   C393      1.0  0.48370  0.52025  0.03114  1.0000
  Fe  Fe56      1.0  0.33977  0.96693  0.40790  1.0000
  H   H450      1.0  0.63412  0.99672  0.43566  1.0000
  N   N26       1.0  0.40915  0.99945  0.40931  1.0000
  H   H451      1.0  0.40233  0.94674  0.42729  1.0000
  H   H452      1.0  0.56701  0.57665  0.30669  1.0000
  S   S111      1.0  0.35188  0.68762  0.32879  1.0000
  H   H453      1.0  0.62275  0.50379  0.48113  1.0000
  H   H454      1.0  0.37189  0.62706  0.29703  1.0000
  H   H455      1.0  0.40932  0.68388  0.25626  1.0000
  H   H456      1.0  0.61286  0.54787  0.39608  1.0000
  H   H457      1.0  0.52667  0.00002  0.16930  1.0000
  H   H458      1.0  0.59504  0.80613  0.28400  1.0000
  H   H459      1.0  0.52382  0.97839  0.07484  1.0000
  C   C394      1.0  0.45145  0.58960  0.26939  1.0000
  C   C395      1.0  0.41688  0.60157  0.23170  1.0000
  Fe  Fe57      1.0  0.66750  0.63724  0.36931  1.0000
  H   H460      1.0  0.51314  0.61218  0.00372  1.0000
  H   H461      1.0  0.60988  0.68135  0.38788  1.0000
  H   H462      1.0  0.54762  0.53444  0.27164  1.0000
  H   H463      1.0  0.46471  0.58371  0.28426  1.0000
  N   N27       1.0  0.40179  0.63563  0.28308  1.0000
  H   H464      1.0  0.40874  0.62649  0.33912  1.0000
  C   C396      1.0  0.43621  0.60901  0.28541  1.0000
  H   H465      1.0  0.66832  0.82172  0.38986  1.0000
  S   S112      1.0  0.34317  0.98821  0.35105  1.0000
  H   H466      1.0  0.55965  0.98406  0.17990  1.0000
  H   H467      1.0  0.41180  0.94911  0.38266  1.0000
  H   H468      1.0  0.61589  0.64516  0.35931  1.0000
  Fe  Fe58      1.0  0.66641  0.94801  0.40383  1.0000
  C   C397      1.0  0.58876  0.98218  0.28697  1.0000
  H   H469      1.0  0.40369  0.60497  0.21622  1.0000
  C   C398      1.0  0.61537  0.52923  0.41907  1.0000
  C   C399      1.0  0.38474  0.61272  0.28556  1.0000
  H   H470      1.0  0.39133  0.65903  0.23318  1.0000
  C   C400      1.0  0.40568  0.64870  0.31995  1.0000
  H   H471      1.0  0.47627  0.97065  0.04104  1.0000
  C   C401      1.0  0.39872  0.51629  0.29351  1.0000
  H   H472      1.0  0.62457  0.79926  0.38515  1.0000
  C   C402      1.0  0.66391  0.73620  0.33341  1.0000
  C   C403      1.0  0.50893  0.64048  0.00782  1.0000
  H   H473      1.0  0.46111  0.56019  0.22310  1.0000
  C   C404      1.0  0.40614  0.97991  0.29486  1.0000
  S   S113      1.0  0.66243  0.93977  0.30041  1.0000
  H   H474      1.0  0.52188  0.65283  0.01974  1.0000
  H   H475      1.0  0.62351  0.73561  0.38465  1.0000
  C   C405      1.0  0.41838  0.61560  0.26694  1.0000
  H   H476      1.0  0.43058  0.57094  0.18944  1.0000
  H   H477      1.0  0.56112  0.95260  0.14388  1.0000
  C   C406      1.0  0.39661  0.66671  0.26018  1.0000
  H   H478      1.0  0.38796  0.58952  0.30320  1.0000
  C   C407      1.0  0.54238  0.97864  0.02954  1.0000
  C   C408      1.0  0.66246  0.80075  0.33742  1.0000
  C   C409      1.0  0.53835  0.98417  0.06604  1.0000
  H   H479      1.0  0.62628  0.50445  0.35653  1.0000
  N   N28       1.0  0.60710  0.69287  0.33098  1.0000
  C   C410      1.0  0.61681  0.68050  0.29746  1.0000
  C   C411      1.0  0.58657  0.68191  0.33042  1.0000
  C   C412      1.0  0.60787  0.73183  0.33315  1.0000
  C   C413      1.0  0.59979  0.75338  0.30520  1.0000
  C   C414      1.0  0.61661  0.74951  0.36240  1.0000
  C   C415      1.0  0.60086  0.79018  0.30602  1.0000
  C   C416      1.0  0.61735  0.78633  0.36312  1.0000
  C   C417      1.0  0.60973  0.80659  0.33484  1.0000
  H   H480      1.0  0.63203  0.68963  0.29605  1.0000
  H   H481      1.0  0.57862  0.69229  0.30642  1.0000
  H   H482      1.0  0.61730  0.65111  0.29579  1.0000
  H   H483      1.0  0.59630  0.95717  0.29161  1.0000
  H   H484      1.0  0.59283  0.74188  0.28221  1.0000
  S   S114      1.0  0.34848  0.57715  0.47487  1.0000
  H   H485      1.0  0.40567  0.53828  0.34499  1.0000
  C   C418      1.0  0.51532  0.52214  0.05894  1.0000
  H   H486      1.0  0.57796  0.98800  0.14631  1.0000
  C   C419      1.0  0.35013  0.76014  0.33139  1.0000
  H   H487      1.0  0.61907  0.51574  0.28428  1.0000
  H   H488      1.0  0.35306  0.94437  0.22548  1.0000
  H   H489      1.0  0.59063  0.50840  0.37100  1.0000
  H   H490      1.0  0.35804  0.75910  0.30619  1.0000
  H   H491      1.0  0.36034  0.96264  0.26813  1.0000
  S   S115      1.0  0.50512  0.51048  0.20656  1.0000
  C   C420      1.0  0.66806  0.73351  0.37021  1.0000
  C   C421      1.0  0.66718  0.79806  0.37394  1.0000
  H   H492      1.0  0.62073  0.99604  0.39463  1.0000
  H   H493      1.0  0.52559  0.96704  0.13555  1.0000
  H   H494      1.0  0.53119  0.96886  0.01194  1.0000
  C   C422      1.0  0.56057  0.98618  0.01544  1.0000
  C   C423      1.0  0.43164  0.52040  0.31671  1.0000
  H   H495      1.0  0.44129  0.52791  0.33811  1.0000
  H   H496      1.0  0.52457  0.51881  0.08230  1.0000
  C   C424      1.0  0.38294  0.99133  0.21230  1.0000
  H   H497      1.0  0.41320  0.98791  0.19723  1.0000
  H   H498      1.0  0.60857  0.98632  0.43563  1.0000
  C   C425      1.0  0.57493  0.99895  0.03786  1.0000
  H   H499      1.0  0.38798  0.99745  0.36714  1.0000
  C   C426      1.0  0.55265  0.99730  0.08971  1.0000
  H   H500      1.0  0.37852  0.98983  0.41127  1.0000
  C   C427      1.0  0.43544  0.00067  0.26415  1.0000
  H   H501      1.0  0.39994  0.99746  0.46491  1.0000
  C   C428      1.0  0.57219  0.50092  0.25805  1.0000
  N   N29       1.0  0.34747  0.00049  0.23101  1.0000
  S   S116      1.0  0.48457  0.50205  0.10314  1.0000
  Fe  Fe59      1.0  0.48670  0.54910  0.82940  1.0000
  S   S117      1.0  0.51534  0.52658  0.85062  1.0000
  C   C429      1.0  0.57383  0.50424  0.79862  1.0000
  Fe  Fe60      1.0  0.49822  0.62545  0.84729  1.0000
  S   S118      1.0  0.52742  0.60778  0.86829  1.0000
  S   S119      1.0  0.48614  0.68264  0.84554  1.0000
  Fe  Fe61      1.0  0.52926  0.57116  0.82088  1.0000
  S   S120      1.0  0.55535  0.56880  0.78237  1.0000
  Fe  Fe62      1.0  0.51132  0.56435  0.89683  1.0000
  S   S121      1.0  0.52233  0.55227  0.95405  1.0000
  S   S122      1.0  0.50099  0.59197  0.79742  1.0000
  S   S123      1.0  0.48175  0.58377  0.87817  1.0000
  Fe  Fe63      1.0  0.52108  0.96779  0.83756  1.0000
  S   S124      1.0  0.50514  0.92406  0.81044  1.0000
  C   C430      1.0  0.51142  0.53792  0.99499  1.0000
  Fe  Fe64      1.0  0.49818  0.95811  0.90872  1.0000
  S   S125      1.0  0.48101  0.91386  0.88525  1.0000
  C   C431      1.0  0.63575  0.56923  0.75962  1.0000
  Fe  Fe65      1.0  0.50914  0.89326  0.86226  1.0000
  S   S126      1.0  0.52127  0.83624  0.86750  1.0000
  Fe  Fe66      1.0  0.47810  0.94817  0.83567  1.0000
  C   C432      1.0  0.63888  0.54290  0.78574  1.0000
  S   S127      1.0  0.52686  0.93570  0.88822  1.0000
  H   H502      1.0  0.49058  0.60909  0.95651  1.0000
  C   C433      1.0  0.49103  0.99977  0.75125  1.0000
  H   H503      1.0  0.62120  0.58004  0.75517  1.0000
  H   H504      1.0  0.45327  0.96019  0.92719  1.0000
  C   C434      1.0  0.48589  0.75150  0.94949  1.0000
  C   C435      1.0  0.44059  0.96984  0.91097  1.0000
  S   S128      1.0  0.44939  0.95080  0.80458  1.0000
  H   H505      1.0  0.41389  0.95172  0.76407  1.0000
  C   C436      1.0  0.40149  0.57229  0.58937  1.0000
  H   H506      1.0  0.48233  0.53456  0.97453  1.0000
  C   C437      1.0  0.40098  0.58083  0.55262  1.0000
  H   H507      1.0  0.50676  0.51553  0.77045  1.0000
  C   C438      1.0  0.43066  0.53755  0.79110  1.0000
  C   C439      1.0  0.41114  0.53627  0.77948  1.0000
  H   H508      1.0  0.43595  0.56121  0.80342  1.0000
  H   H509      1.0  0.40160  0.55913  0.78310  1.0000
  C   C440      1.0  0.49650  0.72505  0.85056  1.0000
  C   C441      1.0  0.51581  0.72927  0.86106  1.0000
  C   C442      1.0  0.52298  0.76341  0.86652  1.0000
  C   C443      1.0  0.51109  0.79385  0.86128  1.0000
  C   C444      1.0  0.49185  0.78966  0.85044  1.0000
  C   C445      1.0  0.48462  0.75550  0.84528  1.0000
  H   H510      1.0  0.52516  0.70623  0.86533  1.0000
  H   H511      1.0  0.53789  0.76624  0.87496  1.0000
  H   H512      1.0  0.48247  0.81268  0.84625  1.0000
  H   H513      1.0  0.46963  0.75262  0.83735  1.0000
  H   H514      1.0  0.49031  0.98531  0.72536  1.0000
  C   C446      1.0  0.39810  0.53733  0.60171  1.0000
  H   H515      1.0  0.39607  0.56204  0.49890  1.0000
  C   C447      1.0  0.40381  0.50567  0.76371  1.0000
  H   H516      1.0  0.47926  0.99056  0.76937  1.0000
  C   C448      1.0  0.66432  0.97534  0.53409  1.0000
  H   H517      1.0  0.51593  0.66468  0.92072  1.0000
  H   H518      1.0  0.52413  0.52377  0.73602  1.0000
  H   H519      1.0  0.64851  0.60058  0.71767  1.0000
  C   C449      1.0  0.40280  0.55641  0.66497  1.0000
  C   C450      1.0  0.58581  0.53583  0.74670  1.0000
  C   C451      1.0  0.57268  0.53373  0.77572  1.0000
  C   C452      1.0  0.65833  0.50712  0.55070  1.0000
  H   H520      1.0  0.58503  0.55845  0.72877  1.0000
  C   C453      1.0  0.65771  0.52754  0.79161  1.0000
  H   H521      1.0  0.37354  0.51558  0.67742  1.0000
  H   H522      1.0  0.41794  0.99450  0.96514  1.0000
  H   H523      1.0  0.50501  0.99133  0.76403  1.0000
  C   C454      1.0  0.52084  0.50585  0.75889  1.0000
  C   C455      1.0  0.57989  0.98577  0.80591  1.0000
  C   C456      1.0  0.37577  0.52147  0.64843  1.0000
  H   H524      1.0  0.34317  0.52472  0.59580  1.0000
  H   H525      1.0  0.34378  0.57419  0.55156  1.0000
  N   N30       1.0  0.39640  0.52816  0.64043  1.0000
  H   H526      1.0  0.48920  0.70337  0.92103  1.0000
  H   H527      1.0  0.66131  0.99538  0.58836  1.0000
  H   H528      1.0  0.64420  0.55781  0.54152  1.0000
  C   C457      1.0  0.34515  0.54724  0.54228  1.0000
  H   H529      1.0  0.56393  0.50229  0.82116  1.0000
  C   C458      1.0  0.48678  0.63782  0.95834  1.0000
  H   H530      1.0  0.44468  0.96634  0.88212  1.0000
  S   S129      1.0  0.49349  0.99350  0.86011  1.0000
  H   H531      1.0  0.38532  0.99825  0.83361  1.0000
  H   H532      1.0  0.40298  0.60782  0.54374  1.0000
  S   S130      1.0  0.46799  0.50789  0.80139  1.0000
  C   C459      1.0  0.51979  0.65543  0.94837  1.0000
  N   N31       1.0  0.50302  0.65799  0.97345  1.0000
  C   C460      1.0  0.39448  0.51169  0.57501  1.0000
  C   C461      1.0  0.65290  0.53676  0.52957  1.0000
  S   S131      1.0  0.64968  0.50442  0.59576  1.0000
  N   N32       1.0  0.53732  0.81325  0.75831  1.0000
  C   C462      1.0  0.51650  0.81829  0.76801  1.0000
  C   C463      1.0  0.53829  0.78987  0.72638  1.0000
  C   C464      1.0  0.54751  0.79438  0.78823  1.0000
  C   C465      1.0  0.54612  0.84810  0.75229  1.0000
  C   C466      1.0  0.55461  0.85828  0.71890  1.0000
  C   C467      1.0  0.54633  0.87323  0.78045  1.0000
  C   C468      1.0  0.56265  0.89161  0.71433  1.0000
  C   C469      1.0  0.55425  0.90647  0.77549  1.0000
  C   C470      1.0  0.56243  0.91568  0.74254  1.0000
  H   H533      1.0  0.50829  0.83238  0.74622  1.0000
  H   H534      1.0  0.50940  0.79266  0.77338  1.0000
  H   H535      1.0  0.51439  0.83408  0.79284  1.0000
  H   H536      1.0  0.53031  0.80180  0.70307  1.0000
  H   H537      1.0  0.53152  0.76397  0.73203  1.0000
  H   H538      1.0  0.55360  0.78386  0.71827  1.0000
  H   H539      1.0  0.54637  0.80888  0.81405  1.0000
  H   H540      1.0  0.54131  0.76797  0.79359  1.0000
  H   H541      1.0  0.56327  0.79054  0.78225  1.0000
  H   H542      1.0  0.55526  0.84105  0.69591  1.0000
  H   H543      1.0  0.54026  0.86745  0.80665  1.0000
  H   H544      1.0  0.56913  0.89892  0.68877  1.0000
  H   H545      1.0  0.55396  0.92531  0.79735  1.0000
  H   H546      1.0  0.56862  0.94154  0.73898  1.0000
  H   H547      1.0  0.39069  0.99962  0.74480  1.0000
  H   H548      1.0  0.62619  0.53452  0.80030  1.0000
  H   H549      1.0  0.53201  0.67159  0.95779  1.0000
  C   C471      1.0  0.59950  0.98974  0.79547  1.0000
  C   C472      1.0  0.39723  0.55505  0.52723  1.0000
  H   H550      1.0  0.52539  0.62771  0.94582  1.0000
  C   C473      1.0  0.41659  0.97873  0.77144  1.0000
  H   H551      1.0  0.39324  0.58048  0.66304  1.0000
  H   H552      1.0  0.48127  0.76613  0.92561  1.0000
  H   H553      1.0  0.61068  0.97313  0.80780  1.0000
  H   H554      1.0  0.40207  0.54797  0.69383  1.0000
  H   H555      1.0  0.41810  0.56356  0.65946  1.0000
  H   H556      1.0  0.47350  0.64063  0.97536  1.0000
  S   S132      1.0  0.48855  0.96737  0.96730  1.0000
  C   C474      1.0  0.66530  0.98350  0.49707  1.0000
  C   C475      1.0  0.43320  0.98620  0.79175  1.0000
  C   C476      1.0  0.65110  0.58086  0.73852  1.0000
  H   H557      1.0  0.36634  0.54485  0.64154  1.0000
  H   H558      1.0  0.42851  0.95196  0.91754  1.0000
  C   C477      1.0  0.39423  0.52047  0.53838  1.0000
  C   C478      1.0  0.49052  0.71549  0.94711  1.0000
  H   H559      1.0  0.40404  0.59373  0.60755  1.0000
  H   H560      1.0  0.65875  0.98307  0.81642  1.0000
  C   C479      1.0  0.49706  0.69560  0.97747  1.0000
  H   H561      1.0  0.57623  0.96649  0.82626  1.0000
  H   H562      1.0  0.48284  0.64648  0.93054  1.0000
  C   C480      1.0  0.44319  0.50815  0.78704  1.0000
  H   H563      1.0  0.53227  0.50956  0.77944  1.0000
  H   H564      1.0  0.60989  0.51082  0.71806  1.0000
  C   C481      1.0  0.59994  0.50887  0.74056  1.0000
  C   C482      1.0  0.34499  0.51921  0.56750  1.0000
  H   H565      1.0  0.66495  0.94799  0.54268  1.0000
  C   C483      1.0  0.48743  0.76878  0.98225  1.0000
  H   H566      1.0  0.56347  0.98228  0.98701  1.0000
  H   H567      1.0  0.41198  0.97277  0.86807  1.0000
  H   H568      1.0  0.63846  0.51282  0.85519  1.0000
  C   C484      1.0  0.34714  0.54075  0.50515  1.0000
  S   S133      1.0  0.37900  0.50589  0.74952  1.0000
  H   H569      1.0  0.44345  0.99875  0.97452  1.0000
  H   H570      1.0  0.48398  0.79681  0.98385  1.0000
  C   C485      1.0  0.40813  0.00008  0.87324  1.0000
  C   C486      1.0  0.66972  0.56649  0.74369  1.0000
  H   H571      1.0  0.45798  0.99920  0.72126  1.0000
  H   H572      1.0  0.39078  0.50069  0.51860  1.0000
  S   S134      1.0  0.99829  0.45068  0.46718  1.0000
  Fe  Fe67      1.0  0.98453  0.04540  0.34375  1.0000
  C   C487      1.0  0.83098  0.00226  0.06055  1.0000
  H   H573      1.0  0.84359  0.40158  0.06313  1.0000
  H   H574      1.0  0.83318  0.40119  0.00408  1.0000
  C   C488      1.0  0.99703  0.22091  0.36335  1.0000
  C   C489      1.0  0.90701  0.01692  0.36309  1.0000
  S   S135      1.0  0.98257  0.07731  0.39490  1.0000
  H   H575      1.0  0.85691  0.35703  0.03043  1.0000
  S   S136      1.0  0.98460  0.40936  0.38104  1.0000
  H   H576      1.0  0.89240  0.07523  0.07564  1.0000
  C   C490      1.0  0.85804  0.00585  0.01838  1.0000
  H   H577      1.0  0.99996  0.34152  0.41697  1.0000
  Fe  Fe68      1.0  0.97928  0.44808  0.33545  1.0000
  S   S137      1.0  0.94721  0.45293  0.31851  1.0000
  C   C491      1.0  0.87269  0.09641  0.03673  1.0000
  H   H578      1.0  0.98773  0.32492  0.45587  1.0000
  C   C492      1.0  0.85388  0.42255  0.06199  1.0000
  H   H579      1.0  0.78100  0.47379  0.26313  1.0000
  C   C493      1.0  0.91558  0.03863  0.26361  1.0000
  S   S138      1.0  0.88415  0.00870  0.23083  1.0000
  H   H580      1.0  0.96130  0.45543  0.43415  1.0000
  H   H581      1.0  0.90963  0.06329  0.25307  1.0000
  C   C494      1.0  0.99213  0.28533  0.35722  1.0000
  H   H582      1.0  0.92154  0.02574  0.36892  1.0000
  H   H583      1.0  0.88256  0.36368  0.02558  1.0000
  C   C495      1.0  0.94062  0.00718  0.29850  1.0000
  S   S139      1.0  0.96147  0.00571  0.32705  1.0000
  H   H584      1.0  0.93370  0.48629  0.48519  1.0000
  H   H585      1.0  0.71004  0.43462  0.34811  1.0000
  Fe  Fe69      1.0  0.99812  0.12002  0.36362  1.0000
  H   H586      1.0  0.90711  0.45509  0.29721  1.0000
  H   H587      1.0  0.73464  0.44112  0.39989  1.0000
  H   H588      1.0  0.88788  0.02489  0.11039  1.0000
  H   H589      1.0  0.69945  0.47433  0.32873  1.0000
  H   H590      1.0  0.69514  0.46449  0.37463  1.0000
  H   H591      1.0  0.74164  0.48538  0.41184  1.0000
  H   H592      1.0  0.86367  0.01082  0.11923  1.0000
  C   C496      1.0  0.86828  0.36658  0.01177  1.0000
  C   C497      1.0  0.77402  0.46768  0.31932  1.0000
  H   H593      1.0  0.78903  0.46256  0.32697  1.0000
  C   C498      1.0  0.71075  0.04691  0.49294  1.0000
  H   H594      1.0  0.86708  0.49140  0.11390  1.0000
  H   H595      1.0  0.71754  0.47191  0.41973  1.0000
  H   H596      1.0  0.83156  0.08604  0.10698  1.0000
  C   C499      1.0  0.85358  0.10629  0.02861  1.0000
  S   S140      1.0  0.98670  0.17799  0.36399  1.0000
  H   H597      1.0  0.72146  0.49224  0.29018  1.0000
  H   H598      1.0  0.74708  0.48731  0.24521  1.0000
  H   H599      1.0  0.93985  0.06334  0.28967  1.0000
  C   C500      1.0  0.86576  0.42772  0.03113  1.0000
  C   C501      1.0  0.71240  0.01135  0.48393  1.0000
  H   H600      1.0  0.83455  0.02840  0.35532  1.0000
  C   C502      1.0  0.90599  0.00700  0.25668  1.0000
  C   C503      1.0  0.86712  0.47330  0.09140  1.0000
  H   H601      1.0  0.84013  0.04699  0.15050  1.0000
  H   H602      1.0  0.82415  0.10933  0.04766  1.0000
  H   H603      1.0  0.95959  0.48852  0.48663  1.0000
  C   C504      1.0  0.85200  0.06411  0.15991  1.0000
  C   C505      1.0  0.81951  0.02212  0.03597  1.0000
  C   C506      1.0  0.70653  0.46299  0.35321  1.0000
  C   C507      1.0  0.89263  0.04108  0.35200  1.0000
  H   H604      1.0  0.98570  0.04251  0.48694  1.0000
  H   H605      1.0  0.96909  0.24762  0.35878  1.0000
  H   H606      1.0  0.98236  0.30796  0.35394  1.0000
  H   H607      1.0  0.76399  0.46475  0.37305  1.0000
  C   C508      1.0  0.87410  0.02962  0.34322  1.0000
  S   S141      1.0  0.99812  0.08916  0.31165  1.0000
  H   H608      1.0  0.87985  0.11339  0.15212  1.0000
  H   H609      1.0  0.98823  0.26347  0.28012  1.0000
  C   C509      1.0  0.93279  0.03877  0.28430  1.0000
  H   H610      1.0  0.71004  0.00311  0.45640  1.0000
  C   C510      1.0  0.72989  0.46942  0.40024  1.0000
  H   H611      1.0  0.85662  0.05322  0.18662  1.0000
  H   H612      1.0  0.86356  0.04935  0.33423  1.0000
  C   C511      1.0  0.87824  0.45706  0.03169  1.0000
  N   N33       1.0  0.86843  0.06437  0.13387  1.0000
  C   C512      1.0  0.87890  0.47927  0.06156  1.0000
  H   H613      1.0  0.84485  0.44162  0.11427  1.0000
  C   C513      1.0  0.87548  0.02741  0.12946  1.0000
  C   C514      1.0  0.86307  0.07935  0.09815  1.0000
  C   C515      1.0  0.84365  0.08932  0.08879  1.0000
  C   C516      1.0  0.87744  0.08323  0.07096  1.0000
  C   C517      1.0  0.83912  0.10282  0.05458  1.0000
  C   C518      1.0  0.76954  0.47387  0.28325  1.0000
  H   H614      1.0  0.80461  0.02895  0.04287  1.0000
  C   C519      1.0  0.98463  0.25098  0.35995  1.0000
  C   C520      1.0  0.88416  0.08494  0.15024  1.0000
  H   H615      1.0  0.88049  0.01561  0.15546  1.0000
  H   H616      1.0  0.95314  0.47171  0.39184  1.0000
  C   C521      1.0  0.75042  0.48153  0.27321  1.0000
  C   C522      1.0  0.82401  0.49174  0.00730  1.0000
  H   H617      1.0  0.99167  0.37140  0.45157  1.0000
  C   C523      1.0  0.85457  0.44511  0.09156  1.0000
  H   H618      1.0  0.99818  0.20144  0.28190  1.0000
  C   C524      1.0  0.82723  0.03379  0.00280  1.0000
  H   H619      1.0  0.89795  0.08288  0.13474  1.0000
  H   H620      1.0  0.88729  0.46401  0.00910  1.0000
  C   C525      1.0  0.94931  0.47084  0.42090  1.0000
  H   H621      1.0  0.70721  0.06630  0.47221  1.0000
  N   N34       1.0  0.86454  0.40366  0.99998  1.0000
  H   H622      1.0  0.88373  0.09803  0.01594  1.0000
  H   H623      1.0  0.84593  0.09118  0.16456  1.0000
  H   H624      1.0  0.68357  0.46120  0.48643  1.0000
  H   H625      1.0  0.93586  0.45537  0.42357  1.0000
  H   H626      1.0  0.84987  0.11536  0.00165  1.0000
  H   H627      1.0  0.89606  0.06875  0.34940  1.0000
  C   C526      1.0  0.99832  0.34472  0.44663  1.0000
  H   H628      1.0  0.80865  0.48101  0.05684  1.0000
  H   H629      1.0  0.84547  0.02118  0.29279  1.0000
  H   H630      1.0  0.88776  0.07520  0.17796  1.0000
  C   C527      1.0  0.75941  0.46920  0.34560  1.0000
  N   N35       1.0  0.72421  0.48210  0.36365  1.0000
  C   C528      1.0  0.73576  0.48381  0.29927  1.0000
  C   C529      1.0  0.73974  0.47733  0.33629  1.0000
  C   C530      1.0  0.91325  0.47965  0.28827  1.0000
  S   S142      1.0  0.99639  0.49027  0.36210  1.0000
  C   C531      1.0  0.93305  0.48568  0.29473  1.0000
  C   C532      1.0  0.81963  0.49678  0.04411  1.0000
  H   H631      1.0  0.88615  0.49979  0.26548  1.0000
  C   C533      1.0  0.00287  0.25575  0.27199  1.0000
  Fe  Fe70      1.0  0.83810  0.46541  0.90074  1.0000
  S   S143      1.0  0.82834  0.48069  0.84432  1.0000
  N   N36       1.0  0.79062  0.21018  0.82565  1.0000
  Fe  Fe71      1.0  0.84534  0.38812  0.88017  1.0000
  S   S144      1.0  0.83704  0.39771  0.82265  1.0000
  S   S145      1.0  0.85273  0.33593  0.90862  1.0000
  Fe  Fe72      1.0  0.85409  0.44770  0.82536  1.0000
  H   H632      1.0  0.73955  0.44566  0.67194  1.0000
  Fe  Fe73      1.0  0.81181  0.42998  0.84443  1.0000
  S   S146      1.0  0.78321  0.41179  0.82014  1.0000
  S   S147      1.0  0.86474  0.43515  0.88132  1.0000
  S   S148      1.0  0.81929  0.41768  0.90244  1.0000
  Fe  Fe74      1.0  0.85426  0.05548  0.82355  1.0000
  S   S149      1.0  0.86857  0.08849  0.86493  1.0000
  H   H633      1.0  0.87747  0.39257  0.94801  1.0000
  Fe  Fe75      1.0  0.81289  0.08114  0.84691  1.0000
  S   S150      1.0  0.82505  0.11446  0.89151  1.0000
  S   S151      1.0  0.77972  0.08732  0.84150  1.0000
  Fe  Fe76      1.0  0.84677  0.13144  0.84993  1.0000
  S   S152      1.0  0.85280  0.18698  0.82964  1.0000
  Fe  Fe77      1.0  0.84551  0.06820  0.90295  1.0000
  S   S153      1.0  0.85799  0.04375  0.95496  1.0000
  S   S154      1.0  0.83396  0.09974  0.80521  1.0000
  S   S155      1.0  0.83184  0.03351  0.86165  1.0000
  Fe  Fe78      1.0  0.68654  0.45335  0.70484  1.0000
  S   S156      1.0  0.68650  0.43412  0.64757  1.0000
  S   S157      1.0  0.71205  0.48064  0.73156  1.0000
  Fe  Fe79      1.0  0.68863  0.07619  0.70495  1.0000
  S   S158      1.0  0.72082  0.06015  0.71202  1.0000
  C   C534      1.0  0.78328  0.47855  0.69501  1.0000
  H   H634      1.0  0.90476  0.04965  0.82105  1.0000
  C   C535      1.0  0.89424  0.48250  0.77186  1.0000
  H   H635      1.0  0.67156  0.05024  0.85163  1.0000
  H   H636      1.0  0.98983  0.44686  0.54280  1.0000
  H   H637      1.0  0.68188  0.47012  0.78378  1.0000
  H   H638      1.0  0.78838  0.39106  0.71790  1.0000
  C   C536      1.0  0.76404  0.08218  0.80387  1.0000
  C   C537      1.0  0.74446  0.09368  0.80668  1.0000
  C   C538      1.0  0.73116  0.08814  0.77849  1.0000
  C   C539      1.0  0.73723  0.07059  0.74723  1.0000
  C   C540      1.0  0.75686  0.05951  0.74424  1.0000
  C   C541      1.0  0.77022  0.06547  0.77222  1.0000
  N   N37       1.0  0.71934  0.04255  0.59483  1.0000
  H   H639      1.0  0.71615  0.09685  0.78129  1.0000
  C   C542      1.0  0.70452  0.01228  0.83113  1.0000
  H   H640      1.0  0.78518  0.05635  0.76964  1.0000
  H   H641      1.0  0.92840  0.12135  0.78467  1.0000
  H   H642      1.0  0.79499  0.34798  0.86081  1.0000
  S   S159      1.0  0.68017  0.11653  0.66271  1.0000
  H   H643      1.0  0.81288  0.40299  0.75638  1.0000
  H   H644      1.0  0.82823  0.47507  0.76507  1.0000
  C   C543      1.0  0.73933  0.03310  0.60695  1.0000
  C   C544      1.0  0.99736  0.00775  0.56998  1.0000
  H   H645      1.0  0.99305  0.48899  0.59340  1.0000
  C   C545      1.0  0.76328  0.43202  0.79667  1.0000
  C   C546      1.0  0.74849  0.41046  0.78391  1.0000
  C   C547      1.0  0.73258  0.42489  0.76438  1.0000
  C   C548      1.0  0.73131  0.46117  0.75732  1.0000
  H   H646      1.0  0.93101  0.00717  0.67647  1.0000
  C   C549      1.0  0.76185  0.46840  0.79011  1.0000
  H   H647      1.0  0.74937  0.38231  0.78897  1.0000
  H   H648      1.0  0.72145  0.40789  0.75443  1.0000
  H   H649      1.0  0.80390  0.46259  0.77590  1.0000
  H   H650      1.0  0.95319  0.09530  0.74602  1.0000
  C   C550      1.0  0.79305  0.44757  0.70814  1.0000
  H   H651      1.0  0.76175  0.04589  0.72025  1.0000
  H   H652      1.0  0.94423  0.09783  0.64583  1.0000
  H   H653      1.0  0.87069  0.01377  0.88860  1.0000
  C   C551      1.0  0.79396  0.32028  0.85409  1.0000
  C   C552      1.0  0.85187  0.29465  0.88645  1.0000
  C   C553      1.0  0.85226  0.26326  0.90699  1.0000
  C   C554      1.0  0.85202  0.23000  0.89017  1.0000
  C   C555      1.0  0.85176  0.22790  0.85257  1.0000
  C   C556      1.0  0.85117  0.25928  0.83211  1.0000
  C   C557      1.0  0.85104  0.29248  0.84891  1.0000
  H   H654      1.0  0.85289  0.26467  0.93604  1.0000
  H   H655      1.0  0.85258  0.20606  0.90623  1.0000
  H   H656      1.0  0.85100  0.25794  0.80302  1.0000
  H   H657      1.0  0.85073  0.31637  0.83278  1.0000
  H   H658      1.0  0.89355  0.11234  0.77312  1.0000
  H   H659      1.0  0.77289  0.48546  0.80022  1.0000
  H   H660      1.0  0.82209  0.39550  0.71120  1.0000
  H   H661      1.0  0.76374  0.21470  0.79526  1.0000
  H   H662      1.0  0.75328  0.00472  0.81148  1.0000
  H   H663      1.0  0.67960  0.48857  0.86474  1.0000
  H   H664      1.0  0.90091  0.47597  0.82810  1.0000
  C   C558      1.0  0.82145  0.41453  0.73385  1.0000
  C   C559      1.0  0.90996  0.02863  0.80369  1.0000
  N   N38       1.0  0.94751  0.05467  0.68345  1.0000
  C   C560      1.0  0.96793  0.06232  0.69288  1.0000
  H   H665      1.0  0.89285  0.00817  0.86469  1.0000
  C   C561      1.0  0.94395  0.06848  0.64648  1.0000
  C   C562      1.0  0.93302  0.07040  0.70866  1.0000
  C   C563      1.0  0.93826  0.09091  0.73891  1.0000
  C   C564      1.0  0.91284  0.06577  0.70302  1.0000
  C   C565      1.0  0.92411  0.10612  0.76154  1.0000
  C   C566      1.0  0.89884  0.08084  0.72601  1.0000
  C   C567      1.0  0.90446  0.10116  0.75506  1.0000
  H   H666      1.0  0.87590  0.43829  0.95906  1.0000
  H   H667      1.0  0.71071  0.08531  0.53389  1.0000
  H   H668      1.0  0.97056  0.09115  0.69241  1.0000
  H   H669      1.0  0.67069  0.01020  0.76279  1.0000
  H   H670      1.0  0.67054  0.44363  0.81735  1.0000
  H   H671      1.0  0.92972  0.06044  0.63568  1.0000
  H   H672      1.0  0.82589  0.44763  0.66942  1.0000
  C   C568      1.0  0.92998  0.01979  0.80228  1.0000
  C   C569      1.0  0.76360  0.41516  0.69385  1.0000
  H   H673      1.0  0.80255  0.17621  0.78423  1.0000
  H   H674      1.0  0.97843  0.05001  0.67344  1.0000
  C   C570      1.0  0.94584  0.01575  0.68311  1.0000
  H   H675      1.0  0.84159  0.46405  0.70391  1.0000
  C   C571      1.0  0.99553  0.47272  0.53762  1.0000
  H   H676      1.0  0.72610  0.02367  0.91354  1.0000
  H   H677      1.0  0.93406  0.49988  0.82256  1.0000
  H   H678      1.0  0.83661  0.41680  0.74402  1.0000
  S   S160      1.0  0.87117  0.01847  0.78543  1.0000
  C   C572      1.0  0.90618  0.48472  0.80214  1.0000
  C   C573      1.0  0.84482  0.40654  0.98419  1.0000
  C   C574      1.0  0.71600  0.08087  0.60141  1.0000
  C   C575      1.0  0.00071  0.32547  0.56214  1.0000
  H   H679      1.0  0.72657  0.09718  0.58646  1.0000
  H   H680      1.0  0.84195  0.43346  0.97298  1.0000
  C   C576      1.0  0.90146  0.49401  0.73832  1.0000
  H   H681      1.0  0.74171  0.04113  0.63546  1.0000
  H   H682      1.0  0.70095  0.08956  0.59371  1.0000
  H   H683      1.0  0.97101  0.02984  0.54677  1.0000
  C   C577      1.0  0.67338  0.26255  0.65305  1.0000
  H   H684      1.0  0.77803  0.33077  0.80553  1.0000
  H   H685      1.0  0.75032  0.04639  0.58991  1.0000
  C   C578      1.0  0.80208  0.20452  0.79223  1.0000
  N   N39       1.0  0.68498  0.01292  0.81443  1.0000
  C   C579      1.0  0.75450  0.44603  0.68113  1.0000
  S   S161      1.0  0.87025  0.46578  0.77453  1.0000
  H   H686      1.0  0.68275  0.26277  0.62963  1.0000
  C   C580      1.0  0.82622  0.46375  0.69433  1.0000
  C   C581      1.0  0.80237  0.29457  0.87647  1.0000
  C   C582      1.0  0.99448  0.03061  0.50813  1.0000
  C   C583      1.0  0.78254  0.41574  0.70739  1.0000
  H   H687      1.0  0.77610  0.26849  0.78899  1.0000
  C   C584      1.0  0.92502  0.49826  0.79887  1.0000
  H   H688      1.0  0.95520  0.05839  0.62711  1.0000
  C   C585      1.0  0.78332  0.27474  0.81384  1.0000
  H   H689      1.0  0.97185  0.05140  0.71997  1.0000
  H   H690      1.0  0.71767  0.08742  0.63048  1.0000
  H   H691      1.0  0.79051  0.18814  0.87944  1.0000
  H   H692      1.0  0.86841  0.34811  0.98845  1.0000
  H   H693      1.0  0.84308  0.38755  0.96181  1.0000
  C   C586      1.0  0.74596  0.48283  0.77051  1.0000
  H   H694      1.0  0.79704  0.15725  0.84503  1.0000
  H   H695      1.0  0.75561  0.39087  0.69435  1.0000
  C   C587      1.0  0.78444  0.31043  0.82285  1.0000
  C   C588      1.0  0.71283  0.05748  0.52873  1.0000
  H   H696      1.0  0.79607  0.21999  0.76909  1.0000
  H   H697      1.0  0.88354  0.07603  0.72190  1.0000
  C   C589      1.0  0.74163  0.01413  0.86425  1.0000
  H   H698      1.0  0.80859  0.24050  0.88601  1.0000
  C   C590      1.0  0.79842  0.18524  0.85342  1.0000
  H   H699      1.0  0.81419  0.18887  0.85807  1.0000
  H   H700      1.0  0.69364  0.03094  0.76175  1.0000
  H   H701      1.0  0.68342  0.06969  0.81356  1.0000
  H   H702      1.0  0.76084  0.20670  0.84272  1.0000
  H   H703      1.0  0.76890  0.17186  0.81322  1.0000
  C   C591      1.0  0.80133  0.25881  0.86780  1.0000
  H   H704      1.0  0.89388  0.40943  0.98061  1.0000
  H   H705      1.0  0.81012  0.30252  0.90037  1.0000
  H   H706      1.0  0.90770  0.05008  0.68102  1.0000
  H   H707      1.0  0.81614  0.47271  0.99194  1.0000
  C   C592      1.0  0.77016  0.20061  0.81889  1.0000
  C   C593      1.0  0.74015  0.00773  0.82752  1.0000
  C   C594      1.0  0.71694  0.03245  0.55664  1.0000
  H   H708      1.0  0.73947  0.10644  0.83109  1.0000
  C   C595      1.0  0.81329  0.47287  0.75399  1.0000
  C   C596      1.0  0.79161  0.24774  0.83620  1.0000
  H   H709      1.0  0.81740  0.21258  0.79598  1.0000
  C   C597      1.0  0.87864  0.41143  0.97080  1.0000
  H   H710      1.0  0.72204  0.00314  0.78217  1.0000
  H   H711      1.0  0.81831  0.04956  0.98454  1.0000
  N   N40       1.0  0.81311  0.44934  0.72230  1.0000
  H   H712      1.0  0.99335  0.30549  0.57769  1.0000
  C   C598      1.0  0.70538  0.02339  0.61773  1.0000
  C   C599      1.0  0.98619  0.02330  0.54210  1.0000
  C   C600      1.0  0.72195  0.00691  0.81098  1.0000
  C   C601      1.0  0.84669  0.02634  0.99418  1.0000
  H   H713      1.0  0.94978  0.00413  0.70970  1.0000
  H   H714      1.0  0.89240  0.49241  0.71468  1.0000
  H   H715      1.0  0.95582  0.00333  0.66302  1.0000
  C   C602      1.0  0.89675  0.01018  0.78286  1.0000
  H   H716      1.0  0.99930  0.29633  0.51361  1.0000
  C   C603      1.0  0.67511  0.48252  0.49841  1.0000
  H   H717      1.0  0.93999  0.03388  0.81899  1.0000
  C   C604      1.0  0.99729  0.49659  0.56642  1.0000
  S   S162      1.0  0.67470  0.33499  0.64847  1.0000
  C   C605      1.0  0.68553  0.00917  0.77464  1.0000
  C   C606      1.0  0.76429  0.47768  0.68183  1.0000
  C   C607      1.0  0.00103  0.48204  0.50229  1.0000
  H   H718      1.0  0.70676  0.03071  0.64655  1.0000
  C   C608      1.0  0.67468  0.04688  0.82250  1.0000
  C   C609      1.0  0.70654  0.01752  0.86877  1.0000
  C   C610      1.0  0.72485  0.01868  0.88493  1.0000
  H   H719      1.0  0.67376  0.45702  0.55081  1.0000
  H   H720      1.0  0.69397  0.02136  0.88590  1.0000
  H   H721      1.0  0.82229  0.49145  0.68689  1.0000
  H   H722      1.0  0.74244  0.00421  0.60585  1.0000
  H   H723      1.0  0.75584  0.01611  0.87653  1.0000
  H   H724      1.0  0.69018  0.02972  0.60939  1.0000
  H   H725      1.0  0.67249  0.20548  0.65567  1.0000
  H   H726      1.0  0.89320  0.01182  0.91280  1.0000
  H   H727      1.0  0.80805  0.50014  0.74761  1.0000
  Fe  Fe80      1.0  0.83287  0.56099  0.15810  1.0000
  S   S163      1.0  0.84028  0.53201  0.21014  1.0000
  S   S164      1.0  0.82358  0.52588  0.11137  1.0000
  Fe  Fe81      1.0  0.83414  0.63397  0.19465  1.0000
  S   S165      1.0  0.84177  0.60909  0.24785  1.0000
  S   S166      1.0  0.82517  0.69215  0.20066  1.0000
  Fe  Fe82      1.0  0.86270  0.57356  0.21766  1.0000
  S   S167      1.0  0.89458  0.57043  0.23633  1.0000
  Fe  Fe83      1.0  0.81873  0.57015  0.23590  1.0000
  S   S168      1.0  0.79747  0.56100  0.28207  1.0000
  S   S169      1.0  0.85648  0.60100  0.16420  1.0000
  S   S170      1.0  0.81001  0.59638  0.18416  1.0000
  Fe  Fe84      1.0  0.83400  0.95952  0.15070  1.0000
  C   C611      1.0  0.89698  0.55375  0.42759  1.0000
  H   H728      1.0  0.88218  0.56790  0.37825  1.0000
  Fe  Fe85      1.0  0.85276  0.89253  0.18264  1.0000
  S   S171      1.0  0.85408  0.91507  0.23850  1.0000
  S   S172      1.0  0.86567  0.83857  0.16768  1.0000
  Fe  Fe86      1.0  0.82331  0.93461  0.22761  1.0000
  S   S173      1.0  0.80264  0.92649  0.27532  1.0000
  Fe  Fe87      1.0  0.86386  0.96527  0.21196  1.0000
  H   H729      1.0  0.72233  0.91212  0.21097  1.0000
  S   S174      1.0  0.82157  0.90912  0.17309  1.0000
  S   S175      1.0  0.86511  0.94128  0.15656  1.0000
  H   H730      1.0  0.94552  0.52829  0.49026  1.0000
  Fe  Fe88      1.0  0.68387  0.58294  0.31716  1.0000
  S   S176      1.0  0.70512  0.57271  0.27108  1.0000
  S   S177      1.0  0.69258  0.59797  0.37298  1.0000
  Fe  Fe89      1.0  0.68809  0.95791  0.33196  1.0000
  H   H731      1.0  0.84950  0.93354  0.36625  1.0000
  S   S178      1.0  0.68731  0.91306  0.37191  1.0000
  H   H732      1.0  0.88811  0.50203  0.06111  1.0000
  C   C612      1.0  0.98583  0.93540  0.48263  1.0000
  C   C613      1.0  0.77785  0.94027  0.28049  1.0000
  C   C614      1.0  0.76723  0.92760  0.31017  1.0000
  C   C615      1.0  0.74757  0.93783  0.31549  1.0000
  C   C616      1.0  0.73823  0.96094  0.29110  1.0000
  C   C617      1.0  0.74892  0.97383  0.26163  1.0000
  C   C618      1.0  0.76857  0.96357  0.25628  1.0000
  H   H733      1.0  0.77428  0.90976  0.32920  1.0000
  H   H734      1.0  0.73975  0.92824  0.33871  1.0000
  H   H735      1.0  0.71508  0.80537  0.27126  1.0000
  H   H736      1.0  0.71304  0.53081  0.34042  1.0000
  H   H737      1.0  0.90677  0.95084  0.26558  1.0000
  S   S179      1.0  0.71343  0.97491  0.29610  1.0000
  C   C619      1.0  0.73031  0.86789  0.24725  1.0000
  H   H738      1.0  0.96559  0.53135  0.39783  1.0000
  H   H739      1.0  0.74535  0.82724  0.27945  1.0000
  C   C620      1.0  0.77192  0.56671  0.27788  1.0000
  C   C621      1.0  0.76247  0.56271  0.24492  1.0000
  C   C622      1.0  0.74203  0.56532  0.24315  1.0000
  C   C623      1.0  0.73086  0.57240  0.27415  1.0000
  C   C624      1.0  0.74039  0.57822  0.30670  1.0000
  C   C625      1.0  0.76078  0.57470  0.30868  1.0000
  H   H740      1.0  0.77087  0.55648  0.22100  1.0000
  H   H741      1.0  0.83239  0.93542  0.33014  1.0000
  H   H742      1.0  0.73206  0.58524  0.33039  1.0000
  H   H743      1.0  0.76798  0.57826  0.33421  1.0000
  H   H744      1.0  0.69783  0.91328  0.25272  1.0000
  C   C626      1.0  0.92875  0.54308  0.26518  1.0000
  C   C627      1.0  0.90897  0.53693  0.25851  1.0000
  C   C628      1.0  0.85016  0.99333  0.05102  1.0000
  C   C629      1.0  0.76799  0.87861  0.21850  1.0000
  H   H745      1.0  0.93491  0.56760  0.25626  1.0000
  Fe  Fe90      1.0  0.67047  0.55892  0.39180  1.0000
  C   C630      1.0  0.83658  0.73245  0.19016  1.0000
  C   C631      1.0  0.85305  0.73401  0.16817  1.0000
  C   C632      1.0  0.86156  0.76678  0.16084  1.0000
  C   C633      1.0  0.85369  0.79827  0.17539  1.0000
  C   C634      1.0  0.83709  0.79670  0.19706  1.0000
  C   C635      1.0  0.82860  0.76398  0.20434  1.0000
  H   H746      1.0  0.85905  0.71013  0.15640  1.0000
  H   H747      1.0  0.87440  0.76776  0.14404  1.0000
  H   H748      1.0  0.83092  0.82068  0.20846  1.0000
  H   H749      1.0  0.81582  0.76316  0.22126  1.0000
  C   C636      1.0  0.75224  0.89919  0.20639  1.0000
  H   H750      1.0  0.68077  0.87922  0.25943  1.0000
  H   H751      1.0  0.69379  0.88108  0.21780  1.0000
  C   C637      1.0  0.69521  0.88486  0.24734  1.0000
  C   C638      1.0  0.84332  0.54246  0.04767  1.0000
  H   H752      1.0  0.85087  0.56200  0.06297  1.0000
  C   C639      1.0  0.89516  0.55606  0.39025  1.0000
  H   H753      1.0  0.85900  0.97702  0.06886  1.0000
  H   H754      1.0  0.77771  0.83765  0.25473  1.0000
  C   C640      1.0  0.91389  0.97539  0.27063  1.0000
  S   S180      1.0  0.67649  0.51344  0.43114  1.0000
  H   H755      1.0  0.78247  0.88345  0.20831  1.0000
  H   H756      1.0  0.85746  0.92847  0.31989  1.0000
  N   N41       1.0  0.77162  0.67921  0.25374  1.0000
  C   C641      1.0  0.77630  0.71622  0.24460  1.0000
  C   C642      1.0  0.78813  0.66283  0.27402  1.0000
  C   C643      1.0  0.76994  0.65979  0.21931  1.0000
  C   C644      1.0  0.75377  0.67882  0.27615  1.0000
  C   C645      1.0  0.73654  0.66196  0.26531  1.0000
  C   C646      1.0  0.75320  0.69620  0.30993  1.0000
  C   C647      1.0  0.71984  0.66285  0.28694  1.0000
  C   C648      1.0  0.73644  0.69675  0.33140  1.0000
  C   C649      1.0  0.71978  0.68013  0.31990  1.0000
  H   H757      1.0  0.78906  0.71750  0.22617  1.0000
  H   H758      1.0  0.76388  0.72992  0.23079  1.0000
  H   H759      1.0  0.78007  0.73177  0.26869  1.0000
  H   H760      1.0  0.80151  0.66042  0.25714  1.0000
  H   H761      1.0  0.78466  0.63574  0.28333  1.0000
  H   H762      1.0  0.79211  0.67818  0.29809  1.0000
  H   H763      1.0  0.75818  0.67122  0.20198  1.0000
  H   H764      1.0  0.78360  0.66081  0.20312  1.0000
  H   H765      1.0  0.76725  0.63134  0.22413  1.0000
  H   H766      1.0  0.73562  0.64730  0.24056  1.0000
  H   H767      1.0  0.76577  0.70933  0.32007  1.0000
  H   H768      1.0  0.70695  0.64940  0.27831  1.0000
  H   H769      1.0  0.73634  0.70991  0.35725  1.0000
  H   H770      1.0  0.70684  0.68040  0.33672  1.0000
  N   N42       1.0  0.89914  0.67880  0.22320  1.0000
  C   C650      1.0  0.89845  0.66149  0.18750  1.0000
  C   C651      1.0  0.91582  0.66349  0.24380  1.0000
  C   C652      1.0  0.88108  0.66978  0.24282  1.0000
  C   C653      1.0  0.90161  0.71728  0.21855  1.0000
  C   C654      1.0  0.88843  0.74295  0.23326  1.0000
  C   C655      1.0  0.91777  0.73014  0.19907  1.0000
  C   C656      1.0  0.89127  0.77906  0.22826  1.0000
  C   C657      1.0  0.92030  0.76633  0.19384  1.0000
  C   C658      1.0  0.90699  0.79072  0.20822  1.0000
  H   H771      1.0  0.91223  0.66365  0.17216  1.0000
  H   H772      1.0  0.89586  0.63266  0.19015  1.0000
  H   H773      1.0  0.88655  0.67315  0.17064  1.0000
  H   H774      1.0  0.92983  0.66624  0.22928  1.0000
  H   H775      1.0  0.91420  0.63466  0.24881  1.0000
  H   H776      1.0  0.91716  0.67644  0.27045  1.0000
  H   H777      1.0  0.86786  0.67957  0.22815  1.0000
  H   H778      1.0  0.87973  0.64072  0.24582  1.0000
  H   H779      1.0  0.88086  0.68051  0.27061  1.0000
  H   H780      1.0  0.87546  0.73597  0.24778  1.0000
  H   H781      1.0  0.92849  0.71226  0.18740  1.0000
  H   H782      1.0  0.88069  0.79824  0.23850  1.0000
  H   H783      1.0  0.93248  0.77559  0.17815  1.0000
  H   H784      1.0  0.90856  0.81875  0.20322  1.0000
  H   H785      1.0  0.71453  0.89615  0.30774  1.0000
  C   C659      1.0  0.91004  0.54303  0.36824  1.0000
  H   H786      1.0  0.75461  0.91998  0.18674  1.0000
  H   H787      1.0  0.69039  0.81957  0.26690  1.0000
  C   C660      1.0  0.71919  0.52017  0.36611  1.0000
  C   C661      1.0  0.74670  0.84730  0.25885  1.0000
  C   C662      1.0  0.70538  0.82457  0.25683  1.0000
  H   H788      1.0  0.83793  0.99317  0.38751  1.0000
  H   H789      1.0  0.70825  0.52557  0.38751  1.0000
  H   H790      1.0  0.72218  0.85132  0.31651  1.0000
  S   S181      1.0  0.83313  0.98616  0.20477  1.0000
  H   H791      1.0  0.73482  0.56107  0.21774  1.0000
  C   C663      1.0  0.76525  0.85281  0.24476  1.0000
  C   C664      1.0  0.92898  0.52403  0.42134  1.0000
  C   C665      1.0  0.71123  0.86815  0.30216  1.0000
  C   C666      1.0  0.73367  0.89428  0.22065  1.0000
  S   S182      1.0  0.82088  0.99078  0.10321  1.0000
  H   H792      1.0  0.90860  0.54470  0.33916  1.0000
  H   H793      1.0  0.91408  0.53707  0.47215  1.0000
  H   H794      1.0  0.93695  0.95096  0.30226  1.0000
  N   N43       1.0  0.71085  0.86168  0.26287  1.0000
  H   H795      1.0  0.70580  0.81812  0.22764  1.0000
  H   H796      1.0  0.96262  0.55458  0.43937  1.0000
  C   C667      1.0  0.92674  0.52741  0.38344  1.0000
  C   C668      1.0  0.93107  0.97554  0.29138  1.0000
  C   C669      1.0  0.90296  0.98118  0.36532  1.0000
  C   C670      1.0  0.84781  0.53723  0.01088  1.0000
  C   C671      1.0  0.94072  0.51767  0.28310  1.0000
  H   H797      1.0  0.69696  0.86270  0.31489  1.0000
  C   C672      1.0  0.88450  0.96933  0.35646  1.0000
  C   C673      1.0  0.82927  0.52206  0.06461  1.0000
  C   C674      1.0  0.90129  0.50500  0.27025  1.0000
  C   C675      1.0  0.86944  0.99335  0.34512  1.0000
  C   C676      1.0  0.84729  0.94314  0.33814  1.0000
  H   H798      1.0  0.93786  0.51765  0.36513  1.0000
  H   H799      1.0  0.88536  0.56402  0.44460  1.0000
  C   C677      1.0  0.91363  0.53805  0.44311  1.0000
  H   H800      1.0  0.77651  0.97368  0.23341  1.0000
  H   H801      1.0  0.85697  0.98079  0.27899  1.0000
  H   H802      1.0  0.74191  0.99188  0.24271  1.0000
  H   H803      1.0  0.95588  0.52281  0.28783  1.0000
  H   H804      1.0  0.73223  0.53568  0.37257  1.0000
  N   N44       1.0  0.84976  0.98190  0.33508  1.0000
  H   H805      1.0  0.91447  0.96250  0.37288  1.0000
  H   H806      1.0  0.88257  0.94122  0.35810  1.0000
  H   H807      1.0  0.83129  0.98274  0.28811  1.0000
  H   H808      1.0  0.67311  0.76277  0.41871  1.0000
  H   H809      1.0  0.82005  0.99027  0.35234  1.0000
  C   C678      1.0  0.96381  0.52778  0.42739  1.0000
  C   C679      1.0  0.84566  0.99217  0.29721  1.0000
  C   C680      1.0  0.94617  0.50235  0.47639  1.0000
  N   N45       1.0  0.94666  0.50660  0.43655  1.0000
  H   H810      1.0  0.97231  0.94452  0.47038  1.0000
  H   H811      1.0  0.97753  0.51497  0.43747  1.0000
  H   H812      1.0  0.85878  0.55302  0.99816  1.0000
  H   H813      1.0  0.87310  0.99988  0.01201  1.0000
  C   C681      1.0  0.83497  0.99922  0.35862  1.0000
  C   C682      1.0  0.66986  0.76459  0.39025  1.0000
  S   S183      1.0  0.67049  0.69216  0.39270  1.0000
  Fe  Fe91      1.0  0.97842  0.55015  0.72431  1.0000
  H   H814      1.0  0.92955  0.64187  0.73170  1.0000
  H   H815      1.0  0.88187  0.66575  0.84416  1.0000
  C   C683      1.0  0.71882  0.99648  0.54634  1.0000
  H   H816      1.0  0.92782  0.57672  0.79310  1.0000
  H   H817      1.0  0.95844  0.68921  0.77198  1.0000
  S   S184      1.0  0.97626  0.59215  0.68081  1.0000
  H   H818      1.0  0.68159  0.57483  0.72665  1.0000
  Fe  Fe92      1.0  0.98325  0.95712  0.73842  1.0000
  H   H819      1.0  0.91126  0.96159  0.83977  1.0000
  S   S185      1.0  0.97567  0.93266  0.68553  1.0000
  H   H820      1.0  0.87003  0.92607  0.93077  1.0000
  H   H821      1.0  0.94262  0.60227  0.74491  1.0000
  C   C684      1.0  0.94233  0.63156  0.74715  1.0000
  H   H822      1.0  0.71706  0.95845  0.50352  1.0000
  C   C685      1.0  0.99490  0.75189  0.74032  1.0000
  H   H823      1.0  0.74508  0.51094  0.76527  1.0000
  H   H824      1.0  0.99260  0.74725  0.76877  1.0000
  S   S186      1.0  0.99455  0.67917  0.73495  1.0000
  H   H825      1.0  0.67094  0.98611  0.85865  1.0000
  C   C686      1.0  0.99970  0.72950  0.68019  1.0000
  C   C687      1.0  0.99909  0.79366  0.69064  1.0000
  C   C688      1.0  0.83830  0.51169  0.99048  1.0000
  H   H826      1.0  0.00017  0.93193  0.59802  1.0000
  H   H827      1.0  0.95568  0.64063  0.73320  1.0000
  C   C689      1.0  0.92404  0.97501  0.75805  1.0000
  H   H828      1.0  0.68085  0.95767  0.82433  1.0000
  C   C690      1.0  0.90344  0.94547  0.89441  1.0000
  N   N46       1.0  0.88366  0.96176  0.89338  1.0000
  Fe  Fe93      1.0  0.99782  0.96870  0.66133  1.0000
  H   H829      1.0  0.95697  0.90713  0.89600  1.0000
  C   C691      1.0  0.99184  0.85180  0.56216  1.0000
  H   H830      1.0  0.94438  0.93769  0.84143  1.0000
  C   C692      1.0  0.67303  0.54031  0.76985  1.0000
  H   H831      1.0  0.97169  0.90995  0.52619  1.0000
  C   C693      1.0  0.99657  0.72287  0.71686  1.0000
  H   H832      1.0  0.99165  0.89306  0.62044  1.0000
  C   C694      1.0  0.93502  0.93456  0.86480  1.0000
  Fe  Fe94      1.0  0.00066  0.89383  0.69544  1.0000
  C   C695      1.0  0.87189  0.95483  0.92621  1.0000
  H   H833      1.0  0.69134  0.51182  0.82955  1.0000
  C   C696      1.0  0.67342  0.98366  0.82918  1.0000
  H   H834      1.0  0.87434  0.60226  0.84609  1.0000
  C   C697      1.0  0.67709  0.50892  0.84333  1.0000
  C   C698      1.0  0.93718  0.99297  0.77948  1.0000
  H   H835      1.0  0.89741  0.55826  0.82011  1.0000
  H   H836      1.0  0.69225  0.98347  0.76638  1.0000
  C   C699      1.0  0.91597  0.94824  0.86413  1.0000
  C   C700      1.0  0.91115  0.92784  0.92540  1.0000
  C   C701      1.0  0.00087  0.76460  0.66724  1.0000
  C   C702      1.0  0.98567  0.91570  0.51463  1.0000
  C   C703      1.0  0.99244  0.90691  0.59396  1.0000
  H   H837      1.0  0.97726  0.91423  0.58641  1.0000
  S   S187      1.0  0.96248  0.98174  0.78042  1.0000
  S   S188      1.0  0.00030  0.83739  0.67221  1.0000
  H   H838      1.0  0.90282  0.92468  0.94984  1.0000
  C   C704      1.0  0.94213  0.91746  0.89554  1.0000
  S   S189      1.0  0.95585  0.52831  0.76383  1.0000
  H   H839      1.0  0.92561  0.51643  0.70913  1.0000
  N   N47       1.0  0.94157  0.64349  0.78512  1.0000
  C   C705      1.0  0.94442  0.68224  0.78499  1.0000
  C   C706      1.0  0.95810  0.62664  0.80492  1.0000
  C   C707      1.0  0.92301  0.63301  0.80191  1.0000
  C   C708      1.0  0.91814  0.59692  0.80371  1.0000
  C   C709      1.0  0.90939  0.65772  0.81697  1.0000
  C   C710      1.0  0.90077  0.58609  0.81929  1.0000
  C   C711      1.0  0.89206  0.64659  0.83271  1.0000
  C   C712      1.0  0.88776  0.61087  0.83385  1.0000
  H   H840      1.0  0.94494  0.69283  0.81283  1.0000
  H   H841      1.0  0.93283  0.69653  0.76943  1.0000
  H   H842      1.0  0.95745  0.63304  0.83409  1.0000
  H   H843      1.0  0.97233  0.63549  0.79423  1.0000
  H   H844      1.0  0.95840  0.59734  0.80259  1.0000
  H   H845      1.0  0.91177  0.68574  0.81702  1.0000
  S   S190      1.0  0.84489  0.50604  0.94426  1.0000
  Fe  Fe95      1.0  0.99813  0.62301  0.71188  1.0000
  C   C713      1.0  0.92033  0.50760  0.73505  1.0000
  C   C714      1.0  0.71636  0.98618  0.51059  1.0000
  S   S191      1.0  0.99860  0.58285  0.75655  1.0000
  H   H846      1.0  0.92928  0.95397  0.74074  1.0000
  H   H847      1.0  0.85706  0.96729  0.92426  1.0000
  H   H848      1.0  0.87844  0.96662  0.95059  1.0000
  H   H849      1.0  0.87233  0.91919  0.86240  1.0000
  H   H850      1.0  0.93588  0.90085  0.94968  1.0000
  C   C715      1.0  0.93022  0.91401  0.92573  1.0000
  H   H851      1.0  0.99485  0.80888  0.74584  1.0000
  H   H852      1.0  0.79012  0.50386  0.69552  1.0000
  H   H853      1.0  0.70751  0.99431  0.61672  1.0000
  H   H854      1.0  0.85752  0.95916  0.86146  1.0000
  H   H855      1.0  0.72188  0.97591  0.56595  1.0000
  C   C716      1.0  0.87276  0.94851  0.86199  1.0000
  H   H856      1.0  0.68763  0.52929  0.77201  1.0000
  H   H857      1.0  0.97636  0.85685  0.55497  1.0000
  H   H858      1.0  0.67331  0.53443  0.85662  1.0000
  C   C717      1.0  0.99622  0.78699  0.72740  1.0000
  C   C718      1.0  0.93227  0.50975  0.76537  1.0000
  H   H859      1.0  0.89393  0.96912  0.74352  1.0000
  C   C719      1.0  0.90397  0.98357  0.75980  1.0000
  H   H860      1.0  0.87916  0.95676  0.83581  1.0000
  H   H861      1.0  0.99174  0.83592  0.58764  1.0000
  H   H862      1.0  0.99856  0.83505  0.54075  1.0000
  H   H863      1.0  0.00103  0.70763  0.66171  1.0000
  S   S192      1.0  0.98619  0.99996  0.61249  1.0000
  Fe  Fe96      1.0  0.00264  0.56368  0.65665  1.0000
  H   H864      1.0  0.75683  0.50176  0.67299  1.0000
  N   N48       1.0  0.00258  0.88491  0.56658  1.0000
  C   C720      1.0  0.88524  0.00049  0.88970  1.0000
