data_image0
_chemical_formula_structural       FeSCFeS2FeSFeS3FeS2FeS2FeSFeS3CH2CNHCNCH3CH4SHC6H4CH2C2H3CHC2H3CH2CHNCHC3H2CHCHC2H2C4H9C2HC2H3CH2C3H5C3HCH5CHCHC2HNC3H3SC2H3CHNCH2C4H2CH3C2H2CH2C5H2NH2CH2CHCHC2H3SHCHCHC2H2SCH2C5H2C2FeSCHCFeSC2HFeCFeS2H3S2NC2H2CNCH2SH5C2FeC2SH10C4HCNH6CHSC2HCH2CHC2H2SH2SHCHC5HC2H2FeHC2HSFeSCFeSFeS3FeSHFeSFeS2H3CSHC5H2C8H5NH5CH2CHSH4NHFe2HCHC3H2CHC2HC3HC2HCHC2HC3SH2CHCHS2HCHC3H2FeCH2CH8C3H3SHNC3H4SCH2CHCNCHCHC2HCHCH2NFeH2C3SC5H2C2HC3H3C2HCH3C2H3FeS2FeS2FeSFeS3FeS2FeSHFeSFeS4HCHC2H3C6H4C2HC3HCH3C2HNH4C3HCHC3HC2H2C2HCH3CHC2H3CHNH6CHCH4C2HFeS2FeSCFeHFeS3FeS2FeS2FeSFeS3CHSCHC2H4CH3C3HC6H5CH2C3NH2C2H6C2HCHC2H2CH2CNCHC2HC2H5CH6C2NSHC2HC3HCH2CHC2H6SHC4H2C2HCH7CH2CH2CHCH3C4HCHNHC2HSCHC3HC2H4C2HC2HCH3Fe2SFeNHSHS2CHFeS2FeSHSH2CHSH2C2H3C2H2C4H3C2NC2HSHSCH2CH7C3H2CHCH2CHCHC3HCHCH2C5FeC2H4NHCHCHCHSFeS2FeSFeHSFeS2FeSFeCS2C2HCH2CHCH2C4H3C2HNC2NCH5C2NHC2HCH2CH3CFeSHCSH2C2HCH3CH4CHC2HCHC3FeH2C2H2CHC4SH2C3HCH2C2H3CSH4CNSHSHC3HFeH3CHCHCS2CHCHCH3C2H2CH3C2H2CHSHC5HCHCH2FeCH2FeS2FeS2FeSFeS3FeS2FeS2FeSFeCS2C2H2C4HC6H4C3H2C3H3C2HCHCH2NC3HCHCHCH9CHCH2NC7H13NH2NH8CH3C6HC2H2C2HCHC3HC2HNCH3SH2CHCHC2H2CH3C2H
_chemical_formula_sum              "Fe64 S128 C480 H576 N32"
_cell_length_a       38.5709
_cell_length_b       40.6821
_cell_length_c       39.9797
_cell_angle_alpha    89.9838
_cell_angle_beta     89.723
_cell_angle_gamma    90.2801

_space_group_name_H-M_alt    "P 1"
_space_group_IT_number       1

loop_
  _space_group_symop_operation_xyz
  'x, y, z'

loop_
  _atom_site_type_symbol
  _atom_site_label
  _atom_site_symmetry_multiplicity
  _atom_site_fract_x
  _atom_site_fract_y
  _atom_site_fract_z
  _atom_site_occupancy
  Fe  Fe1       1.0  0.21646  0.16875  0.45466  1.0000
  S   S1        1.0  0.23196  0.12607  0.42127  1.0000
  C   C1        1.0  0.16580  0.23411  0.24648  1.0000
  Fe  Fe2       1.0  0.13925  0.16276  0.43584  1.0000
  S   S2        1.0  0.14950  0.12062  0.40133  1.0000
  S   S3        1.0  0.08673  0.18097  0.45520  1.0000
  Fe  Fe3       1.0  0.18422  0.10066  0.44146  1.0000
  S   S4        1.0  0.17337  0.04734  0.45572  1.0000
  Fe  Fe4       1.0  0.19652  0.14920  0.38316  1.0000
  S   S5        1.0  0.20262  0.14851  0.32574  1.0000
  S   S6        1.0  0.17135  0.14110  0.47693  1.0000
  S   S7        1.0  0.18367  0.19352  0.41548  1.0000
  Fe  Fe5       1.0  0.30681  0.17420  0.09061  1.0000
  S   S8        1.0  0.29283  0.13299  0.12654  1.0000
  S   S9        1.0  0.26081  0.19939  0.06533  1.0000
  Fe  Fe6       1.0  0.38487  0.16675  0.10407  1.0000
  S   S10       1.0  0.37585  0.12678  0.14179  1.0000
  S   S11       1.0  0.43793  0.17954  0.08184  1.0000
  Fe  Fe7       1.0  0.33834  0.10606  0.10414  1.0000
  S   S12       1.0  0.34439  0.05104  0.09460  1.0000
  Fe  Fe8       1.0  0.33108  0.15707  0.16110  1.0000
  S   S13       1.0  0.32391  0.16860  0.21702  1.0000
  S   S14       1.0  0.34895  0.14480  0.06558  1.0000
  S   S15       1.0  0.34338  0.19939  0.12609  1.0000
  C   C2        1.0  0.33905  0.03200  0.05507  1.0000
  H   H1        1.0  0.11012  0.08695  0.47527  1.0000
  H   H2        1.0  0.10254  0.03609  0.44264  1.0000
  C   C3        1.0  0.43831  0.05465  0.13245  1.0000
  N   N1        1.0  0.24296  0.23593  0.16777  1.0000
  H   H3        1.0  0.07896  0.05946  0.41281  1.0000
  C   C4        1.0  0.47848  0.17653  0.10233  1.0000
  N   N2        1.0  0.06040  0.06439  0.46361  1.0000
  C   C5        1.0  0.08280  0.09353  0.46984  1.0000
  H   H4        1.0  0.45883  0.18589  0.15184  1.0000
  H   H5        1.0  0.27233  0.27509  0.19047  1.0000
  H   H6        1.0  0.01740  0.19014  0.48018  1.0000
  C   C6        1.0  0.25908  0.23775  0.04398  1.0000
  H   H7        1.0  0.07275  0.10860  0.49094  1.0000
  H   H8        1.0  0.50623  0.16696  0.05646  1.0000
  H   H9        1.0  0.31714  0.07416  0.03070  1.0000
  H   H10       1.0  0.44472  0.11474  0.10816  1.0000
  S   S16       1.0  0.25503  0.19060  0.49238  1.0000
  H   H11       1.0  0.20549  0.21202  0.27644  1.0000
  C   C7        1.0  0.23809  0.15130  0.29688  1.0000
  C   C8        1.0  0.23314  0.14087  0.26360  1.0000
  C   C9        1.0  0.25949  0.14463  0.23915  1.0000
  C   C10       1.0  0.29102  0.15971  0.24745  1.0000
  C   C11       1.0  0.29605  0.16993  0.28076  1.0000
  C   C12       1.0  0.26995  0.16556  0.30536  1.0000
  H   H12       1.0  0.20858  0.12996  0.25663  1.0000
  H   H13       1.0  0.25509  0.13638  0.21382  1.0000
  H   H14       1.0  0.32025  0.18164  0.28757  1.0000
  H   H15       1.0  0.27419  0.17395  0.33069  1.0000
  C   C13       1.0  0.15735  0.24696  0.21525  1.0000
  H   H16       1.0  0.25956  0.18654  0.17902  1.0000
  H   H17       1.0  0.32925  0.31681  0.49263  1.0000
  C   C14       1.0  0.04257  0.15596  0.40653  1.0000
  C   C15       1.0  0.04566  0.17105  0.43780  1.0000
  H   H18       1.0  0.11360  0.03926  0.50103  1.0000
  H   H19       1.0  0.06561  0.15045  0.39207  1.0000
  H   H20       1.0  0.40980  0.05148  0.12916  1.0000
  C   C16       1.0  0.01535  0.17832  0.45604  1.0000
  H   H21       1.0  0.14382  0.21345  0.48131  1.0000
  C   C17       1.0  0.19914  0.22259  0.25227  1.0000
  C   C18       1.0  0.39848  0.31096  0.47762  1.0000
  H   H22       1.0  0.42127  0.29481  0.47307  1.0000
  H   H23       1.0  0.22896  0.25540  0.47183  1.0000
  H   H24       1.0  0.06014  0.02266  0.43053  1.0000
  C   C19       1.0  0.24321  0.25823  0.49490  1.0000
  H   H25       1.0  0.32379  0.21211  0.45978  1.0000
  H   H26       1.0  0.34032  0.26997  0.46205  1.0000
  C   C20       1.0  0.44580  0.03816  0.07533  1.0000
  H   H27       1.0  0.41428  0.09399  0.08235  1.0000
  N   N3        1.0  0.45584  0.06332  0.10048  1.0000
  C   C21       1.0  0.05775  0.04377  0.49410  1.0000
  H   H28       1.0  0.41708  0.03697  0.07212  1.0000
  C   C22       1.0  0.50851  0.17075  0.08314  1.0000
  C   C23       1.0  0.25395  0.29823  0.00875  1.0000
  C   C24       1.0  0.49376  0.06593  0.10586  1.0000
  H   H29       1.0  0.18657  0.21638  0.49717  1.0000
  H   H30       1.0  0.14642  0.23266  0.26617  1.0000
  C   C25       1.0  0.32454  0.04867  0.02800  1.0000
  H   H31       1.0  0.20442  0.23295  0.03381  1.0000
  C   C26       1.0  0.48169  0.18120  0.13682  1.0000
  H   H32       1.0  0.45661  0.10432  0.06625  1.0000
  C   C27       1.0  0.44235  0.09535  0.08878  1.0000
  C   C28       1.0  0.28575  0.28780  0.02219  1.0000
  H   H33       1.0  0.13123  0.25560  0.21078  1.0000
  H   H34       1.0  0.02946  0.09231  0.42893  1.0000
  C   C29       1.0  0.27628  0.25022  0.17959  1.0000
  C   C30       1.0  0.02642  0.07667  0.45159  1.0000
  C   C31       1.0  0.22724  0.24824  0.03070  1.0000
  C   C32       1.0  0.23274  0.25423  0.13717  1.0000
  H   H35       1.0  0.22906  0.06201  0.50327  1.0000
  H   H36       1.0  0.26762  0.19958  0.13704  1.0000
  H   H37       1.0  0.22662  0.28033  0.14290  1.0000
  H   H38       1.0  0.25383  0.25435  0.11796  1.0000
  H   H39       1.0  0.21022  0.24251  0.12446  1.0000
  H   H40       1.0  0.24936  0.21385  0.23250  1.0000
  H   H41       1.0  0.28911  0.23464  0.19876  1.0000
  H   H42       1.0  0.31302  0.25011  0.04977  1.0000
  H   H43       1.0  0.29563  0.25245  0.15894  1.0000
  C   C33       1.0  0.24887  0.20131  0.15809  1.0000
  C   C34       1.0  0.21653  0.23672  0.19476  1.0000
  H   H44       1.0  0.08430  0.10982  0.44749  1.0000
  C   C35       1.0  0.28833  0.25780  0.03976  1.0000
  C   C36       1.0  0.22416  0.22383  0.22689  1.0000
  H   H45       1.0  0.44142  0.07407  0.15179  1.0000
  H   H46       1.0  0.22442  0.18919  0.14982  1.0000
  H   H47       1.0  0.16229  0.25317  0.48945  1.0000
  C   C37       1.0  0.18218  0.24820  0.18960  1.0000
  H   H48       1.0  0.17372  0.25785  0.16587  1.0000
  H   H49       1.0  0.30861  0.30298  0.01884  1.0000
  C   C38       1.0  0.34995  0.25397  0.48144  1.0000
  C   C39       1.0  0.07611  0.04479  0.43624  1.0000
  C   C40       1.0  0.18863  0.02716  0.49200  1.0000
  H   H50       1.0  0.45679  0.04402  0.05023  1.0000
  H   H51       1.0  0.44867  0.03136  0.14292  1.0000
  H   H52       1.0  0.23397  0.31044  0.49840  1.0000
  H   H53       1.0  0.26701  0.00956  0.12620  1.0000
  H   H54       1.0  0.38134  0.30927  0.45543  1.0000
  C   C41       1.0  0.16043  0.22749  0.49890  1.0000
  C   C42       1.0  0.34041  0.22084  0.47978  1.0000
  C   C43       1.0  0.50721  0.08891  0.12925  1.0000
  H   H55       1.0  0.26392  0.01887  0.06542  1.0000
  C   C44       1.0  0.22464  0.27827  0.01318  1.0000
  H   H56       1.0  0.49031  0.10523  0.14303  1.0000
  H   H57       1.0  0.01331  0.09215  0.47079  1.0000
  H   H58       1.0  0.45401  0.01313  0.08307  1.0000
  H   H59       1.0  0.40803  0.33684  0.47847  1.0000
  H   H60       1.0  0.34225  0.17363  0.50365  1.0000
  C   C45       1.0  0.08818  0.03242  0.51016  1.0000
  H   H61       1.0  0.29701  0.30725  0.83889  1.0000
  C   C46       1.0  0.21645  0.03931  0.51068  1.0000
  H   H62       1.0  0.41048  0.33687  0.53738  1.0000
  C   C47       1.0  0.31111  0.22138  0.93281  1.0000
  C   C48       1.0  0.37062  0.26630  0.50799  1.0000
  H   H63       1.0  0.29044  0.21441  0.55059  1.0000
  N   N4        1.0  0.14652  0.22603  0.53341  1.0000
  C   C49       1.0  0.15211  0.12447  0.56493  1.0000
  C   C50       1.0  0.34861  0.32170  0.51253  1.0000
  C   C51       1.0  0.31864  0.03206  0.99761  1.0000
  H   H64       1.0  0.26889  0.27423  0.82453  1.0000
  H   H65       1.0  0.30680  0.04503  0.97702  1.0000
  H   H66       1.0  0.31513  0.25554  0.85593  1.0000
  S   S17       1.0  0.33787  0.33264  0.63591  1.0000
  C   C52       1.0  0.08656  0.01130  0.53774  1.0000
  C   C53       1.0  0.18189  0.14394  0.56377  1.0000
  H   H67       1.0  0.50533  0.32274  0.59545  1.0000
  H   H68       1.0  0.26075  0.06478  0.91455  1.0000
  H   H69       1.0  0.39602  0.25047  0.55441  1.0000
  C   C54       1.0  0.26578  0.29399  0.53924  1.0000
  H   H70       1.0  0.15393  0.09878  0.57192  1.0000
  N   N5        1.0  0.38033  0.30157  0.50904  1.0000
  C   C55       1.0  0.14780  0.19149  0.54522  1.0000
  H   H71       1.0  0.09281  0.17906  0.53811  1.0000
  H   H72       1.0  0.25094  0.03043  0.55212  1.0000
  C   C56       1.0  0.17993  0.17685  0.55388  1.0000
  C   C57       1.0  0.16795  0.24778  0.55505  1.0000
  C   C58       1.0  0.22876  0.02139  0.53836  1.0000
  C   C59       1.0  0.27816  0.23536  0.53902  1.0000
  H   H73       1.0  0.29694  0.26976  0.57621  1.0000
  H   H74       1.0  0.32480  0.20370  0.94811  1.0000
  C   C60       1.0  0.27505  0.02541  0.88129  1.0000
  H   H75       1.0  0.20635  0.28170  0.89563  1.0000
  H   H76       1.0  0.09728  0.12237  0.55618  1.0000
  H   H77       1.0  0.20414  0.19019  0.55165  1.0000
  C   C61       1.0  0.27602  0.01327  0.84801  1.0000
  C   C62       1.0  0.11800  0.17072  0.54601  1.0000
  H   H78       1.0  0.19619  0.24310  0.55236  1.0000
  H   H79       1.0  0.20427  0.30187  0.85623  1.0000
  C   C63       1.0  0.26997  0.29756  0.83899  1.0000
  H   H80       1.0  0.20687  0.13321  0.56947  1.0000
  H   H81       1.0  0.23626  0.09939  0.86959  1.0000
  C   C64       1.0  0.24732  0.06433  0.83069  1.0000
  C   C65       1.0  0.26493  0.26088  0.92660  1.0000
  C   C66       1.0  0.28244  0.23765  0.94586  1.0000
  C   C67       1.0  0.27543  0.26830  0.89333  1.0000
  C   C68       1.0  0.28194  0.26675  0.55361  1.0000
  H   H82       1.0  0.16498  0.27423  0.54848  1.0000
  H   H83       1.0  0.09433  0.22758  0.51370  1.0000
  N   N6        1.0  0.25642  0.29315  0.87358  1.0000
  H   H84       1.0  0.09803  0.23712  0.55785  1.0000
  H   H85       1.0  0.16084  0.24473  0.58189  1.0000
  C   C69       1.0  0.25870  0.32544  0.89065  1.0000
  H   H86       1.0  0.21651  0.25923  0.85837  1.0000
  H   H87       1.0  0.34486  0.21560  0.89041  1.0000
  C   C70       1.0  0.32232  0.22816  0.90033  1.0000
  H   H88       1.0  0.39084  0.30559  0.56198  1.0000
  C   C71       1.0  0.11084  0.23970  0.53298  1.0000
  H   H89       1.0  0.23630  0.07945  0.81112  1.0000
  C   C72       1.0  0.30487  0.25126  0.88072  1.0000
  C   C73       1.0  0.12026  0.13782  0.55602  1.0000
  H   H90       1.0  0.25426  0.31561  0.82468  1.0000
  H   H91       1.0  0.24334  0.27339  0.93830  1.0000
  H   H92       1.0  0.26025  0.02627  0.79690  1.0000
  S   S18       1.0  0.26850  0.33401  0.55703  1.0000
  H   H93       1.0  0.27396  0.23258  0.97127  1.0000
  C   C74       1.0  0.21937  0.28350  0.87087  1.0000
  H   H94       1.0  0.24646  0.32499  0.91582  1.0000
  C   C75       1.0  0.40352  0.31023  0.53730  1.0000
  H   H95       1.0  0.28493  0.01108  0.90187  1.0000
  C   C76       1.0  0.24723  0.07561  0.86360  1.0000
  C   C77       1.0  0.26102  0.05614  0.88886  1.0000
  H   H96       1.0  0.33555  0.31657  0.53684  1.0000
  H   H97       1.0  0.42833  0.29642  0.53632  1.0000
  S   S19       1.0  0.25269  0.33571  0.98578  1.0000
  C   C78       1.0  0.26136  0.03359  0.82283  1.0000
  H   H98       1.0  0.28614  0.33322  0.89421  1.0000
  H   H99       1.0  0.37841  0.19331  0.55066  1.0000
  C   C79       1.0  0.02414  0.01163  0.53525  1.0000
  C   C80       1.0  0.25872  0.23083  0.50965  1.0000
  C   C81       1.0  0.24635  0.28949  0.50987  1.0000
  C   C82       1.0  0.37087  0.21030  0.53114  1.0000
  C   C83       1.0  0.38077  0.24341  0.53298  1.0000
  H   H100      1.0  0.11081  0.26625  0.52623  1.0000
  H   H101      1.0  0.20000  0.28590  0.00302  1.0000
  C   C84       1.0  0.02549  0.03288  0.50768  1.0000
  C   C85       1.0  0.35074  0.19907  0.50462  1.0000
  Fe  Fe9       1.0  0.39211  0.64444  0.44625  1.0000
  S   S20       1.0  0.35581  0.61054  0.41938  1.0000
  C   C86       1.0  0.24351  0.53667  0.39117  1.0000
  H   H102      1.0  0.21527  0.58065  0.24789  1.0000
  C   C87       1.0  0.44291  0.65951  0.30579  1.0000
  Fe  Fe10      1.0  0.32060  0.61488  0.46370  1.0000
  S   S21       1.0  0.29455  0.56624  0.47755  1.0000
  C   C88       1.0  0.27051  0.65235  0.25308  1.0000
  C   C89       1.0  0.04797  0.60018  0.21606  1.0000
  H   H103      1.0  0.04445  0.50335  0.01496  1.0000
  Fe  Fe11      1.0  0.20021  0.65450  0.17577  1.0000
  C   C90       1.0  0.21395  0.57200  0.33258  1.0000
  Fe  Fe12      1.0  0.19305  0.61022  0.11297  1.0000
  S   S22       1.0  0.18150  0.65256  0.07852  1.0000
  S   S23       1.0  0.19881  0.55607  0.09929  1.0000
  H   H104      1.0  0.30675  0.53394  0.36291  1.0000
  H   H105      1.0  0.24835  0.66291  0.34754  1.0000
  H   H106      1.0  0.22754  0.60126  0.39318  1.0000
  S   S24       1.0  0.23837  0.63523  0.13799  1.0000
  S   S25       1.0  0.15557  0.62610  0.15320  1.0000
  N   N7        1.0  0.26215  0.56392  0.37397  1.0000
  C   C91       1.0  0.29983  0.55694  0.37635  1.0000
  C   C92       1.0  0.05256  0.64082  0.11192  1.0000
  H   H107      1.0  0.07603  0.62636  0.11194  1.0000
  H   H108      1.0  0.39497  0.62916  0.34737  1.0000
  C   C93       1.0  0.25998  0.57200  0.27853  1.0000
  N   N8        1.0  0.27029  0.60973  0.01837  1.0000
  C   C94       1.0  0.02455  0.58255  0.23581  1.0000
  H   H109      1.0  0.49759  0.65514  0.29062  1.0000
  H   H110      1.0  0.50129  0.65981  0.34787  1.0000
  S   S26       1.0  0.20120  0.65761  0.23337  1.0000
  H   H111      1.0  0.27686  0.64937  0.22687  1.0000
  H   H112      1.0  0.20178  0.66453  0.30486  1.0000
  H   H113      1.0  0.25369  0.53263  0.41698  1.0000
  H   H114      1.0  0.17440  0.58055  0.29558  1.0000
  H   H115      1.0  0.08683  0.44006  0.02112  1.0000
  C   C95       1.0  0.19802  0.50350  0.05615  1.0000
  C   C96       1.0  0.19081  0.53715  0.06000  1.0000
  Fe  Fe13      1.0  0.32935  0.65483  0.39841  1.0000
  C   C97       1.0  0.26175  0.61193  0.05446  1.0000
  C   C98       1.0  0.01995  0.62512  0.11119  1.0000
  S   S27       1.0  0.32380  0.65189  0.34123  1.0000
  H   H116      1.0  0.24633  0.51321  0.37712  1.0000
  H   H117      1.0  0.27782  0.57302  0.25751  1.0000
  H   H118      1.0  0.19521  0.57299  0.35270  1.0000
  H   H119      1.0  0.26419  0.59315  0.41882  1.0000
  H   H120      1.0  0.42616  0.61315  0.37531  1.0000
  H   H121      1.0  0.04295  0.44654  0.03433  1.0000
  H   H122      1.0  0.01858  0.59855  0.11072  1.0000
  H   H123      1.0  0.28069  0.59852  0.07028  1.0000
  H   H124      1.0  0.26144  0.63772  0.06354  1.0000
  H   H125      1.0  0.29591  0.56298  0.02501  1.0000
  C   C99       1.0  0.48775  0.64551  0.44381  1.0000
  C   C100      1.0  0.05936  0.43949  0.01261  1.0000
  C   C101      1.0  0.30399  0.62657  0.01236  1.0000
  C   C102      1.0  0.42270  0.62215  0.34919  1.0000
  H   H126      1.0  0.17229  0.58058  0.03518  1.0000
  C   C103      1.0  0.19311  0.48758  0.02519  1.0000
  N   N9        1.0  0.44655  0.64990  0.34133  1.0000
  H   H127      1.0  0.30415  0.65230  0.02191  1.0000
  H   H128      1.0  0.07486  0.59263  0.21447  1.0000
  H   H129      1.0  0.30811  0.55373  0.40288  1.0000
  H   H130      1.0  0.19914  0.46175  0.02258  1.0000
  H   H131      1.0  0.31570  0.57763  0.36616  1.0000
  H   H132      1.0  0.05457  0.64007  0.18147  1.0000
  C   C104      1.0  0.22468  0.57630  0.27304  1.0000
  H   H133      1.0  0.23571  0.60121  0.05962  1.0000
  S   S28       1.0  0.44732  0.62459  0.44395  1.0000
  C   C105      1.0  0.27255  0.56779  0.31101  1.0000
  C   C106      1.0  0.25548  0.59486  0.39237  1.0000
  H   H134      1.0  0.21542  0.54162  0.39438  1.0000
  C   C107      1.0  0.17820  0.55473  0.03257  1.0000
  H   H135      1.0  0.26955  0.61583  0.38054  1.0000
  H   H136      1.0  0.49077  0.61810  0.33494  1.0000
  C   C108      1.0  0.20171  0.57636  0.30000  1.0000
  H   H137      1.0  0.30031  0.56571  0.31340  1.0000
  C   C109      1.0  0.24977  0.56742  0.33912  1.0000
  C   C110      1.0  0.23597  0.65712  0.26273  1.0000
  H   H138      1.0  0.42715  0.60105  0.33204  1.0000
  H   H139      1.0  0.20772  0.48965  0.07721  1.0000
  S   S29       1.0  0.35847  0.64604  0.49245  1.0000
  H   H140      1.0  0.32565  0.61397  0.02538  1.0000
  H   H141      1.0  0.48356  0.63116  0.37686  1.0000
  S   S30       1.0  0.29132  0.65776  0.44137  1.0000
  H   H142      1.0  0.32340  0.64700  0.26964  1.0000
  C   C111      1.0  0.29688  0.65101  0.27746  1.0000
  H   H143      1.0  0.03337  0.56131  0.24971  1.0000
  C   C112      1.0  0.28924  0.65459  0.31177  1.0000
  C   C113      1.0  0.03657  0.62702  0.19761  1.0000
  C   C114      1.0  0.47147  0.66095  0.28314  1.0000
  C   C115      1.0  0.48216  0.63935  0.35033  1.0000
  C   C116      1.0  0.25474  0.65972  0.32139  1.0000
  H   H144      1.0  0.25094  0.55984  0.01613  1.0000
  C   C117      1.0  0.22834  0.66085  0.29703  1.0000
  C   C118      1.0  0.27478  0.57436  0.01014  1.0000
  H   H145      1.0  0.05295  0.41344  0.00647  1.0000
  H   H146      1.0  0.28099  0.49882  0.49562  1.0000
  Fe  Fe14      1.0  0.14703  0.67018  0.12059  1.0000
  H   H147      1.0  0.10357  0.66533  0.22447  1.0000
  C   C119      1.0  0.41000  0.66847  0.29299  1.0000
  C   C120      1.0  0.46694  0.67029  0.24974  1.0000
  H   H148      1.0  0.38721  0.66863  0.30882  1.0000
  S   S31       1.0  0.28695  0.39711  0.62850  1.0000
  Fe  Fe15      1.0  0.38168  0.36538  0.61774  1.0000
  S   S32       1.0  0.36764  0.40634  0.65240  1.0000
  C   C121      1.0  0.33013  0.47087  0.70771  1.0000
  Fe  Fe16      1.0  0.32146  0.37575  0.66819  1.0000
  S   S33       1.0  0.31459  0.37797  0.72542  1.0000
  Fe  Fe17      1.0  0.33390  0.42540  0.61101  1.0000
  S   S34       1.0  0.33604  0.48120  0.60558  1.0000
  S   S35       1.0  0.35125  0.38647  0.57489  1.0000
  S   S36       1.0  0.22355  0.40299  0.92493  1.0000
  Fe  Fe18      1.0  0.12998  0.37234  0.94606  1.0000
  S   S37       1.0  0.14107  0.41266  0.90918  1.0000
  H   H149      1.0  0.07810  0.46796  0.93488  1.0000
  Fe  Fe19      1.0  0.18463  0.38097  0.88972  1.0000
  S   S38       1.0  0.19094  0.37193  0.83317  1.0000
  Fe  Fe20      1.0  0.17907  0.43149  0.94742  1.0000
  S   S39       1.0  0.17617  0.48676  0.95767  1.0000
  S   S40       1.0  0.16624  0.39262  0.98527  1.0000
  H   H150      1.0  0.34138  0.47042  0.68194  1.0000
  H   H151      1.0  0.26497  0.39006  0.83843  1.0000
  H   H152      1.0  0.16365  0.55257  0.98048  1.0000
  C   C122      1.0  0.29695  0.50937  0.51505  1.0000
  S   S41       1.0  0.07650  0.35959  0.96745  1.0000
  H   H153      1.0  0.33255  0.44565  0.71826  1.0000
  C   C123      1.0  0.32608  0.50358  0.56867  1.0000
  C   C124      1.0  0.30620  0.48999  0.54289  1.0000
  C   C125      1.0  0.03513  0.35982  0.94793  1.0000
  C   C126      1.0  0.33715  0.53647  0.56592  1.0000
  C   C127      1.0  0.24267  0.62595  0.99882  1.0000
  H   H154      1.0  0.22378  0.58272  0.97117  1.0000
  H   H155      1.0  0.35248  0.54726  0.58570  1.0000
  C   C128      1.0  0.27941  0.37740  0.75458  1.0000
  C   C129      1.0  0.22554  0.37528  0.80353  1.0000
  C   C130      1.0  0.25934  0.38401  0.81268  1.0000
  C   C131      1.0  0.28608  0.38479  0.78840  1.0000
  C   C132      1.0  0.50689  0.34627  0.60797  1.0000
  C   C133      1.0  0.18886  0.65821  0.96357  1.0000
  C   C134      1.0  0.47613  0.36252  0.61717  1.0000
  C   C135      1.0  0.47858  0.39288  0.63344  1.0000
  H   H156      1.0  0.21531  0.44423  0.79022  1.0000
  H   H157      1.0  0.31613  0.51541  0.76268  1.0000
  H   H158      1.0  0.19283  0.36135  0.76225  1.0000
  H   H159      1.0  0.24683  0.46708  0.68148  1.0000
  H   H160      1.0  0.28142  0.57079  0.98327  1.0000
  N   N10       1.0  0.29341  0.48156  0.70750  1.0000
  H   H161      1.0  0.24266  0.47831  0.83384  1.0000
  H   H162      1.0  0.33718  0.58090  0.53611  1.0000
  H   H163      1.0  0.23738  0.44405  0.73357  1.0000
  H   H164      1.0  0.29303  0.51377  0.81974  1.0000
  H   H165      1.0  0.45518  0.40564  0.64074  1.0000
  C   C136      1.0  0.08031  0.45241  0.95765  1.0000
  H   H166      1.0  0.29729  0.46480  0.54475  1.0000
  H   H167      1.0  0.17809  0.61099  0.94178  1.0000
  C   C137      1.0  0.29186  0.51560  0.69425  1.0000
  H   H168      1.0  0.10721  0.45576  0.96722  1.0000
  S   S42       1.0  0.43550  0.34371  0.60814  1.0000
  H   H169      1.0  0.26477  0.52493  0.69458  1.0000
  H   H170      1.0  0.31215  0.39129  0.79585  1.0000
  H   H171      1.0  0.30818  0.53299  0.70874  1.0000
  H   H172      1.0  0.30145  0.51690  0.66784  1.0000
  N   N11       1.0  0.05385  0.46107  0.98321  1.0000
  H   H173      1.0  0.48427  0.35200  0.74498  1.0000
  Fe  Fe21      1.0  0.30646  0.35628  0.59496  1.0000
  Fe  Fe22      1.0  0.20751  0.36204  0.96034  1.0000
  H   H174      1.0  0.28577  0.46188  0.65797  1.0000
  C   C138      1.0  0.27900  0.48039  0.74192  1.0000
  H   H175      1.0  0.05409  0.35851  0.89727  1.0000
  C   C139      1.0  0.29400  0.49976  0.76767  1.0000
  C   C140      1.0  0.27457  0.46008  0.68366  1.0000
  C   C141      1.0  0.23716  0.45998  0.78376  1.0000
  H   H176      1.0  0.27619  0.43375  0.69123  1.0000
  H   H177      1.0  0.34698  0.48736  0.72267  1.0000
  C   C142      1.0  0.25015  0.46027  0.75103  1.0000
  H   H178      1.0  0.23989  0.36347  0.71951  1.0000
  C   C143      1.0  0.32853  0.55562  0.53777  1.0000
  C   C144      1.0  0.30804  0.54228  0.51233  1.0000
  H   H179      1.0  0.07821  0.42614  0.95027  1.0000
  C   C145      1.0  0.25261  0.47915  0.80841  1.0000
  C   C146      1.0  0.28097  0.49902  0.80040  1.0000
  C   C147      1.0  0.01772  0.45708  0.97133  1.0000
  H   H180      1.0  0.02889  0.43531  0.92203  1.0000
  C   C148      1.0  0.03133  0.35883  0.91317  1.0000
  C   C149      1.0  0.22108  0.60871  0.97594  1.0000
  H   H181      1.0  0.05477  0.51277  0.97213  1.0000
  C   C150      1.0  0.19454  0.62474  0.95874  1.0000
  H   H182      1.0  0.24526  0.34502  0.87633  1.0000
  C   C151      1.0  0.17334  0.53879  0.00157  1.0000
  C   C152      1.0  0.24550  0.36933  0.74532  1.0000
  H   H183      1.0  0.16814  0.67050  0.95038  1.0000
  C   C153      1.0  0.21885  0.36812  0.76969  1.0000
  C   C154      1.0  0.06042  0.49570  0.99316  1.0000
  C   C155      1.0  0.18102  0.50522  0.99764  1.0000
  S   S43       1.0  0.17043  0.33864  0.92403  1.0000
  H   H184      1.0  0.35449  0.34849  0.51178  1.0000
  H   H185      1.0  0.31024  0.62752  0.98517  1.0000
  C   C156      1.0  0.23616  0.66002  0.00300  1.0000
  H   H186      1.0  0.08802  0.49970  0.00049  1.0000
  C   C157      1.0  0.26323  0.92991  0.10012  1.0000
  H   H187      1.0  0.45465  0.69970  0.35784  1.0000
  S   S44       1.0  0.18924  0.69992  0.14536  1.0000
  S   S45       1.0  0.27019  0.70558  0.08107  1.0000
  H   H188      1.0  0.29925  0.78802  0.43442  1.0000
  C   C158      1.0  0.20552  0.89781  0.48556  1.0000
  H   H189      1.0  0.32902  0.84188  0.43103  1.0000
  C   C159      1.0  0.26892  0.73886  0.05220  1.0000
  C   C160      1.0  0.23768  0.75187  0.04064  1.0000
  C   C161      1.0  0.25766  0.86546  0.47688  1.0000
  H   H190      1.0  0.34984  0.95671  0.01811  1.0000
  H   H191      1.0  0.21333  0.74181  0.04958  1.0000
  Fe  Fe23      1.0  0.22440  0.67896  0.10584  1.0000
  C   C162      1.0  0.05466  0.67512  0.11262  1.0000
  H   H192      1.0  0.15622  0.71677  0.24767  1.0000
  H   H193      1.0  0.30431  0.89023  0.45725  1.0000
  C   C163      1.0  0.24127  0.83413  0.47798  1.0000
  H   H194      1.0  0.31781  0.90021  0.04615  1.0000
  H   H195      1.0  0.26169  0.97335  0.02665  1.0000
  H   H196      1.0  0.35933  0.98564  0.07210  1.0000
  H   H197      1.0  0.26326  0.90561  0.11103  1.0000
  H   H198      1.0  0.12022  0.70155  0.27082  1.0000
  H   H199      1.0  0.06918  0.72872  0.28029  1.0000
  H   H200      1.0  0.29562  0.86413  0.03103  1.0000
  H   H201      1.0  0.32465  0.74238  0.04890  1.0000
  C   C164      1.0  0.28968  0.86763  0.45916  1.0000
  C   C165      1.0  0.26504  0.98871  0.10938  1.0000
  C   C166      1.0  0.05432  0.72837  0.25748  1.0000
  H   H202      1.0  0.43078  0.68583  0.21211  1.0000
  H   H203      1.0  0.18877  0.87715  0.49422  1.0000
  H   H204      1.0  0.15117  0.98791  0.48750  1.0000
  S   S46       1.0  0.32588  0.73871  0.49323  1.0000
  H   H205      1.0  0.21767  0.83012  0.49217  1.0000
  N   N12       1.0  0.24241  0.89363  0.49511  1.0000
  C   C167      1.0  0.30059  0.77839  0.01692  1.0000
  C   C168      1.0  0.01185  0.72835  0.20100  1.0000
  C   C169      1.0  0.26472  0.95677  0.12194  1.0000
  H   H206      1.0  0.29365  0.87418  0.07416  1.0000
  H   H207      1.0  0.15058  0.74110  0.19494  1.0000
  H   H208      1.0  0.46719  0.95341  0.01802  1.0000
  H   H209      1.0  0.43992  0.67199  0.38992  1.0000
  S   S47       1.0  0.36828  0.68888  0.42244  1.0000
  C   C170      1.0  0.28739  0.80965  0.44539  1.0000
  H   H210      1.0  0.19410  0.92026  0.49692  1.0000
  H   H211      1.0  0.11526  0.76813  0.20496  1.0000
  C   C171      1.0  0.26204  0.96729  0.05295  1.0000
  H   H212      1.0  0.32495  0.78837  0.00790  1.0000
  C   C172      1.0  0.34836  0.99881  0.05119  1.0000
  N   N13       1.0  0.10760  0.71803  0.22095  1.0000
  C   C173      1.0  0.17268  0.99753  0.50182  1.0000
  H   H213      1.0  0.12536  0.74548  0.26385  1.0000
  C   C174      1.0  0.12182  0.74267  0.19706  1.0000
  H   H214      1.0  0.24322  0.78300  0.46398  1.0000
  C   C175      1.0  0.02385  0.69351  0.11242  1.0000
  C   C176      1.0  0.01859  0.73357  0.26069  1.0000
  H   H215      1.0  0.23045  0.87465  0.07422  1.0000
  C   C177      1.0  0.30032  0.75226  0.04017  1.0000
  H   H216      1.0  0.20712  0.89936  0.04472  1.0000
  C   C178      1.0  0.12796  0.72071  0.25233  1.0000
  H   H217      1.0  0.26603  0.95287  0.14873  1.0000
  H   H218      1.0  0.46696  0.69447  0.44593  1.0000
  N   N14       1.0  0.26249  0.90542  0.04231  1.0000
  Fe  Fe24      1.0  0.33192  0.68888  0.46718  1.0000
  H   H219      1.0  0.02524  0.72007  0.11261  1.0000
  H   H220      1.0  0.11194  0.73913  0.17120  1.0000
  C   C179      1.0  0.26238  0.93431  0.06488  1.0000
  C   C180      1.0  0.43416  0.67856  0.23798  1.0000
  C   C181      1.0  0.29371  0.88522  0.04876  1.0000
  S   S48       1.0  0.09507  0.69595  0.11488  1.0000
  C   C182      1.0  0.30422  0.83998  0.44379  1.0000
  C   C183      1.0  0.06990  0.72326  0.22559  1.0000
  C   C184      1.0  0.23795  0.77795  0.01734  1.0000
  C   C185      1.0  0.04746  0.72314  0.19754  1.0000
  C   C186      1.0  0.26328  0.99392  0.07503  1.0000
  H   H221      1.0  0.41022  0.68630  0.35922  1.0000
  H   H222      1.0  0.25121  0.67470  0.02017  1.0000
  C   C187      1.0  0.23121  0.88490  0.04847  1.0000
  C   C188      1.0  0.26935  0.79134  0.00530  1.0000
  H   H223      1.0  0.14141  0.68006  0.20288  1.0000
  C   C189      1.0  0.11341  0.68470  0.20719  1.0000
  C   C190      1.0  0.34286  0.98230  0.02066  1.0000
  C   C191      1.0  0.25578  0.80685  0.46209  1.0000
  H   H224      1.0  0.10071  0.68112  0.18263  1.0000
  H   H225      1.0  0.05743  0.71923  0.17256  1.0000
  H   H226      1.0  0.23024  0.86334  0.03117  1.0000
  C   C192      1.0  0.43743  0.67822  0.36292  1.0000
  C   C193      1.0  0.40575  0.67770  0.25959  1.0000
  H   H227      1.0  0.38024  0.68436  0.25054  1.0000
  C   C194      1.0  0.26282  0.91438  0.00628  1.0000
  H   H228      1.0  0.20281  0.90000  0.45794  1.0000
  H   H229      1.0  0.21363  0.78773  0.00850  1.0000
  H   H230      1.0  0.26041  0.93168  0.46149  1.0000
  C   C195      1.0  0.49022  0.67982  0.44408  1.0000
  C   C196      1.0  0.26040  0.92544  0.48860  1.0000
  H   H231      1.0  0.28752  0.92531  0.49796  1.0000
  H   H232      1.0  0.48904  0.67125  0.23288  1.0000
  H   H233      1.0  0.24754  0.94624  0.50190  1.0000
  Fe  Fe25      1.0  0.20160  0.92473  0.60357  1.0000
  S   S49       1.0  0.16419  0.89355  0.57459  1.0000
  S   S50       1.0  0.23035  0.96862  0.58148  1.0000
  Fe  Fe26      1.0  0.19232  0.88473  0.66815  1.0000
  S   S51       1.0  0.15306  0.85130  0.64344  1.0000
  S   S52       1.0  0.20124  0.87475  0.72400  1.0000
  Fe  Fe27      1.0  0.19030  0.85078  0.59971  1.0000
  S   S53       1.0  0.19882  0.80143  0.57366  1.0000
  Fe  Fe28      1.0  0.13024  0.89669  0.62043  1.0000
  S   S54       1.0  0.07476  0.91490  0.61338  1.0000
  S   S55       1.0  0.23061  0.88164  0.62552  1.0000
  S   S56       1.0  0.16662  0.93035  0.64825  1.0000
  Fe  Fe29      1.0  0.38779  0.87277  0.93805  1.0000
  S   S57       1.0  0.37348  0.91518  0.90504  1.0000
  S   S58       1.0  0.44190  0.86316  0.95853  1.0000
  Fe  Fe30      1.0  0.31198  0.85312  0.95070  1.0000
  S   S59       1.0  0.29247  0.89446  0.91819  1.0000
  H   H234      1.0  0.20526  0.70188  0.98955  1.0000
  Fe  Fe31      1.0  0.33427  0.88062  0.88183  1.0000
  S   S60       1.0  0.32991  0.88389  0.82458  1.0000
  Fe  Fe32      1.0  0.33251  0.92594  0.94348  1.0000
  S   S61       1.0  0.31773  0.97861  0.95572  1.0000
  S   S62       1.0  0.35164  0.83682  0.91240  1.0000
  S   S63       1.0  0.34903  0.88604  0.97836  1.0000
  S   S64       1.0  0.26792  0.82435  0.97613  1.0000
  H   H235      1.0  0.19922  0.76788  0.68713  1.0000
  C   C197      1.0  0.21271  0.99179  0.54818  1.0000
  H   H236      1.0  0.23734  0.72722  0.65467  1.0000
  C   C198      1.0  0.48252  0.86742  0.93784  1.0000
  C   C199      1.0  0.48512  0.87529  0.90385  1.0000
  H   H237      1.0  0.23559  0.75402  0.61931  1.0000
  H   H238      1.0  0.46181  0.87860  0.88932  1.0000
  H   H239      1.0  0.26303  0.89224  0.98994  1.0000
  C   C200      1.0  0.23726  0.87870  0.75156  1.0000
  C   C201      1.0  0.27065  0.88655  0.74018  1.0000
  C   C202      1.0  0.29863  0.88764  0.76284  1.0000
  C   C203      1.0  0.29363  0.88129  0.79719  1.0000
  C   C204      1.0  0.26019  0.87377  0.80861  1.0000
  C   C205      1.0  0.23229  0.87231  0.78589  1.0000
  H   H240      1.0  0.27502  0.89139  0.71389  1.0000
  H   H241      1.0  0.32437  0.89349  0.75367  1.0000
  H   H242      1.0  0.25584  0.86867  0.83487  1.0000
  H   H243      1.0  0.20664  0.86596  0.79497  1.0000
  C   C206      1.0  0.23513  0.78397  0.55274  1.0000
  C   C207      1.0  0.05461  0.00072  0.55014  1.0000
  H   H244      1.0  0.01718  0.94922  0.71448  1.0000
  C   C208      1.0  0.23127  0.75305  0.53741  1.0000
  C   C209      1.0  0.32759  0.99881  0.99383  1.0000
  C   C210      1.0  0.29096  0.75458  0.51738  1.0000
  H   H245      1.0  0.23422  0.90811  0.54633  1.0000
  C   C211      1.0  0.03549  0.89232  0.61696  1.0000
  H   H246      1.0  0.25471  0.81069  0.62373  1.0000
  H   H247      1.0  0.33901  0.95443  0.84746  1.0000
  H   H248      1.0  0.05788  0.84861  0.63789  1.0000
  C   C212      1.0  0.26649  0.79649  0.72337  1.0000
  C   C213      1.0  0.26709  0.80547  0.64824  1.0000
  H   H249      1.0  0.31762  0.71659  0.74042  1.0000
  N   N15       1.0  0.29076  0.98045  0.84084  1.0000
  H   H250      1.0  0.34326  0.99839  0.84424  1.0000
  H   H251      1.0  0.48528  0.94616  0.91268  1.0000
  H   H252      1.0  0.30801  0.99121  0.79055  1.0000
  H   H253      1.0  0.26629  0.97032  0.79330  1.0000
  C   C214      1.0  0.28614  0.74298  0.70500  1.0000
  C   C215      1.0  0.24996  0.74902  0.64291  1.0000
  C   C216      1.0  0.24426  0.88705  0.53149  1.0000
  H   H254      1.0  0.20652  0.74046  0.53874  1.0000
  C   C217      1.0  0.26708  0.77204  0.69806  1.0000
  H   H255      1.0  0.30540  0.94853  0.80003  1.0000
  C   C218      1.0  0.30187  0.76339  0.75989  1.0000
  C   C219      1.0  0.18411  0.98035  0.53021  1.0000
  C   C220      1.0  0.28358  0.79215  0.75377  1.0000
  H   H256      1.0  0.26844  0.95786  0.88497  1.0000
  C   C221      1.0  0.49526  0.95001  0.93769  1.0000
  C   C222      1.0  0.03415  0.86056  0.63036  1.0000
  H   H257      1.0  0.28848  0.72317  0.68719  1.0000
  H   H258      1.0  0.31522  0.76025  0.78349  1.0000
  C   C223      1.0  0.29255  0.97256  0.80457  1.0000
  C   C224      1.0  0.26737  0.79981  0.55104  1.0000
  H   H259      1.0  0.29489  0.79988  0.64337  1.0000
  C   C225      1.0  0.32656  0.97824  0.85419  1.0000
  H   H260      1.0  0.32737  0.97947  0.88196  1.0000
  H   H261      1.0  0.28279  0.81137  0.77261  1.0000
  H   H262      1.0  0.26616  0.82861  0.66304  1.0000
  C   C226      1.0  0.21267  0.78673  0.67156  1.0000
  H   H263      1.0  0.17114  0.95797  0.53786  1.0000
  C   C227      1.0  0.29503  0.78522  0.53332  1.0000
  C   C228      1.0  0.47244  0.94988  0.96476  1.0000
  H   H264      1.0  0.20968  0.81084  0.68436  1.0000
  H   H265      1.0  0.27898  0.92982  0.85216  1.0000
  H   H266      1.0  0.25301  0.81940  0.71970  1.0000
  C   C229      1.0  0.30315  0.73886  0.73558  1.0000
  H   H267      1.0  0.27148  0.88282  0.53950  1.0000
  N   N16       1.0  0.24954  0.77788  0.66573  1.0000
  H   H268      1.0  0.22884  0.86499  0.53886  1.0000
  H   H269      1.0  0.24179  0.95585  0.84826  1.0000
  H   H270      1.0  0.27099  0.82338  0.56295  1.0000
  H   H271      1.0  0.19813  0.78900  0.64763  1.0000
  H   H272      1.0  0.27679  0.74256  0.63498  1.0000
  H   H273      1.0  0.31965  0.79798  0.53146  1.0000
  C   C230      1.0  0.26902  0.95497  0.85729  1.0000
  H   H274      1.0  0.05354  0.98379  0.57114  1.0000
  C   C231      1.0  0.25899  0.73837  0.51988  1.0000
  H   H275      1.0  0.28634  0.92897  0.99960  1.0000
  H   H276      1.0  0.44496  0.94572  0.96073  1.0000
  H   H277      1.0  0.23940  0.92859  0.99922  1.0000
  H   H278      1.0  0.25546  0.71481  0.50777  1.0000
  C   C232      1.0  0.20971  0.67583  0.98560  1.0000
  C   C233      1.0  0.48509  0.95403  0.99705  1.0000
  H   H279      1.0  0.11026  0.00264  0.54927  1.0000
  Fe  Fe33      1.0  0.88340  0.15418  0.41374  1.0000
  S   S65       1.0  0.84219  0.12024  0.39285  1.0000
  S   S66       1.0  0.93839  0.14397  0.39486  1.0000
  Fe  Fe34      1.0  0.83031  0.19322  0.45450  1.0000
  S   S67       1.0  0.78602  0.16228  0.43646  1.0000
  C   C234      1.0  0.60379  0.26255  0.09980  1.0000
  Fe  Fe35      1.0  0.82097  0.11903  0.44521  1.0000
  H   H280      1.0  0.75571  0.02059  0.32877  1.0000
  Fe  Fe36      1.0  0.81032  0.16564  0.38509  1.0000
  S   S68       1.0  0.77049  0.17506  0.34362  1.0000
  S   S69       1.0  0.86408  0.14955  0.46678  1.0000
  S   S70       1.0  0.85269  0.20008  0.40260  1.0000
  Fe  Fe37      1.0  0.71007  0.13857  0.15242  1.0000
  S   S71       1.0  0.68605  0.18476  0.13203  1.0000
  S   S72       1.0  0.75590  0.13662  0.18880  1.0000
  Fe  Fe38      1.0  0.66899  0.09397  0.10382  1.0000
  S   S73       1.0  0.64210  0.13659  0.07975  1.0000
  S   S74       1.0  0.65515  0.04075  0.09194  1.0000
  Fe  Fe39      1.0  0.69408  0.16239  0.08121  1.0000
  S   S75       1.0  0.71326  0.18853  0.03406  1.0000
  Fe  Fe40      1.0  0.63572  0.15594  0.13188  1.0000
  S   S76       1.0  0.58591  0.17828  0.15210  1.0000
  S   S77       1.0  0.72147  0.11775  0.10107  1.0000
  S   S78       1.0  0.65918  0.11155  0.15654  1.0000
  C   C235      1.0  0.67202  0.02041  0.05630  1.0000
  H   H281      1.0  0.79489  0.10385  0.33368  1.0000
  S   S79       1.0  0.79464  0.07364  0.46733  1.0000
  C   C236      1.0  0.81942  0.22142  0.06061  1.0000
  H   H282      1.0  0.61681  0.20277  0.08480  1.0000
  C   C237      1.0  0.54480  0.17593  0.13248  1.0000
  C   C238      1.0  0.54147  0.16992  0.09818  1.0000
  H   H283      1.0  0.59372  0.07427  0.12225  1.0000
  H   H284      1.0  0.56426  0.16523  0.08314  1.0000
  H   H285      1.0  0.76281  0.29182  0.43659  1.0000
  H   H286      1.0  0.68930  0.06436  0.03120  1.0000
  C   C239      1.0  0.73273  0.22786  0.02858  1.0000
  H   H287      1.0  0.76487  0.02547  0.37225  1.0000
  H   H288      1.0  0.58602  0.23707  0.02090  1.0000
  H   H289      1.0  0.80852  0.06750  0.35528  1.0000
  C   C240      1.0  0.74856  0.03491  0.35143  1.0000
  C   C241      1.0  0.81967  0.22682  0.09579  1.0000
  C   C242      1.0  0.55392  0.04928  0.09445  1.0000
  H   H290      1.0  0.78700  0.23835  0.15594  1.0000
  C   C243      1.0  0.76798  0.16557  0.30009  1.0000
  C   C244      1.0  0.79470  0.14969  0.28275  1.0000
  C   C245      1.0  0.79053  0.14116  0.24876  1.0000
  C   C246      1.0  0.75979  0.14860  0.23151  1.0000
  C   C247      1.0  0.73352  0.16539  0.24851  1.0000
  C   C248      1.0  0.73764  0.17379  0.28255  1.0000
  H   H291      1.0  0.81861  0.14399  0.29548  1.0000
  H   H292      1.0  0.81124  0.12857  0.23578  1.0000
  H   H293      1.0  0.70986  0.17158  0.23560  1.0000
  H   H294      1.0  0.71692  0.18636  0.29555  1.0000
  H   H295      1.0  0.85568  0.30433  0.09350  1.0000
  C   C249      1.0  0.77775  0.21757  0.14032  1.0000
  H   H296      1.0  0.71300  0.07089  0.23639  1.0000
  H   H297      1.0  0.75205  0.11411  0.37764  1.0000
  C   C250      1.0  0.97917  0.15536  0.41197  1.0000
  C   C251      1.0  0.64985  0.26820  0.01546  1.0000
  C   C252      1.0  0.98227  0.17048  0.44326  1.0000
  N   N17       1.0  0.80594  0.20254  0.12018  1.0000
  H   H298      1.0  0.95917  0.17618  0.45754  1.0000
  H   H299      1.0  0.00879  0.05629  0.44404  1.0000
  C   C253      1.0  0.83394  0.19205  0.14310  1.0000
  C   C254      1.0  0.79158  0.17248  0.10425  1.0000
  H   H300      1.0  0.84426  0.21273  0.15828  1.0000
  H   H301      1.0  0.82450  0.17313  0.16129  1.0000
  H   H302      1.0  0.85603  0.18127  0.12889  1.0000
  H   H303      1.0  0.78187  0.15462  0.12327  1.0000
  H   H304      1.0  0.76930  0.17835  0.08764  1.0000
  H   H305      1.0  0.83471  0.26308  0.13337  1.0000
  C   C255      1.0  0.68047  0.11553  0.30079  1.0000
  C   C256      1.0  0.76391  0.29025  0.01734  1.0000
  H   H306      1.0  0.56734  0.27122  0.04282  1.0000
  C   C257      1.0  0.56610  0.07193  0.11775  1.0000
  H   H307      1.0  0.76580  0.19952  0.15796  1.0000
  C   C258      1.0  0.68695  0.03789  0.02975  1.0000
  C   C259      1.0  0.75672  0.24795  0.49834  1.0000
  H   H308      1.0  0.00740  0.13666  0.36944  1.0000
  H   H309      1.0  0.81158  0.15921  0.08942  1.0000
  C   C260      1.0  0.70980  0.08002  0.26173  1.0000
  H   H310      1.0  0.75267  0.22861  0.48020  1.0000
  H   H311      1.0  0.76899  0.01525  0.49962  1.0000
  C   C261      1.0  0.84593  0.28092  0.08451  1.0000
  N   N18       1.0  0.75349  0.07077  0.34649  1.0000
  C   C262      1.0  0.74808  0.08700  0.37942  1.0000
  H   H312      1.0  0.72511  0.33417  0.45840  1.0000
  C   C263      1.0  0.78997  0.07702  0.33639  1.0000
  C   C264      1.0  0.72968  0.08245  0.32006  1.0000
  H   H313      1.0  0.80867  0.19949  0.04941  1.0000
  C   C265      1.0  0.80985  0.31513  0.45254  1.0000
  C   C266      1.0  0.75014  0.28180  0.04891  1.0000
  H   H314      1.0  0.55249  0.10934  0.15319  1.0000
  H   H315      1.0  0.75682  0.22693  0.12393  1.0000
  H   H316      1.0  0.56296  0.23015  0.05912  1.0000
  H   H317      1.0  0.85382  0.29366  0.03274  1.0000
  H   H318      1.0  0.86404  0.07060  0.49634  1.0000
  C   C267      1.0  0.70312  0.10587  0.32618  1.0000
  H   H319      1.0  0.83109  0.24090  0.01161  1.0000
  H   H320      1.0  0.69977  0.11773  0.35012  1.0000
  H   H321      1.0  0.79702  0.06531  0.31226  1.0000
  H   H322      1.0  0.75179  0.05203  0.28029  1.0000
  H   H323      1.0  0.72102  0.02907  0.35760  1.0000
  H   H324      1.0  0.75143  0.29944  0.06910  1.0000
  C   C268      1.0  0.68384  0.10269  0.26865  1.0000
  C   C269      1.0  0.73445  0.25088  0.05448  1.0000
  N   N19       1.0  0.61357  0.25214  0.06538  1.0000
  S   S80       1.0  0.78282  0.32983  0.01188  1.0000
  H   H325      1.0  0.72334  0.24507  0.07859  1.0000
  C   C270      1.0  0.83362  0.25722  0.10705  1.0000
  C   C271      1.0  0.63133  0.22005  0.06823  1.0000
  H   H326      1.0  0.58882  0.28585  0.09968  1.0000
  C   C272      1.0  0.81474  0.04565  0.49513  1.0000
  C   C273      1.0  0.77406  0.31324  0.44860  1.0000
  C   C274      1.0  0.58111  0.24747  0.04618  1.0000
  H   H327      1.0  0.76681  0.07815  0.39854  1.0000
  C   C275      1.0  0.63653  0.27582  0.04771  1.0000
  H   H328      1.0  0.58690  0.24389  0.11248  1.0000
  H   H329      1.0  0.63445  0.20737  0.04376  1.0000
  C   C276      1.0  0.54281  0.09161  0.13518  1.0000
  H   H330      1.0  0.65783  0.22327  0.07860  1.0000
  C   C277      1.0  0.73220  0.06975  0.28702  1.0000
  C   C278      1.0  0.64691  0.30639  0.06188  1.0000
  H   H331      1.0  0.62706  0.26547  0.11594  1.0000
  H   H332      1.0  0.51705  0.18607  0.17824  1.0000
  H   H333      1.0  0.70230  0.25952  0.50286  1.0000
  H   H334      1.0  0.72171  0.08206  0.38967  1.0000
  H   H335      1.0  0.63839  0.31431  0.08631  1.0000
  H   H336      1.0  0.66697  0.11103  0.24879  1.0000
  S   S81       1.0  0.82732  0.23417  0.49367  1.0000
  H   H337      1.0  0.66088  0.13393  0.30580  1.0000
  C   C279      1.0  0.83228  0.24512  0.03838  1.0000
  C   C280      1.0  0.84517  0.27490  0.05025  1.0000
  C   C281      1.0  0.66962  0.32757  0.04483  1.0000
  C   C282      1.0  0.51475  0.18141  0.15169  1.0000
  H   H338      1.0  0.82616  0.29525  0.44368  1.0000
  H   H339      1.0  0.00089  0.04009  0.49727  1.0000
  C   C283      1.0  0.68241  0.31915  0.01336  1.0000
  C   C284      1.0  0.00951  0.14822  0.39373  1.0000
  H   H340      1.0  0.57253  0.03417  0.08109  1.0000
  C   C285      1.0  0.51829  0.04612  0.08846  1.0000
  H   H341      1.0  0.51067  0.02813  0.07009  1.0000
  H   H342      1.0  0.84707  0.15090  0.58114  1.0000
  H   H343      1.0  0.75359  0.14604  0.52449  1.0000
  H   H344      1.0  0.84917  0.13423  0.53952  1.0000
  H   H345      1.0  0.78645  0.17610  0.51539  1.0000
  H   H346      1.0  0.76868  0.32665  0.76488  1.0000
  H   H347      1.0  0.77228  0.27350  0.96695  1.0000
  C   C286      1.0  0.76187  0.26734  0.99135  1.0000
  H   H348      1.0  0.58130  0.01238  0.98090  1.0000
  H   H349      1.0  0.89017  0.03140  0.53661  1.0000
  C   C287      1.0  0.76646  0.29837  0.54548  1.0000
  H   H350      1.0  0.74505  0.21874  0.97674  1.0000
  H   H351      1.0  0.68341  0.28267  0.97465  1.0000
  C   C288      1.0  0.79500  0.28090  0.53244  1.0000
  H   H352      1.0  0.80714  0.09342  0.54623  1.0000
  C   C289      1.0  0.63714  0.32348  0.72552  1.0000
  H   H353      1.0  0.77054  0.31759  0.56374  1.0000
  H   H354      1.0  0.72720  0.16564  0.65173  1.0000
  H   H355      1.0  0.62854  0.30122  0.73951  1.0000
  C   C290      1.0  0.73284  0.29084  0.53486  1.0000
  C   C291      1.0  0.79551  0.01880  0.50758  1.0000
  C   C292      1.0  0.78354  0.20082  0.57959  1.0000
  C   C293      1.0  0.69854  0.02112  0.00101  1.0000
  H   H356      1.0  0.80477  0.10255  0.58986  1.0000
  C   C294      1.0  0.74301  0.17538  0.63150  1.0000
  H   H357      1.0  0.84067  0.17671  0.54513  1.0000
  N   N20       1.0  0.79741  0.14451  0.55759  1.0000
  H   H358      1.0  0.76590  0.10088  0.56433  1.0000
  C   C295      1.0  0.78037  0.16617  0.58241  1.0000
  C   C296      1.0  0.75952  0.15396  0.60918  1.0000
  H   H359      1.0  0.79353  0.13399  0.50497  1.0000
  S   S82       1.0  0.69589  0.31259  0.54965  1.0000
  C   C297      1.0  0.78208  0.15046  0.52423  1.0000
  H   H360      1.0  0.75543  0.12802  0.61334  1.0000
  C   C298      1.0  0.79352  0.10889  0.56511  1.0000
  C   C299      1.0  0.86368  0.02782  0.52857  1.0000
  C   C300      1.0  0.74656  0.20930  0.62779  1.0000
  H   H361      1.0  0.70982  0.03489  0.98048  1.0000
  C   C301      1.0  0.83513  0.15196  0.55588  1.0000
  C   C302      1.0  0.76676  0.22198  0.60186  1.0000
  H   H362      1.0  0.73355  0.22586  0.64494  1.0000
  H   H363      1.0  0.82090  0.28698  0.54076  1.0000
  H   H364      1.0  0.79880  0.21185  0.55983  1.0000
  H   H365      1.0  0.76927  0.24840  0.59878  1.0000
  C   C303      1.0  0.72819  0.26555  0.51125  1.0000
  C   C304      1.0  0.79035  0.25570  0.50872  1.0000
  H   H366      1.0  0.62775  0.32094  0.69944  1.0000
  C   C305      1.0  0.84893  0.05008  0.50574  1.0000
  C   C306      1.0  0.74639  0.23632  0.99700  1.0000
  H   H367      1.0  0.66602  0.32298  0.72407  1.0000
  C   C307      1.0  0.67247  0.28958  0.99868  1.0000
  H   H368      1.0  0.63509  0.33471  0.79115  1.0000
  H   H369      1.0  0.64371  0.24516  0.00335  1.0000
  H   H370      1.0  0.70097  0.33510  0.00075  1.0000
  Fe  Fe41      1.0  0.68818  0.60746  0.44303  1.0000
  Fe  Fe42      1.0  0.64519  0.66919  0.43151  1.0000
  S   S83       1.0  0.67849  0.55380  0.45738  1.0000
  Fe  Fe43      1.0  0.83476  0.65330  0.16280  1.0000
  N   N21       1.0  0.93977  0.62724  0.21923  1.0000
  H   H371      1.0  0.93705  0.65553  0.17359  1.0000
  S   S84       1.0  0.83250  0.64837  0.21989  1.0000
  H   H372      1.0  0.92843  0.60851  0.26895  1.0000
  S   S85       1.0  0.73608  0.62921  0.41874  1.0000
  S   S86       1.0  0.65330  0.62381  0.40110  1.0000
  C   C308      1.0  0.93149  0.65793  0.20084  1.0000
  H   H373      1.0  0.51657  0.60029  0.44107  1.0000
  Fe  Fe44      1.0  0.82047  0.61794  0.09617  1.0000
  S   S87       1.0  0.85868  0.64871  0.06721  1.0000
  S   S88       1.0  0.78792  0.57566  0.07614  1.0000
  Fe  Fe45      1.0  0.89410  0.64287  0.11151  1.0000
  S   S89       1.0  0.94894  0.62218  0.11135  1.0000
  H   H374      1.0  0.74240  0.60408  0.12820  1.0000
  S   S90       1.0  0.85730  0.60874  0.13802  1.0000
  H   H375      1.0  0.54416  0.55973  0.49784  1.0000
  H   H376      1.0  0.73655  0.62633  0.16668  1.0000
  C   C309      1.0  0.98913  0.64346  0.11107  1.0000
  H   H377      1.0  0.77891  0.64123  0.33163  1.0000
  S   S91       1.0  0.70408  0.65003  0.32175  1.0000
  H   H378      1.0  0.99469  0.65678  0.18290  1.0000
  H   H379      1.0  0.57422  0.62756  0.43735  1.0000
  C   C310      1.0  0.51826  0.62685  0.44148  1.0000
  C   C311      1.0  0.79660  0.65080  0.24794  1.0000
  H   H380      1.0  0.67807  0.35037  0.05630  1.0000
  H   H381      1.0  0.79021  0.59796  0.18513  1.0000
  H   H382      1.0  0.79077  0.47502  0.00780  1.0000
  C   C312      1.0  0.72607  0.57441  0.20664  1.0000
  C   C313      1.0  0.68944  0.57449  0.21049  1.0000
  H   H383      1.0  0.70165  0.60284  0.14909  1.0000
  H   H384      1.0  0.70286  0.54253  0.15065  1.0000
  C   C314      1.0  0.73016  0.57587  0.26796  1.0000
  C   C315      1.0  0.78961  0.51929  0.03794  1.0000
  C   C316      1.0  0.80830  0.54679  0.04946  1.0000
  C   C317      1.0  0.84278  0.55099  0.03937  1.0000
  H   H385      1.0  0.79134  0.55339  0.18635  1.0000
  H   H386      1.0  0.70914  0.66236  0.25124  1.0000
  H   H387      1.0  0.90001  0.63979  0.25527  1.0000
  C   C318      1.0  0.97712  0.61892  0.21852  1.0000
  C   C319      1.0  0.74607  0.57493  0.23647  1.0000
  N   N22       1.0  0.74188  0.57406  0.17279  1.0000
  C   C320      1.0  0.69260  0.53194  0.49311  1.0000
  C   C321      1.0  0.75498  0.42441  0.47704  1.0000
  H   H388      1.0  0.82800  0.64020  0.29109  1.0000
  S   S92       1.0  0.79471  0.66052  0.12258  1.0000
  H   H389      1.0  0.89144  0.60542  0.20375  1.0000
  S   S93       1.0  0.67707  0.65184  0.47522  1.0000
  C   C322      1.0  0.98962  0.59164  0.23701  1.0000
  H   H390      1.0  0.73828  0.44482  0.48627  1.0000
  H   H391      1.0  0.75272  0.42359  0.44929  1.0000
  C   C323      1.0  0.55097  0.64222  0.43931  1.0000
  H   H392      1.0  0.92304  0.57640  0.21706  1.0000
  H   H393      1.0  0.76291  0.51588  0.04563  1.0000
  H   H394      1.0  0.74366  0.54236  0.12950  1.0000
  H   H395      1.0  0.90345  0.66408  0.20280  1.0000
  H   H396      1.0  0.70120  0.38645  0.45930  1.0000
  H   H397      1.0  0.68222  0.57905  0.29530  1.0000
  H   H398      1.0  0.79135  0.57446  0.14739  1.0000
  C   C324      1.0  0.73129  0.54378  0.15478  1.0000
  C   C325      1.0  0.85836  0.52802  0.01782  1.0000
  C   C326      1.0  0.67938  0.50013  0.49890  1.0000
  H   H399      1.0  0.77405  0.57572  0.23631  1.0000
  H   H400      1.0  0.85748  0.57200  0.04808  1.0000
  C   C327      1.0  0.73003  0.60303  0.15346  1.0000
  H   H401      1.0  0.74580  0.57746  0.29040  1.0000
  C   C328      1.0  0.92761  0.63164  0.25425  1.0000
  H   H402      1.0  0.73894  0.52140  0.16892  1.0000
  H   H403      1.0  0.94346  0.65047  0.26744  1.0000
  C   C329      1.0  0.69421  0.57679  0.27079  1.0000
  H   H404      1.0  0.59692  0.59420  0.49311  1.0000
  C   C330      1.0  0.67386  0.57590  0.24213  1.0000
  H   H405      1.0  0.67258  0.57404  0.18901  1.0000
  C   C331      1.0  0.76676  0.36581  0.47809  1.0000
  C   C332      1.0  0.80533  0.49611  0.01653  1.0000
  C   C333      1.0  0.78037  0.57502  0.17317  1.0000
  H   H406      1.0  0.97227  0.57664  0.25191  1.0000
  C   C334      1.0  0.77433  0.64590  0.30538  1.0000
  H   H407      1.0  0.66089  0.48974  0.48155  1.0000
  C   C335      1.0  0.80211  0.64523  0.28227  1.0000
  H   H408      1.0  0.92794  0.59619  0.17723  1.0000
  H   H409      1.0  0.64589  0.57690  0.24453  1.0000
  C   C336      1.0  0.91973  0.60011  0.20373  1.0000
  C   C337      1.0  0.76297  0.65739  0.23698  1.0000
  C   C338      1.0  0.74058  0.65192  0.29436  1.0000
  C   C339      1.0  0.73515  0.65777  0.26005  1.0000
  C   C340      1.0  0.83983  0.50045  0.00643  1.0000
  Fe  Fe46      1.0  0.70042  0.64883  0.37904  1.0000
  C   C341      1.0  0.00176  0.63638  0.19868  1.0000
  C   C342      1.0  0.70728  0.38750  0.48646  1.0000
  H   H410      1.0  0.75837  0.66221  0.21081  1.0000
  H   H411      1.0  0.99366  0.47550  0.01719  1.0000
  H   H412      1.0  0.69766  0.36453  0.49870  1.0000
  H   H413      1.0  0.69169  0.40790  0.49723  1.0000
  N   N23       1.0  0.74500  0.39240  0.49219  1.0000
  H   H414      1.0  0.78201  0.43169  0.48315  1.0000
  C   C343      1.0  0.75264  0.33796  0.46133  1.0000
  H   H415      1.0  0.88501  0.53164  0.01000  1.0000
  C   C344      1.0  0.82451  0.34197  0.46891  1.0000
  H   H416      1.0  0.85235  0.34297  0.47240  1.0000
  C   C345      1.0  0.80340  0.36705  0.48140  1.0000
  H   H417      1.0  0.81599  0.38717  0.49421  1.0000
  S   S94       1.0  0.73669  0.37973  0.61360  1.0000
  Fe  Fe47      1.0  0.63738  0.39226  0.62798  1.0000
  S   S95       1.0  0.67822  0.42252  0.65418  1.0000
  S   S96       1.0  0.58260  0.40869  0.64161  1.0000
  Fe  Fe48      1.0  0.70438  0.42484  0.60384  1.0000
  S   S97       1.0  0.72735  0.47309  0.58531  1.0000
  Fe  Fe49      1.0  0.70664  0.37511  0.66206  1.0000
  H   H418      1.0  0.62786  0.51106  0.61662  1.0000
  S   S98       1.0  0.66194  0.39800  0.57720  1.0000
  Fe  Fe50      1.0  0.84028  0.42437  0.95863  1.0000
  S   S99       1.0  0.86291  0.37710  0.97717  1.0000
  S   S100      1.0  0.86049  0.47347  0.97803  1.0000
  Fe  Fe51      1.0  0.80242  0.39016  0.89931  1.0000
  S   S101      1.0  0.76771  0.40888  0.85646  1.0000
  Fe  Fe52      1.0  0.87411  0.36579  0.92328  1.0000
  C   C346      1.0  0.56210  0.49426  0.60185  1.0000
  S   S102      1.0  0.78662  0.40387  0.95209  1.0000
  S   S103      1.0  0.85446  0.41428  0.90525  1.0000
  C   C347      1.0  0.76932  0.36234  0.80488  1.0000
  C   C348      1.0  0.99794  0.35686  0.89895  1.0000
  H   H419      1.0  0.92511  0.49137  0.88649  1.0000
  C   C349      1.0  0.76078  0.35102  0.77250  1.0000
  H   H420      1.0  0.91710  0.45686  0.83614  1.0000
  H   H421      1.0  0.75955  0.53887  0.88401  1.0000
  C   C350      1.0  0.71343  0.49521  0.54966  1.0000
  H   H422      1.0  0.82850  0.52754  0.94294  1.0000
  C   C351      1.0  0.72674  0.52694  0.54383  1.0000
  H   H423      1.0  0.64781  0.48424  0.58613  1.0000
  H   H424      1.0  0.74525  0.53741  0.56113  1.0000
  C   C352      1.0  0.74235  0.37090  0.74993  1.0000
  C   C353      1.0  0.73232  0.40233  0.76031  1.0000
  C   C354      1.0  0.74043  0.41347  0.79287  1.0000
  C   C355      1.0  0.75906  0.39364  0.81539  1.0000
  H   H425      1.0  0.71825  0.41803  0.74335  1.0000
  H   H426      1.0  0.73233  0.43772  0.80065  1.0000
  H   H427      1.0  0.74393  0.37030  0.54085  1.0000
  C   C356      1.0  0.54209  0.39043  0.63125  1.0000
  C   C357      1.0  0.62398  0.54103  0.55327  1.0000
  H   H428      1.0  0.72664  0.56975  0.51157  1.0000
  N   N24       1.0  0.80552  0.51127  0.89654  1.0000
  C   C358      1.0  0.78725  0.48445  0.91451  1.0000
  C   C359      1.0  0.81399  0.53742  0.92121  1.0000
  N   N25       1.0  0.59279  0.49180  0.57941  1.0000
  C   C360      1.0  0.83654  0.49755  0.87963  1.0000
  H   H429      1.0  0.80446  0.47293  0.93333  1.0000
  H   H430      1.0  0.76381  0.49336  0.92798  1.0000
  H   H431      1.0  0.56562  0.46039  0.54448  1.0000
  H   H432      1.0  0.62153  0.46753  0.61858  1.0000
  H   H433      1.0  0.79028  0.54859  0.93231  1.0000
  C   C361      1.0  0.63596  0.38273  0.72193  1.0000
  C   C362      1.0  0.51137  0.40667  0.64051  1.0000
  N   N26       1.0  0.62444  0.35389  0.74185  1.0000
  H   H434      1.0  0.82962  0.55746  0.90956  1.0000
  C   C363      1.0  0.86178  0.46308  0.83532  1.0000
  C   C364      1.0  0.53009  0.35106  0.71426  1.0000
  H   H435      1.0  0.66475  0.38481  0.72103  1.0000
  C   C365      1.0  0.58606  0.35315  0.74346  1.0000
  H   H436      1.0  0.80776  0.47020  0.84155  1.0000
  H   H437      1.0  0.56221  0.51798  0.61573  1.0000
  C   C366      1.0  0.58983  0.46122  0.55943  1.0000
  H   H438      1.0  0.99531  0.35517  0.87208  1.0000
  H   H439      1.0  0.78356  0.34671  0.82181  1.0000
  H   H440      1.0  0.96903  0.42760  0.90585  1.0000
  C   C367      1.0  0.56544  0.52797  0.53583  1.0000
  Fe  Fe53      1.0  0.69247  0.35236  0.58987  1.0000
  S   S104      1.0  0.73114  0.35447  0.70992  1.0000
  H   H441      1.0  0.61204  0.45887  0.54170  1.0000
  C   C368      1.0  0.53970  0.36015  0.61486  1.0000
  S   S105      1.0  0.92658  0.35289  0.90003  1.0000
  H   H442      1.0  0.67902  0.45764  0.53140  1.0000
  H   H443      1.0  0.51287  0.43000  0.65340  1.0000
  C   C369      1.0  0.59421  0.52046  0.55653  1.0000
  C   C370      1.0  0.89940  0.48808  0.87612  1.0000
  H   H444      1.0  0.79525  0.54348  0.85510  1.0000
  C   C371      1.0  0.89495  0.46863  0.84778  1.0000
  H   H445      1.0  0.63422  0.37927  0.78836  1.0000
  H   H446      1.0  0.77885  0.46451  0.89729  1.0000
  H   H447      1.0  0.62719  0.38141  0.69557  1.0000
  C   C372      1.0  0.83296  0.47701  0.85109  1.0000
  H   H448      1.0  0.67033  0.35673  0.77263  1.0000
  H   H449      1.0  0.58944  0.43894  0.57567  1.0000
  H   H450      1.0  0.62569  0.40602  0.73258  1.0000
  H   H451      1.0  0.92120  0.44295  0.94384  1.0000
  C   C373      1.0  0.59593  0.57408  0.51093  1.0000
  H   H452      1.0  0.85816  0.44671  0.81418  1.0000
  C   C374      1.0  0.78142  0.52573  0.87170  1.0000
  C   C375      1.0  0.56719  0.35417  0.77410  1.0000
  H   H453      1.0  0.64751  0.53691  0.56716  1.0000
  C   C376      1.0  0.62387  0.48871  0.60104  1.0000
  H   H454      1.0  0.56142  0.47402  0.62065  1.0000
  C   C377      1.0  0.87074  0.50227  0.89202  1.0000
  C   C378      1.0  0.95509  0.46093  0.98238  1.0000
  C   C379      1.0  0.71626  0.54534  0.51578  1.0000
  Fe  Fe54      1.0  0.80977  0.35527  0.96748  1.0000
  H   H455      1.0  0.53719  0.49237  0.58815  1.0000
  H   H456      1.0  0.54212  0.51315  0.53641  1.0000
  C   C380      1.0  0.94785  0.44746  0.95117  1.0000
  C   C381      1.0  0.68956  0.48192  0.52713  1.0000
  H   H457      1.0  0.76897  0.50675  0.85568  1.0000
  H   H458      1.0  0.73375  0.41350  0.54058  1.0000
  C   C382      1.0  0.62458  0.56743  0.53083  1.0000
  H   H459      1.0  0.87598  0.51585  0.91465  1.0000
  C   C383      1.0  0.96796  0.35666  0.91921  1.0000
  C   C384      1.0  0.64147  0.35626  0.77506  1.0000
  C   C385      1.0  0.97489  0.43902  0.92972  1.0000
  C   C386      1.0  0.51239  0.35219  0.74464  1.0000
  S   S106      1.0  0.66409  0.34445  0.63875  1.0000
  H   H460      1.0  0.64784  0.58231  0.52803  1.0000
  H   H461      1.0  0.51566  0.35008  0.69100  1.0000
  C   C387      1.0  0.56632  0.35147  0.71357  1.0000
  C   C388      1.0  0.56635  0.55448  0.51352  1.0000
  C   C389      1.0  0.98944  0.46568  0.99243  1.0000
  H   H462      1.0  0.57873  0.35079  0.68925  1.0000
  C   C390      1.0  0.75029  0.39429  0.52883  1.0000
  H   H463      1.0  0.79444  0.66743  0.53721  1.0000
  H   H464      1.0  0.77741  0.40061  0.53562  1.0000
  C   C391      1.0  0.97177  0.35873  0.95393  1.0000
  C   C392      1.0  0.00516  0.35994  0.96817  1.0000
  H   H465      1.0  0.93381  0.46715  0.99906  1.0000
  H   H466      1.0  0.00774  0.36062  0.99508  1.0000
  H   H467      1.0  0.56306  0.34729  0.60768  1.0000
  C   C393      1.0  0.53088  0.35369  0.77449  1.0000
  S   S107      1.0  0.82245  0.34008  0.91422  1.0000
  H   H468      1.0  0.51692  0.35459  0.79808  1.0000
  H   H469      1.0  0.94901  0.35860  0.96984  1.0000
  H   H470      1.0  0.57984  0.35547  0.79809  1.0000
  H   H471      1.0  0.85657  0.66940  0.52242  1.0000
  C   C394      1.0  0.00936  0.44358  0.93950  1.0000
  N   N27       1.0  0.65453  0.77772  0.46313  1.0000
  S   S108      1.0  0.76644  0.70709  0.46936  1.0000
  H   H472      1.0  0.65809  0.97225  0.07465  1.0000
  S   S109      1.0  0.82922  0.74092  0.07088  1.0000
  H   H473      1.0  0.52472  0.72176  0.44220  1.0000
  C   C395      1.0  0.76485  0.79932  0.01661  1.0000
  C   C396      1.0  0.79361  0.78674  0.03401  1.0000
  C   C397      1.0  0.79185  0.75602  0.05016  1.0000
  H   H474      1.0  0.00725  0.73786  0.28518  1.0000
  Fe  Fe55      1.0  0.83545  0.69100  0.09610  1.0000
  H   H475      1.0  0.60817  0.80712  0.46487  1.0000
  H   H476      1.0  0.57839  0.99502  0.02222  1.0000
  H   H477      1.0  0.70838  0.73640  0.03030  1.0000
  C   C398      1.0  0.52299  0.69522  0.44196  1.0000
  H   H478      1.0  0.75911  0.71440  0.06113  1.0000
  C   C399      1.0  0.73218  0.75054  0.03126  1.0000
  H   H479      1.0  0.64812  0.72547  0.47012  1.0000
  C   C400      1.0  0.66958  0.82872  0.49727  1.0000
  S   S110      1.0  0.59411  0.69689  0.43664  1.0000
  S   S111      1.0  0.68983  0.69574  0.40680  1.0000
  C   C401      1.0  0.65434  0.77541  0.42605  1.0000
  H   H480      1.0  0.58129  0.93619  0.03089  1.0000
  C   C402      1.0  0.99744  0.73372  0.23251  1.0000
  H   H481      1.0  0.63530  0.75667  0.41711  1.0000
  C   C403      1.0  0.76089  0.73801  0.04878  1.0000
  H   H482      1.0  0.69211  0.73883  0.46820  1.0000
  H   H483      1.0  0.68002  0.94264  0.02435  1.0000
  H   H484      1.0  0.64755  0.79940  0.41452  1.0000
  C   C404      1.0  0.55349  0.67651  0.43952  1.0000
  C   C405      1.0  0.71411  0.80319  0.46328  1.0000
  H   H485      1.0  0.60040  0.76368  0.46445  1.0000
  H   H486      1.0  0.96987  0.73828  0.23507  1.0000
  C   C406      1.0  0.72813  0.85057  0.49725  1.0000
  H   H487      1.0  0.67975  0.76772  0.41558  1.0000
  H   H488      1.0  0.76490  0.82522  0.46627  1.0000
  H   H489      1.0  0.52932  0.96087  0.02788  1.0000
  C   C407      1.0  0.68133  0.96917  0.02546  1.0000
  C   C408      1.0  0.61815  0.78320  0.47415  1.0000
  H   H490      1.0  0.94610  0.67932  0.21084  1.0000
  H   H491      1.0  0.72373  0.78399  0.44703  1.0000
  C   C409      1.0  0.66921  0.98599  0.05402  1.0000
  H   H492      1.0  0.81465  0.75949  0.48255  1.0000
  S   S112      1.0  0.87391  0.68718  0.13853  1.0000
  H   H493      1.0  0.81738  0.80092  0.03509  1.0000
  C   C410      1.0  0.67900  0.80367  0.47415  1.0000
  C   C411      1.0  0.59293  0.93323  0.00563  1.0000
  C   C412      1.0  0.66584  0.74587  0.47716  1.0000
  C   C413      1.0  0.99120  0.67778  0.11175  1.0000
  C   C414      1.0  0.73400  0.78120  0.01502  1.0000
  H   H494      1.0  0.96768  0.69218  0.11149  1.0000
  C   C415      1.0  0.73808  0.82657  0.47439  1.0000
  H   H495      1.0  0.85721  0.69857  0.00528  1.0000
  C   C416      1.0  0.79369  0.76179  0.50047  1.0000
  H   H496      1.0  0.99547  0.72854  0.17897  1.0000
  H   H497      1.0  0.62143  0.93298  0.00952  1.0000
  Fe  Fe56      1.0  0.72250  0.67515  0.44818  1.0000
  C   C417      1.0  0.76590  0.73925  0.49950  1.0000
  H   H498      1.0  0.76637  0.82322  0.00487  1.0000
  H   H499      1.0  0.61554  0.78222  0.50187  1.0000
  Fe  Fe57      1.0  0.81727  0.89852  0.66113  1.0000
  S   S113      1.0  0.83014  0.84671  0.64647  1.0000
  S   S114      1.0  0.79168  0.91803  0.70900  1.0000
  Fe  Fe58      1.0  0.84433  0.92648  0.59371  1.0000
  S   S115      1.0  0.85819  0.87626  0.57379  1.0000
  S   S116      1.0  0.86460  0.97386  0.56978  1.0000
  Fe  Fe59      1.0  0.80739  0.85917  0.59624  1.0000
  S   S117      1.0  0.76616  0.82312  0.57731  1.0000
  Fe  Fe60      1.0  0.87995  0.86737  0.62510  1.0000
  S   S118      1.0  0.93064  0.84033  0.63405  1.0000
  S   S119      1.0  0.79157  0.91040  0.61207  1.0000
  S   S120      1.0  0.86906  0.91806  0.64390  1.0000
  Fe  Fe61      1.0  0.69855  0.91418  0.94655  1.0000
  S   S121      1.0  0.65574  0.88186  0.96653  1.0000
  S   S122      1.0  0.70928  0.96712  0.96134  1.0000
  Fe  Fe62      1.0  0.71839  0.86608  0.89027  1.0000
  S   S123      1.0  0.67653  0.83065  0.90627  1.0000
  S   S124      1.0  0.75321  0.84770  0.84763  1.0000
  Fe  Fe63      1.0  0.64179  0.87440  0.91255  1.0000
  S   S125      1.0  0.58935  0.87997  0.88706  1.0000
  Fe  Fe64      1.0  0.69421  0.84060  0.95892  1.0000
  C   C418      1.0  0.80959  0.71380  0.98250  1.0000
  S   S126      1.0  0.68247  0.90916  0.89272  1.0000
  S   S127      1.0  0.73817  0.87357  0.94276  1.0000
  C   C419      1.0  0.85534  0.73277  0.57939  1.0000
  C   C420      1.0  0.69356  0.84691  0.71813  1.0000
  H   H500      1.0  0.00109  0.82015  0.64553  1.0000
  H   H501      1.0  0.88858  0.91069  0.79521  1.0000
  C   C421      1.0  0.59046  0.99199  0.99713  1.0000
  C   C422      1.0  0.54858  0.87457  0.90719  1.0000
  C   C423      1.0  0.54598  0.86656  0.94112  1.0000
  C   C424      1.0  0.79437  0.78755  0.52412  1.0000
  H   H502      1.0  0.56923  0.86278  0.95559  1.0000
  C   C425      1.0  0.78128  0.89776  0.74725  1.0000
  C   C426      1.0  0.76457  0.91565  0.77275  1.0000
  C   C427      1.0  0.75536  0.90067  0.80339  1.0000
  C   C428      1.0  0.76324  0.86762  0.80909  1.0000
  C   C429      1.0  0.78014  0.84976  0.78368  1.0000
  C   C430      1.0  0.78898  0.86466  0.75288  1.0000
  H   H503      1.0  0.75856  0.94129  0.76871  1.0000
  H   H504      1.0  0.74266  0.91484  0.82274  1.0000
  H   H505      1.0  0.78638  0.82420  0.78780  1.0000
  H   H506      1.0  0.80182  0.85059  0.73354  1.0000
  C   C431      1.0  0.76731  0.79089  0.54728  1.0000
  C   C432      1.0  0.73971  0.76817  0.54650  1.0000
  C   C433      1.0  0.73921  0.74228  0.52305  1.0000
  H   H507      1.0  0.84789  0.97197  0.71798  1.0000
  H   H508      1.0  0.71877  0.77037  0.56444  1.0000
  C   C434      1.0  0.92440  0.92301  0.75538  1.0000
  C   C435      1.0  0.97084  0.86000  0.62557  1.0000
  C   C436      1.0  0.97226  0.89149  0.61161  1.0000
  H   H509      1.0  0.54714  0.95170  0.92067  1.0000
  H   H510      1.0  0.94856  0.90363  0.60432  1.0000
  H   H511      1.0  0.99468  0.89847  0.68444  1.0000
  C   C437      1.0  0.51802  0.87893  0.88865  1.0000
  C   C438      1.0  0.81146  0.68494  0.54948  1.0000
  H   H512      1.0  0.86953  0.79057  0.55143  1.0000
  C   C439      1.0  0.60437  0.95611  0.95148  1.0000
  H   H513      1.0  0.51134  0.85682  0.98259  1.0000
  C   C440      1.0  0.87216  0.76084  0.63080  1.0000
  H   H514      1.0  0.71871  0.72412  0.52378  1.0000
  H   H515      1.0  0.94450  0.94457  0.65647  1.0000
  N   N28       1.0  0.79784  0.78234  0.91789  1.0000
  C   C441      1.0  0.80783  0.81642  0.92711  1.0000
  C   C442      1.0  0.81042  0.77557  0.88348  1.0000
  C   C443      1.0  0.75936  0.78083  0.91736  1.0000
  H   H516      1.0  0.89008  0.77905  0.64253  1.0000
  C   C444      1.0  0.84455  0.00084  0.54092  1.0000
  H   H517      1.0  0.79831  0.79240  0.86489  1.0000
  C   C445      1.0  0.96436  0.95441  0.67404  1.0000
  H   H518      1.0  0.63259  0.95763  0.95736  1.0000
  C   C446      1.0  0.51311  0.86306  0.95633  1.0000
  H   H519      1.0  0.83614  0.82092  0.92515  1.0000
  H   H520      1.0  0.79541  0.83486  0.91043  1.0000
  H   H521      1.0  0.79987  0.82206  0.95329  1.0000
  H   H522      1.0  0.98654  0.97646  0.73416  1.0000
  H   H523      1.0  0.80413  0.74991  0.87591  1.0000
  H   H524      1.0  0.83890  0.77901  0.88102  1.0000
  H   H525      1.0  0.74817  0.78659  0.94236  1.0000
  H   H526      1.0  0.74827  0.79906  0.89968  1.0000
  H   H527      1.0  0.74966  0.75633  0.90927  1.0000
  C   C447      1.0  0.79371  0.73566  0.96041  1.0000
  H   H528      1.0  0.79391  0.69718  0.99755  1.0000
  C   C448      1.0  0.53098  0.95324  0.94274  1.0000
  H   H529      1.0  0.93060  0.77426  0.60023  1.0000
  H   H530      1.0  0.97445  0.88694  0.72276  1.0000
  N   N29       1.0  0.64455  0.87959  0.79403  1.0000
  C   C449      1.0  0.66141  0.85935  0.82009  1.0000
  C   C450      1.0  0.64014  0.91315  0.80808  1.0000
  C   C451      1.0  0.60948  0.86593  0.78760  1.0000
  C   C452      1.0  0.66554  0.87882  0.76289  1.0000
  C   C453      1.0  0.67936  0.90768  0.74759  1.0000
  C   C454      1.0  0.67296  0.84841  0.74699  1.0000
  C   C455      1.0  0.69967  0.90587  0.71857  1.0000
  H   H531      1.0  0.96025  0.98128  0.67726  1.0000
  H   H532      1.0  0.83936  0.79712  0.58500  1.0000
  H   H533      1.0  0.68788  0.86876  0.82550  1.0000
  H   H534      1.0  0.64638  0.85957  0.84392  1.0000
  H   H535      1.0  0.66397  0.83313  0.81291  1.0000
  H   H536      1.0  0.66562  0.92445  0.81456  1.0000
  H   H537      1.0  0.62460  0.91276  0.83167  1.0000
  H   H538      1.0  0.62621  0.92954  0.79045  1.0000
  H   H539      1.0  0.61027  0.83966  0.78009  1.0000
  H   H540      1.0  0.59272  0.86707  0.81044  1.0000
  H   H541      1.0  0.59625  0.87981  0.76738  1.0000
  H   H542      1.0  0.67565  0.93191  0.75789  1.0000
  H   H543      1.0  0.66333  0.82547  0.75707  1.0000
  N   N30       1.0  0.58252  0.95952  0.98201  1.0000
  H   H544      1.0  0.51973  0.88508  0.86238  1.0000
  H   H545      1.0  0.72382  0.87441  0.68223  1.0000
  N   N31       1.0  0.96338  0.93674  0.70660  1.0000
  H   H546      1.0  0.94472  0.90863  0.76663  1.0000
  H   H547      1.0  0.69962  0.82339  0.70685  1.0000
  H   H548      1.0  0.84574  0.76906  0.63801  1.0000
  H   H549      1.0  0.92406  0.73069  0.59707  1.0000
  H   H550      1.0  0.86696  0.77472  0.93236  1.0000
  H   H551      1.0  0.71109  0.92798  0.70791  1.0000
  H   H552      1.0  0.87685  0.73652  0.64264  1.0000
  H   H553      1.0  0.88316  0.81142  0.58865  1.0000
  C   C456      1.0  0.81360  0.75869  0.94149  1.0000
  H   H554      1.0  0.89504  0.70956  0.54770  1.0000
  H   H555      1.0  0.92136  0.75707  0.56052  1.0000
  H   H556      1.0  0.80708  0.74890  0.60307  1.0000
  C   C457      1.0  0.00193  0.84448  0.63463  1.0000
  C   C458      1.0  0.86681  0.79092  0.57915  1.0000
  C   C459      1.0  0.85012  0.75810  0.94594  1.0000
  C   C460      1.0  0.99162  0.95031  0.72761  1.0000
  C   C461      1.0  0.81033  0.99643  0.53032  1.0000
  C   C462      1.0  0.86832  0.70967  0.55578  1.0000
  H   H557      1.0  0.76574  0.73463  0.95951  1.0000
  C   C463      1.0  0.70701  0.87559  0.70405  1.0000
  C   C464      1.0  0.89243  0.92407  0.77202  1.0000
  H   H558      1.0  0.89340  0.73720  0.97246  1.0000
  H   H559      1.0  0.98990  0.95159  0.66119  1.0000
  C   C465      1.0  0.92979  0.93962  0.72449  1.0000
  C   C466      1.0  0.86505  0.94178  0.75855  1.0000
  H   H560      1.0  0.77053  0.70654  0.57842  1.0000
  C   C467      1.0  0.91487  0.75482  0.58759  1.0000
  H   H561      1.0  0.66643  0.74678  0.50495  1.0000
  C   C468      1.0  0.86964  0.95887  0.72868  1.0000
  C   C469      1.0  0.81937  0.73100  0.58699  1.0000
  C   C470      1.0  0.97064  0.90161  0.69968  1.0000
  H   H562      1.0  0.81533  0.80526  0.52385  1.0000
  C   C471      1.0  0.90152  0.95813  0.71188  1.0000
  C   C472      1.0  0.84534  0.71452  0.98691  1.0000
  H   H563      1.0  0.59933  0.97605  0.93313  1.0000
  N   N32       1.0  0.87715  0.75914  0.59395  1.0000
  C   C473      1.0  0.79802  0.70705  0.57266  1.0000
  H   H564      1.0  0.99469  0.93650  0.75139  1.0000
  H   H565      1.0  0.83997  0.94189  0.77095  1.0000
  H   H566      1.0  0.68666  0.87003  0.52697  1.0000
  S   S128      1.0  0.69731  0.79546  0.99263  1.0000
  H   H567      1.0  0.60011  0.93188  0.93912  1.0000
  H   H568      1.0  0.79530  0.97585  0.53969  1.0000
  C   C474      1.0  0.84651  0.68625  0.54106  1.0000
  H   H569      1.0  0.94884  0.89005  0.68567  1.0000
  C   C475      1.0  0.86561  0.73651  0.96856  1.0000
  H   H570      1.0  0.90287  0.97153  0.68860  1.0000
  C   C476      1.0  0.54484  0.95698  0.97544  1.0000
  C   C477      1.0  0.00442  0.90753  0.60736  1.0000
  H   H571      1.0  0.00521  0.93199  0.59675  1.0000
  H   H572      1.0  0.61886  0.99562  0.00065  1.0000
  C   C478      1.0  0.69557  0.98676  0.99862  1.0000
  H   H573      1.0  0.58522  0.90854  0.99606  1.0000
  H   H574      1.0  0.74718  0.86778  0.50691  1.0000
  H   H575      1.0  0.64376  0.83075  0.50750  1.0000
  C   C479      1.0  0.69398  0.85167  0.50863  1.0000
  C   C480      1.0  0.52070  0.95792  0.00239  1.0000
  H   H576      1.0  0.99929  0.00322  0.54491  1.0000
