data_image0
_chemical_formula_structural       HFeS2FeS2FeSFeCS2FeS2FeSHFeSFeS3HC2H4C3H3CHC3HS2HC6H4C6H4C3H3CHCH2C3HCH4C2H3CHC2HCHCHCH2CHCHC3H2C3NC2H3CHCH2NH2CH3CNC9H14NC2HCHCHCHCHSH3SH2CNH3CHC2H7FeSCFeS2Fe2SHSHFeS2FeSCFe2HS2HCH2CH2C6H4C3H2FeS2CSFeSFeCS2FeS2FeSCHFeSHSHSC3H2C6H2C3H2NC6H2CH12SCHC2H2CHC2HCHCH2CHCHC3H2CNC9H18NH2CH3NH5SHFeNHCHSH3FeSCFeS2FeSFeS5CFeS2FeH2FeHFeHS2HCH4FeHCH3C2HCH2C3HC7H4C6H4CHCHNCHCN2CH5SH8C2H6CHCHC2SHC2H3CHCH4CNC9H5C6HCHC3HSHCH7CH3C2H5CFeSHFeSCFeSFeS3FeS2FeS2FeCFeHS2C2HCHCHCHCH2NH2C5H3C2H2C6H4C7H3C2NHCH2C5HC2H2CH3CSCH2C2H7NHCH3C3H3C2H3NH2C2HC4HC2HCNH2CH4CH2CH4CHCHCS2C2HCSCHCH2SH3C2HC2HCH2CH2C4HFeSH3FeSFeCS2FeS2FeSHCFeHCSC5H7CH2C6H2CHC4NSC2SH2CHCHSC3H2CHCHCH2SC2HC4H2CH3FeH3C2H5CSCSC2H4C3H3CNHCH2CNHCSCH3C2SH2C2H5C2HC2HCHCH3C2HCHNSNHCH3CH2C5H4C3NHCH4SHCHCFeH2C2H2CHSH2CH2C2HCSCH2CHCSC4HCN2H2CHCH4CH2SH2C2NC3H4CH2C2HCH2C4HC2SH3CH4CH5C2H2CH4CHCHSHFeSHFeSFeCSFeS2FeS2FeH2SNHCH3C6HC9H3SC4HFeH3C3SC5HSH10CHCHSH3CHCHCHNHCHC2HC2HCH3FeH2SHCHCSHC3SHC2HSH2CHCH2SCHCH3SH2SHFeSFeS2FeS2FeS2FeSFeHS2C2H6CNC6H4C6H4C3H7C3HC2HC2HCFeC4HCSH3C2HC3HCHC2H2NCNH2C3H2CHCH2CFeH5C2NCH3C2HCHC3HC2H4C2HCH2CHCSC3HCH2CHCHCH2CHCSH6CH3CHSHFeS2FeS2FeSFeS3CFeS2FeCSFeHFeHS2HC2H2CHCHNC2H2C6H6C7H4C3H2C3HCHC3HC2H3CHCHCH2CHC2HNC2HC2HSH2CH2SCH10C4H4CH5C3NC2HCH5C2HCH2CH3C2SCHSC2SFeS2FeSFeHS2FeS2FeHFeCFeS2C3HC6SH3C3H3NFeS2H2FeSFeS3FeS2FeS2FeHFeSCH2NH3C5HNC2HNHC4H2NC2H2CHCH6C3H8CH2CH3CH2CHC3HS2H5FeC3HC2NH2CH2C2HC5HCH2CHSHCH4CH2CHCH5CFeCHC2HC2HCH2CHCHC2HFeS2FeS2FeSFeS4FeS2FeCFeHFeS3NC2H3CH4C8H4C6H5CHCH2CH2C2HC3NH2C4HC2H2CHCHCHCH4C2HC3H4CSCHCH2CH6C3NCH2CH4CH2CHCH3S2HC4H2CH2CHNH2C2H2CNCH8C3H2C2HCH3CHCH2
_chemical_formula_sum              "H864 Fe96 S192 C720 N48"
_cell_length_a       51.0562
_cell_length_b       51.2633
_cell_length_c       49.6384
_cell_angle_alpha    90.227
_cell_angle_beta     89.8595
_cell_angle_gamma    119.894

_space_group_name_H-M_alt    "P 1"
_space_group_IT_number       1

loop_
  _space_group_symop_operation_xyz
  'x, y, z'

loop_
  _atom_site_type_symbol
  _atom_site_label
  _atom_site_symmetry_multiplicity
  _atom_site_fract_x
  _atom_site_fract_y
  _atom_site_fract_z
  _atom_site_occupancy
  H   H1        1.0  0.47793  0.99307  0.22392  1.0000
  Fe  Fe1       1.0  0.35961  0.39670  0.09795  1.0000
  S   S1        1.0  0.36002  0.44044  0.10605  1.0000
  S   S2        1.0  0.38189  0.38656  0.06202  1.0000
  Fe  Fe2       1.0  0.34620  0.37747  0.15850  1.0000
  S   S3        1.0  0.34592  0.41951  0.16975  1.0000
  S   S4        1.0  0.34084  0.34149  0.18883  1.0000
  Fe  Fe3       1.0  0.31853  0.41234  0.13197  1.0000
  S   S5        1.0  0.28219  0.42531  0.14086  1.0000
  Fe  Fe4       1.0  0.38645  0.44375  0.14313  1.0000
  C   C1        1.0  0.04155  0.43583  0.21273  1.0000
  S   S6        1.0  0.31649  0.36817  0.12178  1.0000
  S   S7        1.0  0.38847  0.40208  0.13411  1.0000
  Fe  Fe5       1.0  0.10986  0.39718  0.12498  1.0000
  S   S8        1.0  0.06058  0.36400  0.11605  1.0000
  S   S9        1.0  0.14353  0.38159  0.11233  1.0000
  Fe  Fe6       1.0  0.09410  0.44552  0.14140  1.0000
  S   S10       1.0  0.04486  0.41620  0.13263  1.0000
  H   H2        1.0  0.34725  0.17327  0.25173  1.0000
  Fe  Fe7       1.0  0.05014  0.38078  0.15471  1.0000
  S   S11       1.0  0.01233  0.35090  0.18416  1.0000
  Fe  Fe8       1.0  0.05944  0.40220  0.09482  1.0000
  S   S12       1.0  0.04299  0.40637  0.05254  1.0000
  S   S13       1.0  0.09915  0.41081  0.16515  1.0000
  S   S14       1.0  0.10887  0.43468  0.10237  1.0000
  H   H3        1.0  0.01562  0.34187  0.03804  1.0000
  C   C2        1.0  0.99889  0.42206  0.25496  1.0000
  C   C3        1.0  0.08528  0.35795  0.05180  1.0000
  H   H4        1.0  0.44834  0.44367  0.30192  1.0000
  H   H5        1.0  0.44020  0.99638  0.19715  1.0000
  H   H6        1.0  0.09789  0.41785  0.00086  1.0000
  H   H7        1.0  0.45041  0.44042  0.10827  1.0000
  C   C4        1.0  0.36351  0.14478  0.26754  1.0000
  C   C5        1.0  0.01174  0.35233  0.22011  1.0000
  C   C6        1.0  0.47057  0.46278  0.10406  1.0000
  H   H8        1.0  0.35440  0.12994  0.25039  1.0000
  H   H9        1.0  0.09598  0.36015  0.07184  1.0000
  H   H10       1.0  0.07475  0.48197  0.11057  1.0000
  C   C7        1.0  0.05141  0.44430  0.23912  1.0000
  H   H11       1.0  0.37785  0.26977  0.02675  1.0000
  C   C8        1.0  0.38547  0.18559  0.31046  1.0000
  C   C9        1.0  0.45156  0.38087  0.28645  1.0000
  C   C10       1.0  0.02366  0.38469  0.02336  1.0000
  H   H12       1.0  0.42682  0.36454  0.28724  1.0000
  S   S15       1.0  0.00768  0.35444  0.31343  1.0000
  S   S16       1.0  0.40148  0.04283  0.29335  1.0000
  H   H13       1.0  0.10573  0.41606  0.04515  1.0000
  C   C11       1.0  0.18204  0.39402  0.12083  1.0000
  C   C12       1.0  0.19612  0.37867  0.10988  1.0000
  C   C13       1.0  0.22661  0.38777  0.11571  1.0000
  C   C14       1.0  0.24357  0.41252  0.13256  1.0000
  C   C15       1.0  0.22946  0.42777  0.14362  1.0000
  C   C16       1.0  0.19897  0.41864  0.13782  1.0000
  H   H14       1.0  0.18332  0.35958  0.09673  1.0000
  H   H15       1.0  0.23698  0.37573  0.10701  1.0000
  H   H16       1.0  0.24218  0.44689  0.15674  1.0000
  H   H17       1.0  0.18858  0.43071  0.14643  1.0000
  C   C17       1.0  0.36098  0.34850  0.28042  1.0000
  C   C18       1.0  0.35887  0.32457  0.26507  1.0000
  C   C19       1.0  0.35321  0.32308  0.23706  1.0000
  C   C20       1.0  0.35022  0.34574  0.22386  1.0000
  C   C21       1.0  0.35356  0.37030  0.23903  1.0000
  C   C22       1.0  0.35863  0.37149  0.26711  1.0000
  H   H18       1.0  0.36021  0.30649  0.27494  1.0000
  H   H19       1.0  0.35066  0.30394  0.22561  1.0000
  H   H20       1.0  0.35129  0.38791  0.22931  1.0000
  H   H21       1.0  0.35992  0.38999  0.27872  1.0000
  C   C23       1.0  0.35690  0.38314  0.01095  1.0000
  C   C24       1.0  0.37923  0.38181  0.02621  1.0000
  C   C25       1.0  0.00853  0.35282  0.27744  1.0000
  H   H22       1.0  0.41747  0.37478  0.02428  1.0000
  H   H23       1.0  0.34065  0.38762  0.02084  1.0000
  H   H24       1.0  0.41759  0.40555  0.30130  1.0000
  C   C26       1.0  0.37664  0.99989  0.22032  1.0000
  H   H25       1.0  0.07542  0.45550  0.24342  1.0000
  C   C27       1.0  0.44701  0.41556  0.25461  1.0000
  H   H26       1.0  0.03979  0.44366  0.28010  1.0000
  H   H27       1.0  0.48750  0.44241  0.06186  1.0000
  C   C28       1.0  0.33730  0.30314  0.04362  1.0000
  C   C29       1.0  0.03054  0.43735  0.26006  1.0000
  C   C30       1.0  0.40013  0.37595  0.01278  1.0000
  H   H28       1.0  0.14432  0.37308  0.04900  1.0000
  C   C31       1.0  0.01075  0.42035  0.20712  1.0000
  H   H29       1.0  0.14814  0.38129  0.01347  1.0000
  H   H30       1.0  0.33062  0.31096  0.06127  1.0000
  H   H31       1.0  0.13980  0.42449  0.02688  1.0000
  H   H32       1.0  0.42290  0.45294  0.07279  1.0000
  C   C32       1.0  0.37159  0.09347  0.26521  1.0000
  C   C33       1.0  0.35472  0.28935  0.04639  1.0000
  H   H33       1.0  0.44258  0.49073  0.08472  1.0000
  H   H34       1.0  0.46087  0.37929  0.30624  1.0000
  H   H35       1.0  0.42193  0.10558  0.28916  1.0000
  C   C34       1.0  0.43123  0.39121  0.23630  1.0000
  H   H36       1.0  0.05870  0.38517  0.22521  1.0000
  C   C35       1.0  0.39010  0.02175  0.24094  1.0000
  C   C36       1.0  0.09267  0.37277  0.00501  1.0000
  H   H37       1.0  0.44919  0.41614  0.32320  1.0000
  C   C37       1.0  0.12259  0.40868  0.04135  1.0000
  H   H38       1.0  0.46946  0.47883  0.11852  1.0000
  C   C38       1.0  0.44263  0.41978  0.30277  1.0000
  H   H39       1.0  0.07367  0.33371  0.04641  1.0000
  C   C39       1.0  0.37906  0.13959  0.28874  1.0000
  H   H40       1.0  0.46395  0.46377  0.25917  1.0000
  H   H41       1.0  0.40523  0.04496  0.23555  1.0000
  C   C40       1.0  0.37017  0.19005  0.28944  1.0000
  H   H42       1.0  0.34539  0.08797  0.31443  1.0000
  C   C41       1.0  0.41710  0.12452  0.28989  1.0000
  H   H43       1.0  0.37179  0.07444  0.31362  1.0000
  C   C42       1.0  0.03750  0.37096  0.23534  1.0000
  C   C43       1.0  0.38406  0.01390  0.26837  1.0000
  C   C44       1.0  0.35920  0.16971  0.26804  1.0000
  H   H44       1.0  0.38215  0.10556  0.24616  1.0000
  H   H45       1.0  0.13439  0.41131  0.06092  1.0000
  C   C45       1.0  0.01943  0.39941  0.00127  1.0000
  C   C46       1.0  0.13158  0.36851  0.02966  1.0000
  C   C47       1.0  0.01299  0.35374  0.02126  1.0000
  N   N1        1.0  0.38417  0.11357  0.28907  1.0000
  C   C48       1.0  0.45242  0.44429  0.24623  1.0000
  C   C49       1.0  0.38557  0.00934  0.01399  1.0000
  H   H46       1.0  0.36117  0.28608  0.06634  1.0000
  H   H47       1.0  0.33579  0.47232  0.16517  1.0000
  H   H48       1.0  0.06756  0.36440  0.05433  1.0000
  C   C50       1.0  0.98951  0.42584  0.30357  1.0000
  H   H49       1.0  0.40455  0.02743  0.02444  1.0000
  C   C51       1.0  0.35709  0.28529  0.99716  1.0000
  H   H50       1.0  0.42893  0.13956  0.27255  1.0000
  H   H51       1.0  0.05781  0.44049  0.19670  1.0000
  N   N2        1.0  0.10785  0.37714  0.03140  1.0000
  H   H52       1.0  0.12212  0.34413  0.02564  1.0000
  H   H53       1.0  0.00320  0.41256  0.18672  1.0000
  C   C52       1.0  0.38984  0.16076  0.31022  1.0000
  H   H54       1.0  0.44738  0.42547  0.06231  1.0000
  H   H55       1.0  0.05597  0.38563  0.27527  1.0000
  H   H56       1.0  0.42517  0.36836  0.24111  1.0000
  C   C53       1.0  0.42218  0.39573  0.21102  1.0000
  N   N3        1.0  0.25038  0.34423  0.20148  1.0000
  C   C54       1.0  0.27036  0.34442  0.17962  1.0000
  C   C55       1.0  0.21991  0.31760  0.19790  1.0000
  C   C56       1.0  0.24761  0.37157  0.19810  1.0000
  C   C57       1.0  0.26264  0.34248  0.22803  1.0000
  C   C58       1.0  0.26817  0.36335  0.24926  1.0000
  C   C59       1.0  0.26908  0.31904  0.23340  1.0000
  C   C60       1.0  0.27973  0.36089  0.27408  1.0000
  C   C61       1.0  0.28064  0.31685  0.25825  1.0000
  C   C62       1.0  0.28596  0.33772  0.27855  1.0000
  H   H57       1.0  0.27028  0.32277  0.17773  1.0000
  H   H58       1.0  0.26360  0.34877  0.15955  1.0000
  H   H59       1.0  0.29418  0.36208  0.18339  1.0000
  H   H60       1.0  0.22046  0.29618  0.19823  1.0000
  H   H61       1.0  0.20967  0.31830  0.17829  1.0000
  H   H62       1.0  0.20433  0.31636  0.21423  1.0000
  H   H63       1.0  0.23136  0.37219  0.21271  1.0000
  H   H64       1.0  0.26993  0.39251  0.20014  1.0000
  H   H65       1.0  0.23894  0.37251  0.17772  1.0000
  H   H66       1.0  0.26401  0.38191  0.24717  1.0000
  H   H67       1.0  0.26574  0.30246  0.21826  1.0000
  H   H68       1.0  0.28424  0.37723  0.28990  1.0000
  H   H69       1.0  0.28633  0.29936  0.26159  1.0000
  H   H70       1.0  0.29566  0.33631  0.29756  1.0000
  N   N4        1.0  0.45775  0.41196  0.28124  1.0000
  C   C63       1.0  0.03588  0.37112  0.26378  1.0000
  C   C64       1.0  0.32900  0.30750  0.01807  1.0000
  H   H71       1.0  0.42066  0.42752  0.18401  1.0000
  C   C65       1.0  0.36983  0.09513  0.31338  1.0000
  H   H72       1.0  0.31577  0.31861  0.01599  1.0000
  C   C66       1.0  0.44427  0.47488  0.07048  1.0000
  H   H73       1.0  0.02750  0.42330  0.00259  1.0000
  C   C67       1.0  0.98969  0.41373  0.22779  1.0000
  H   H74       1.0  0.37589  0.07419  0.26615  1.0000
  C   C68       1.0  0.36429  0.28028  0.02357  1.0000
  H   H75       1.0  0.36680  0.20933  0.28983  1.0000
  S   S17       1.0  0.36253  0.34888  0.31640  1.0000
  H   H76       1.0  0.00227  0.41453  0.31018  1.0000
  H   H77       1.0  0.00465  0.45063  0.30426  1.0000
  H   H78       1.0  0.34662  0.08337  0.26393  1.0000
  S   S18       1.0  0.42905  0.48218  0.16063  1.0000
  H   H79       1.0  0.40991  0.37684  0.19740  1.0000
  H   H80       1.0  0.07975  0.32541  0.00097  1.0000
  C   C69       1.0  0.42802  0.42423  0.20345  1.0000
  N   N5        1.0  0.47128  0.47188  0.07560  1.0000
  H   H81       1.0  0.46228  0.37339  0.27104  1.0000
  H   H82       1.0  0.39397  0.20146  0.32711  1.0000
  H   H83       1.0  0.42788  0.13722  0.30866  1.0000
  C   C70       1.0  0.46867  0.44700  0.05823  1.0000
  H   H84       1.0  0.38133  0.00643  0.19940  1.0000
  C   C71       1.0  0.44305  0.44846  0.22099  1.0000
  C   C72       1.0  0.99886  0.33802  0.99730  1.0000
  H   H85       1.0  0.44742  0.47059  0.21488  1.0000
  H   H86       1.0  0.01133  0.48825  0.17633  1.0000
  H   H87       1.0  0.32854  0.48302  0.12055  1.0000
  H   H88       1.0  0.44461  0.48307  0.04967  1.0000
  H   H89       1.0  0.46800  0.45186  0.03648  1.0000
  H   H90       1.0  0.99113  0.31422  0.99587  1.0000
  H   H91       1.0  0.40168  0.15820  0.32711  1.0000
  Fe  Fe9       1.0  0.45065  0.36686  0.37045  1.0000
  S   S19       1.0  0.41115  0.37366  0.37567  1.0000
  C   C73       1.0  0.32847  0.31035  0.65207  1.0000
  Fe  Fe10      1.0  0.41088  0.29891  0.37856  1.0000
  S   S20       1.0  0.36821  0.30223  0.38400  1.0000
  S   S21       1.0  0.42200  0.26042  0.37710  1.0000
  Fe  Fe11      1.0  0.38549  0.33424  0.34822  1.0000
  Fe  Fe12      1.0  0.39743  0.34227  0.41102  1.0000
  S   S22       1.0  0.38795  0.36539  0.44690  1.0000
  H   H92       1.0  0.30733  0.07706  0.47579  1.0000
  S   S23       1.0  0.43906  0.33767  0.40712  1.0000
  H   H93       1.0  0.28926  0.04557  0.45318  1.0000
  Fe  Fe13      1.0  0.39730  0.08995  0.38166  1.0000
  S   S24       1.0  0.36550  0.04255  0.36723  1.0000
  S   S25       1.0  0.37494  0.11888  0.38850  1.0000
  Fe  Fe14      1.0  0.44975  0.07674  0.38478  1.0000
  S   S26       1.0  0.42175  0.02905  0.37036  1.0000
  C   C74       1.0  0.45751  0.44072  0.46565  1.0000
  Fe  Fe15      1.0  0.40299  0.04781  0.33962  1.0000
  Fe  Fe16      1.0  0.38679  0.02774  0.39921  1.0000
  H   H94       1.0  0.31822  0.02546  0.43086  1.0000
  S   S27       1.0  0.43368  0.09620  0.35250  1.0000
  S   S28       1.0  0.41590  0.07442  0.41524  1.0000
  H   H95       1.0  0.46818  0.46211  0.47735  1.0000
  C   C75       1.0  0.99603  0.38369  0.49554  1.0000
  H   H96       1.0  0.99027  0.40131  0.49479  1.0000
  H   H97       1.0  0.38448  0.08733  0.46696  1.0000
  C   C76       1.0  0.00397  0.47220  0.47642  1.0000
  H   H98       1.0  0.05667  0.31205  0.48025  1.0000
  H   H99       1.0  0.44383  0.40842  0.42122  1.0000
  C   C77       1.0  0.40837  0.22103  0.38120  1.0000
  C   C78       1.0  0.42870  0.21016  0.37794  1.0000
  C   C79       1.0  0.41903  0.17916  0.38025  1.0000
  C   C80       1.0  0.38872  0.15843  0.38575  1.0000
  C   C81       1.0  0.36838  0.16927  0.38903  1.0000
  C   C82       1.0  0.37807  0.20029  0.38679  1.0000
  H   H100      1.0  0.45615  0.02730  0.41881  1.0000
  H   H101      1.0  0.44728  0.42159  0.48013  1.0000
  H   H102      1.0  0.34487  0.15356  0.39325  1.0000
  H   H103      1.0  0.36209  0.20814  0.38925  1.0000
  C   C83       1.0  0.37928  0.35900  0.48203  1.0000
  C   C84       1.0  0.37011  0.33127  0.49440  1.0000
  C   C85       1.0  0.38068  0.38260  0.49778  1.0000
  H   H104      1.0  0.36876  0.31282  0.48264  1.0000
  H   H105      1.0  0.38751  0.40409  0.48848  1.0000
  Fe  Fe17      1.0  0.35230  0.37903  0.60159  1.0000
  S   S29       1.0  0.35918  0.42433  0.59028  1.0000
  S   S30       1.0  0.35232  0.34430  0.57238  1.0000
  C   C86       1.0  0.38064  0.32510  0.64674  1.0000
  S   S31       1.0  0.42580  0.32855  0.34153  1.0000
  Fe  Fe18      1.0  0.32032  0.41345  0.61907  1.0000
  S   S32       1.0  0.28370  0.42364  0.60393  1.0000
  Fe  Fe19      1.0  0.38925  0.44167  0.62673  1.0000
  C   C87       1.0  0.45362  0.01518  0.43809  1.0000
  S   S33       1.0  0.31220  0.36715  0.62865  1.0000
  S   S34       1.0  0.38488  0.39681  0.63626  1.0000
  Fe  Fe20      1.0  0.10914  0.39110  0.62655  1.0000
  S   S35       1.0  0.05953  0.35538  0.62483  1.0000
  S   S36       1.0  0.14422  0.37580  0.63395  1.0000
  Fe  Fe21      1.0  0.09360  0.44064  0.61700  1.0000
  S   S37       1.0  0.04368  0.40875  0.61393  1.0000
  C   C88       1.0  0.13106  0.33307  0.48005  1.0000
  H   H106      1.0  0.36675  0.07220  0.51134  1.0000
  Fe  Fe22      1.0  0.05609  0.38006  0.58844  1.0000
  S   S38       1.0  0.03409  0.35203  0.54997  1.0000
  H   H107      1.0  0.31519  0.08202  0.44017  1.0000
  S   S39       1.0  0.10597  0.41374  0.58903  1.0000
  H   H108      1.0  0.45219  0.22590  0.37359  1.0000
  S   S40       1.0  0.35164  0.43515  0.65457  1.0000
  C   C89       1.0  0.01727  0.35773  0.52063  1.0000
  C   C90       1.0  0.33942  0.04609  0.43672  1.0000
  C   C91       1.0  0.01029  0.38083  0.51883  1.0000
  H   H109      1.0  0.00137  0.43465  0.45438  1.0000
  H   H110      1.0  0.01548  0.39624  0.53556  1.0000
  C   C92       1.0  0.18339  0.39037  0.62612  1.0000
  C   C93       1.0  0.19994  0.41580  0.60997  1.0000
  C   C94       1.0  0.23048  0.42558  0.60352  1.0000
  C   C95       1.0  0.24524  0.41055  0.61347  1.0000
  C   C96       1.0  0.22874  0.38520  0.62970  1.0000
  C   C97       1.0  0.19806  0.37513  0.63578  1.0000
  H   H111      1.0  0.18932  0.42809  0.60256  1.0000
  H   H112      1.0  0.24290  0.44529  0.59105  1.0000
  C   C98       1.0  0.36208  0.32718  0.52201  1.0000
  C   C99       1.0  0.36329  0.35074  0.53769  1.0000
  C   C100      1.0  0.37283  0.37858  0.52537  1.0000
  H   H113      1.0  0.35477  0.30554  0.53122  1.0000
  H   H114      1.0  0.37406  0.39700  0.53704  1.0000
  N   N6        1.0  0.12253  0.34571  0.55449  1.0000
  C   C101      1.0  0.13995  0.33235  0.56616  1.0000
  C   C102      1.0  0.14118  0.37892  0.55586  1.0000
  C   C103      1.0  0.09556  0.33626  0.57187  1.0000
  C   C104      1.0  0.11482  0.33670  0.52593  1.0000
  C   C105      1.0  0.13757  0.34024  0.50736  1.0000
  C   C106      1.0  0.08541  0.32645  0.51527  1.0000
  H   H115      1.0  0.36306  0.10359  0.48131  1.0000
  H   H116      1.0  0.06245  0.47453  0.64183  1.0000
  C   C107      1.0  0.36442  0.09022  0.46421  1.0000
  H   H117      1.0  0.16276  0.34155  0.55719  1.0000
  H   H118      1.0  0.14405  0.33730  0.58817  1.0000
  H   H119      1.0  0.12754  0.30745  0.56368  1.0000
  H   H120      1.0  0.16329  0.38754  0.54555  1.0000
  H   H121      1.0  0.14608  0.38701  0.57707  1.0000
  H   H122      1.0  0.12931  0.38979  0.54628  1.0000
  H   H123      1.0  0.07942  0.31169  0.57023  1.0000
  H   H124      1.0  0.10169  0.34122  0.59352  1.0000
  H   H125      1.0  0.08354  0.34865  0.56687  1.0000
  H   H126      1.0  0.36902  0.10444  0.44591  1.0000
  H   H127      1.0  0.06685  0.32414  0.52753  1.0000
  H   H128      1.0  0.32049  0.25418  0.65026  1.0000
  S   S41       1.0  0.11658  0.49100  0.61066  1.0000
  C   C108      1.0  0.10191  0.32267  0.47038  1.0000
  H   H129      1.0  0.01493  0.31964  0.49983  1.0000
  C   C109      1.0  0.32987  0.04061  0.48490  1.0000
  C   C110      1.0  0.99314  0.45045  0.45613  1.0000
  H   H130      1.0  0.46947  0.99609  0.39460  1.0000
  H   H131      1.0  0.38944  0.34594  0.65913  1.0000
  C   C111      1.0  0.30520  0.01064  0.48429  1.0000
  H   H132      1.0  0.43820  0.43948  0.45421  1.0000
  C   C112      1.0  0.38194  0.00853  0.47796  1.0000
  C   C113      1.0  0.07919  0.31949  0.48793  1.0000
  H   H133      1.0  0.09695  0.31749  0.44916  1.0000
  C   C114      1.0  0.31087  0.06655  0.45749  1.0000
  H   H134      1.0  0.34617  0.06133  0.41897  1.0000
  C   C115      1.0  0.47477  0.46916  0.41042  1.0000
  H   H135      1.0  0.43508  0.17138  0.37777  1.0000
  H   H136      1.0  0.47479  0.02886  0.44974  1.0000
  C   C116      1.0  0.38407  0.00482  0.50591  1.0000
  H   H137      1.0  0.35680  0.03938  0.43969  1.0000
  C   C117      1.0  0.34748  0.04998  0.50889  1.0000
  H   H138      1.0  0.39997  0.02379  0.51791  1.0000
  C   C118      1.0  0.99625  0.34100  0.47510  1.0000
  C   C119      1.0  0.31691  0.00086  0.52903  1.0000
  C   C120      1.0  0.46381  0.41050  0.43190  1.0000
  H   H139      1.0  0.39621  0.03018  0.46872  1.0000
  H   H140      1.0  0.39823  0.31839  0.64642  1.0000
  C   C121      1.0  0.00996  0.33777  0.49863  1.0000
  N   N7        1.0  0.28888  0.37987  0.53108  1.0000
  C   C122      1.0  0.25680  0.37221  0.53135  1.0000
  C   C123      1.0  0.29508  0.36814  0.55609  1.0000
  C   C124      1.0  0.30786  0.41322  0.53191  1.0000
  C   C125      1.0  0.29471  0.36608  0.50717  1.0000
  C   C126      1.0  0.28071  0.33429  0.50477  1.0000
  C   C127      1.0  0.31413  0.38339  0.48575  1.0000
  C   C128      1.0  0.28683  0.32077  0.48297  1.0000
  C   C129      1.0  0.31980  0.36957  0.46390  1.0000
  C   C130      1.0  0.30651  0.33840  0.46269  1.0000
  H   H141      1.0  0.24117  0.34754  0.53272  1.0000
  H   H142      1.0  0.25186  0.38267  0.54901  1.0000
  H   H143      1.0  0.25105  0.38033  0.51274  1.0000
  H   H144      1.0  0.27953  0.34371  0.55907  1.0000
  H   H145      1.0  0.29253  0.37933  0.57438  1.0000
  H   H146      1.0  0.31844  0.37178  0.55589  1.0000
  H   H147      1.0  0.30284  0.42399  0.51481  1.0000
  H   H148      1.0  0.30375  0.42288  0.55054  1.0000
  H   H149      1.0  0.33237  0.42045  0.53184  1.0000
  H   H150      1.0  0.26531  0.31959  0.51997  1.0000
  H   H151      1.0  0.32579  0.40765  0.48559  1.0000
  H   H152      1.0  0.27670  0.29650  0.48199  1.0000
  H   H153      1.0  0.33554  0.38309  0.44822  1.0000
  H   H154      1.0  0.31199  0.32799  0.44619  1.0000
  H   H155      1.0  0.23956  0.37328  0.63755  1.0000
  H   H156      1.0  0.14878  0.33605  0.46620  1.0000
  H   H157      1.0  0.32708  0.31439  0.63018  1.0000
  H   H158      1.0  0.33904  0.27554  0.62051  1.0000
  N   N8        1.0  0.33623  0.06068  0.46141  1.0000
  H   H159      1.0  0.45075  0.45357  0.40929  1.0000
  H   H160      1.0  0.48598  0.04411  0.36860  1.0000
  C   C131      1.0  0.34092  0.03025  0.53055  1.0000
  H   H161      1.0  0.16070  0.34927  0.51370  1.0000
  H   H162      1.0  0.29070  0.00189  0.46687  1.0000
  H   H163      1.0  0.35510  0.03736  0.54838  1.0000
  N   N9        1.0  0.35131  0.30114  0.65752  1.0000
  H   H164      1.0  0.18564  0.35548  0.64833  1.0000
  H   H165      1.0  0.37856  0.33106  0.62553  1.0000
  H   H166      1.0  0.99100  0.32555  0.45842  1.0000
  H   H167      1.0  0.45504  0.39020  0.44494  1.0000
  H   H168      1.0  0.02068  0.47317  0.49048  1.0000
  S   S42       1.0  0.43871  0.47663  0.63153  1.0000
  H   H169      1.0  0.43487  0.01565  0.44908  1.0000
  Fe  Fe23      1.0  0.05054  0.38649  0.65055  1.0000
  N   N10       1.0  0.47975  0.43877  0.44770  1.0000
  H   H170      1.0  0.47878  0.40911  0.41640  1.0000
  C   C132      1.0  0.34217  0.27289  0.64237  1.0000
  H   H171      1.0  0.35930  0.26560  0.64371  1.0000
  S   S43       1.0  0.10012  0.42048  0.65483  1.0000
  H   H172      1.0  0.38042  0.10745  0.33233  1.0000
  H   H173      1.0  0.30541  0.29275  0.65835  1.0000
  H   H174      1.0  0.44716  0.99298  0.65367  1.0000
  Fe  Fe24      1.0  0.46422  0.37181  0.88686  1.0000
  S   S44       1.0  0.43175  0.38677  0.87387  1.0000
  C   C133      1.0  0.38885  0.01029  0.76165  1.0000
  Fe  Fe25      1.0  0.41568  0.30468  0.88823  1.0000
  S   S45       1.0  0.37958  0.31511  0.87472  1.0000
  S   S46       1.0  0.40740  0.25949  0.90531  1.0000
  Fe  Fe26      1.0  0.41399  0.34768  0.84472  1.0000
  S   S47       1.0  0.41619  0.35542  0.79865  1.0000
  Fe  Fe27      1.0  0.40042  0.35362  0.90492  1.0000
  S   S48       1.0  0.37171  0.36417  0.93401  1.0000
  S   S49       1.0  0.44848  0.33431  0.85669  1.0000
  S   S50       1.0  0.43445  0.34160  0.91960  1.0000
  S   S51       1.0  0.33860  0.37265  0.70609  1.0000
  S   S52       1.0  0.01449  0.37482  0.68359  1.0000
  C   C134      1.0  0.02518  0.34793  0.75870  1.0000
  Fe  Fe28      1.0  0.41434  0.07987  0.87034  1.0000
  S   S53       1.0  0.37298  0.03064  0.86560  1.0000
  S   S54       1.0  0.41443  0.14695  0.85667  1.0000
  Fe  Fe29      1.0  0.45163  0.04687  0.88777  1.0000
  H   H175      1.0  0.04930  0.35838  0.93647  1.0000
  H   H176      1.0  0.31884  0.30450  0.70253  1.0000
  Fe  Fe30      1.0  0.40283  0.01662  0.84456  1.0000
  H   H177      1.0  0.02124  0.47996  0.75301  1.0000
  Fe  Fe31      1.0  0.38632  0.01874  0.90484  1.0000
  H   H178      1.0  0.43880  0.43379  0.71148  1.0000
  S   S55       1.0  0.44393  0.06233  0.84790  1.0000
  S   S56       1.0  0.42603  0.06465  0.91113  1.0000
  H   H179      1.0  0.01147  0.42406  0.70604  1.0000
  C   C135      1.0  0.44246  0.00437  0.96348  1.0000
  H   H180      1.0  0.48931  0.44103  0.88927  1.0000
  H   H181      1.0  0.38839  0.03061  0.72371  1.0000
  H   H182      1.0  0.39833  0.03119  0.77283  1.0000
  H   H183      1.0  0.06087  0.42509  0.70975  1.0000
  Fe  Fe32      1.0  0.34614  0.38945  0.66242  1.0000
  H   H184      1.0  0.33756  0.37871  0.97131  1.0000
  C   C136      1.0  0.01054  0.36458  0.71837  1.0000
  H   H185      1.0  0.36646  0.28658  0.76312  1.0000
  H   H186      1.0  0.41994  0.09977  0.81382  1.0000
  H   H187      1.0  0.47094  0.42185  0.81002  1.0000
  C   C137      1.0  0.06416  0.33936  0.96736  1.0000
  C   C138      1.0  0.02978  0.35649  0.73128  1.0000
  H   H188      1.0  0.04155  0.40691  0.80027  1.0000
  C   C139      1.0  0.37664  0.28921  0.69514  1.0000
  H   H189      1.0  0.04785  0.35628  0.72003  1.0000
  H   H190      1.0  0.05938  0.42064  0.75449  1.0000
  C   C140      1.0  0.07470  0.39070  0.96735  1.0000
  C   C141      1.0  0.07273  0.45008  0.71052  1.0000
  C   C142      1.0  0.04311  0.45280  0.74911  1.0000
  H   H191      1.0  0.41733  0.48802  0.68600  1.0000
  C   C143      1.0  0.08971  0.39586  0.99202  1.0000
  C   C144      1.0  0.41181  0.22979  0.89123  1.0000
  C   C145      1.0  0.41226  0.22542  0.86342  1.0000
  C   C146      1.0  0.41352  0.20023  0.85334  1.0000
  C   C147      1.0  0.41479  0.17929  0.87080  1.0000
  C   C148      1.0  0.41528  0.18419  0.89861  1.0000
  C   C149      1.0  0.41337  0.20900  0.90870  1.0000
  H   H192      1.0  0.41097  0.24105  0.84968  1.0000
  H   H193      1.0  0.41324  0.19681  0.83179  1.0000
  H   H194      1.0  0.41710  0.16894  0.91238  1.0000
  H   H195      1.0  0.41328  0.21223  0.93024  1.0000
  C   C150      1.0  0.39488  0.36168  0.77361  1.0000
  C   C151      1.0  0.36752  0.36063  0.77931  1.0000
  C   C152      1.0  0.35097  0.36451  0.75846  1.0000
  C   C153      1.0  0.36153  0.36971  0.73169  1.0000
  C   C154      1.0  0.38916  0.37126  0.72605  1.0000
  C   C155      1.0  0.40565  0.36726  0.74687  1.0000
  H   H196      1.0  0.35883  0.35630  0.79969  1.0000
  H   H197      1.0  0.32957  0.36309  0.76311  1.0000
  H   H198      1.0  0.39736  0.37460  0.70556  1.0000
  H   H199      1.0  0.42656  0.36774  0.74210  1.0000
  C   C156      1.0  0.37590  0.37186  0.96941  1.0000
  H   H200      1.0  0.36490  0.23686  0.95494  1.0000
  C   C157      1.0  0.48657  0.41641  0.82104  1.0000
  H   H201      1.0  0.32662  0.29768  0.74936  1.0000
  N   N11       1.0  0.42664  0.46752  0.72014  1.0000
  C   C158      1.0  0.38076  0.28560  0.72245  1.0000
  H   H202      1.0  0.33554  0.27325  0.94443  1.0000
  C   C159      1.0  0.38319  0.00988  0.73376  1.0000
  N   N12       1.0  0.36882  0.27685  0.97334  1.0000
  N   N13       1.0  0.05279  0.46135  0.72077  1.0000
  C   C160      1.0  0.35689  0.24390  0.97306  1.0000
  H   H203      1.0  0.42015  0.43968  0.75501  1.0000
  H   H204      1.0  0.32950  0.10487  0.90773  1.0000
  H   H205      1.0  0.35616  0.12605  0.88170  1.0000
  H   H206      1.0  0.46689  0.01897  0.95890  1.0000
  H   H207      1.0  0.00445  0.46547  0.79980  1.0000
  S   S57       1.0  0.99358  0.37872  0.87384  1.0000
  H   H208      1.0  0.08030  0.45751  0.68943  1.0000
  H   H209      1.0  0.41046  0.11527  0.91587  1.0000
  H   H210      1.0  0.43821  0.01122  0.98360  1.0000
  H   H211      1.0  0.09339  0.45820  0.72307  1.0000
  H   H212      1.0  0.05344  0.31727  0.95803  1.0000
  H   H213      1.0  0.33174  0.23139  0.97271  1.0000
  H   H214      1.0  0.07190  0.40832  0.95819  1.0000
  H   H215      1.0  0.36960  0.30961  0.94579  1.0000
  C   C161      1.0  0.04815  0.43170  0.76342  1.0000
  C   C162      1.0  0.34029  0.29489  0.73409  1.0000
  H   H216      1.0  0.41211  0.31718  0.97608  1.0000
  H   H217      1.0  0.46266  0.13645  0.89420  1.0000
  H   H218      1.0  0.36754  0.07825  0.83432  1.0000
  H   H219      1.0  0.41485  0.36673  0.97469  1.0000
  H   H220      1.0  0.48341  0.37250  0.79026  1.0000
  H   H221      1.0  0.46779  0.12965  0.84330  1.0000
  C   C163      1.0  0.35520  0.37804  0.98280  1.0000
  H   H222      1.0  0.33420  0.33169  0.66274  1.0000
  C   C164      1.0  0.36276  0.28864  0.74190  1.0000
  H   H223      1.0  0.39817  0.28065  0.72868  1.0000
  C   C165      1.0  0.38203  0.01178  0.98605  1.0000
  C   C166      1.0  0.40231  0.29237  0.97455  1.0000
  S   S58       1.0  0.41218  0.00048  0.88336  1.0000
  H   H224      1.0  0.48096  0.03843  0.76839  1.0000
  C   C167      1.0  0.01683  0.45631  0.78943  1.0000
  C   C168      1.0  0.03792  0.42347  0.78989  1.0000
  H   H225      1.0  0.46009  0.48454  0.76868  1.0000
  H   H226      1.0  0.36968  0.27851  0.92978  1.0000
  H   H227      1.0  0.39819  0.03161  0.97523  1.0000
  C   C169      1.0  0.06192  0.36253  0.95508  1.0000
  H   H228      1.0  0.03992  0.34123  0.76827  1.0000
  C   C170      1.0  0.40986  0.45178  0.74492  1.0000
  H   H229      1.0  0.41206  0.28772  0.95627  1.0000
  H   H230      1.0  0.34850  0.04365  0.90963  1.0000
  H   H231      1.0  0.36908  0.12382  0.91462  1.0000
  H   H232      1.0  0.39115  0.28660  0.68084  1.0000
  C   C171      1.0  0.33610  0.29879  0.70688  1.0000
  N   N14       1.0  0.35310  0.08358  0.89052  1.0000
  C   C172      1.0  0.32742  0.06628  0.87185  1.0000
  C   C173      1.0  0.34848  0.06475  0.91470  1.0000
  C   C174      1.0  0.35187  0.11069  0.89906  1.0000
  C   C175      1.0  0.38289  0.09299  0.87808  1.0000
  C   C176      1.0  0.41160  0.11042  0.89486  1.0000
  C   C177      1.0  0.38662  0.08906  0.84777  1.0000
  C   C178      1.0  0.44261  0.12313  0.88221  1.0000
  C   C179      1.0  0.41766  0.10175  0.83530  1.0000
  C   C180      1.0  0.44562  0.11918  0.85251  1.0000
  H   H233      1.0  0.32693  0.04560  0.86433  1.0000
  H   H234      1.0  0.30528  0.05880  0.88189  1.0000
  H   H235      1.0  0.32838  0.08016  0.85426  1.0000
  H   H236      1.0  0.32640  0.05784  0.92462  1.0000
  H   H237      1.0  0.36610  0.07659  0.93030  1.0000
  C   C181      1.0  0.02563  0.44883  0.70333  1.0000
  C   C182      1.0  0.36044  0.28493  0.94731  1.0000
  C   C183      1.0  0.07928  0.34429  0.99194  1.0000
  C   C184      1.0  0.00177  0.34793  0.77378  1.0000
  C   C185      1.0  0.44835  0.99575  0.67593  1.0000
  C   C186      1.0  0.02680  0.46461  0.76287  1.0000
  H   H238      1.0  0.45937  0.01687  0.81282  1.0000
  C   C187      1.0  0.48280  0.02383  0.80837  1.0000
  H   H239      1.0  0.38609  0.43421  0.74031  1.0000
  C   C188      1.0  0.42690  0.44461  0.70202  1.0000
  C   C189      1.0  0.40944  0.48027  0.70692  1.0000
  C   C190      1.0  0.39860  0.37115  0.98461  1.0000
  H   H240      1.0  0.47278  0.39330  0.82923  1.0000
  S   S59       1.0  0.99649  0.33595  0.80810  1.0000
  H   H241      1.0  0.40352  0.42666  0.69683  1.0000
  C   C191      1.0  0.02233  0.43574  0.80287  1.0000
  H   H242      1.0  0.42989  0.00976  0.94821  1.0000
  H   H243      1.0  0.40860  0.46770  0.75948  1.0000
  H   H244      1.0  0.43847  0.45438  0.68263  1.0000
  H   H245      1.0  0.46905  0.01735  0.68093  1.0000
  H   H246      1.0  0.01418  0.42902  0.82332  1.0000
  H   H247      1.0  0.01110  0.45876  0.70777  1.0000
  H   H248      1.0  0.38497  0.46335  0.70512  1.0000
  C   C192      1.0  0.35447  0.29639  0.68651  1.0000
  H   H249      1.0  0.33244  0.30416  0.97597  1.0000
  H   H250      1.0  0.00238  0.39548  0.96060  1.0000
  H   H251      1.0  0.47965  0.39895  0.77017  1.0000
  C   C193      1.0  0.00511  0.38366  0.97738  1.0000
  C   C194      1.0  0.99492  0.35283  0.97513  1.0000
  H   H252      1.0  0.42842  0.99813  0.68134  1.0000
  H   H253      1.0  0.03166  0.45267  0.68157  1.0000
  H   H254      1.0  0.36426  0.23621  0.99089  1.0000
  H   H255      1.0  0.41073  0.28511  0.99191  1.0000
  H   H256      1.0  0.46294  0.99374  0.72801  1.0000
  C   C195      1.0  0.33880  0.29895  0.99509  1.0000
  Fe  Fe33      1.0  0.03662  0.64822  0.09480  1.0000
  S   S60       1.0  0.08363  0.65546  0.08941  1.0000
  H   H257      1.0  0.04394  0.60426  0.02025  1.0000
  Fe  Fe34      1.0  0.03441  0.63232  0.15623  1.0000
  S   S61       1.0  0.08097  0.63775  0.15416  1.0000
  C   C196      1.0  0.34010  0.96078  0.01487  1.0000
  Fe  Fe35      1.0  0.09405  0.67984  0.12955  1.0000
  S   S62       1.0  0.13953  0.71994  0.14330  1.0000
  Fe  Fe36      1.0  0.06745  0.61366  0.11441  1.0000
  S   S63       1.0  0.06747  0.57254  0.09760  1.0000
  S   S64       1.0  0.04759  0.67538  0.13360  1.0000
  S   S65       1.0  0.02036  0.60538  0.11781  1.0000
  Fe  Fe37      1.0  0.29290  0.88405  0.11429  1.0000
  S   S66       1.0  0.30709  0.93295  0.12252  1.0000
  S   S67       1.0  0.24604  0.84697  0.09983  1.0000
  Fe  Fe38      1.0  0.35788  0.89668  0.12044  1.0000
  S   S68       1.0  0.37659  0.94570  0.12890  1.0000
  S   S69       1.0  0.38444  0.87220  0.12215  1.0000
  Fe  Fe39      1.0  0.33646  0.93136  0.15614  1.0000
  C   C197      1.0  0.48441  0.57793  0.12803  1.0000
  Fe  Fe40      1.0  0.34659  0.94398  0.09459  1.0000
  H   H258      1.0  0.45278  0.58697  0.17874  1.0000
  S   S70       1.0  0.31932  0.88188  0.14935  1.0000
  S   S71       1.0  0.33081  0.89564  0.08461  1.0000
  C   C198      1.0  0.42323  0.89356  0.11421  1.0000
  C   C199      1.0  0.44216  0.88134  0.11831  1.0000
  H   H259      1.0  0.33170  0.52827  0.18127  1.0000
  C   C200      1.0  0.43550  0.92274  0.10409  1.0000
  H   H260      1.0  0.43281  0.85878  0.12619  1.0000
  C   C201      1.0  0.02790  0.51206  0.17140  1.0000
  H   H261      1.0  0.42114  0.93235  0.10074  1.0000
  C   C202      1.0  0.29350  0.80907  0.12733  1.0000
  H   H262      1.0  0.00799  0.70489  0.04238  1.0000
  C   C203      1.0  0.42645  0.97528  0.18553  1.0000
  H   H263      1.0  0.48865  0.52608  0.10041  1.0000
  H   H264      1.0  0.47558  0.96183  0.08958  1.0000
  N   N15       1.0  0.01804  0.55607  0.02642  1.0000
  H   H265      1.0  0.43460  0.97956  0.16429  1.0000
  H   H266      1.0  0.00526  0.56070  0.27141  1.0000
  C   C204      1.0  0.25779  0.76843  0.09879  1.0000
  C   C205      1.0  0.01855  0.63270  0.24072  1.0000
  C   C206      1.0  0.01456  0.63420  0.26879  1.0000
  C   C207      1.0  0.47840  0.53832  0.15831  1.0000
  C   C208      1.0  0.45636  0.55792  0.11631  1.0000
  H   H267      1.0  0.03981  0.64833  0.23134  1.0000
  H   H268      1.0  0.03292  0.65119  0.28069  1.0000
  H   H269      1.0  0.30653  0.76525  0.08423  1.0000
  C   C209      1.0  0.30957  0.77897  0.10263  1.0000
  C   C210      1.0  0.45976  0.95577  0.19515  1.0000
  H   H270      1.0  0.28690  0.79440  0.14535  1.0000
  H   H271      1.0  0.04987  0.66875  0.02137  1.0000
  C   C211      1.0  0.16797  0.75593  0.13122  1.0000
  C   C212      1.0  0.16636  0.76715  0.10597  1.0000
  C   C213      1.0  0.19025  0.79513  0.09696  1.0000
  C   C214      1.0  0.21600  0.81245  0.11302  1.0000
  C   C215      1.0  0.21726  0.80154  0.13852  1.0000
  C   C216      1.0  0.19352  0.77346  0.14743  1.0000
  H   H272      1.0  0.14692  0.75411  0.09326  1.0000
  H   H273      1.0  0.18882  0.80334  0.07730  1.0000
  H   H274      1.0  0.23639  0.81473  0.15150  1.0000
  H   H275      1.0  0.19495  0.76522  0.16708  1.0000
  C   C217      1.0  0.08045  0.55115  0.11482  1.0000
  C   C218      1.0  0.07211  0.52234  0.10502  1.0000
  C   C219      1.0  0.35666  0.49471  0.16647  1.0000
  C   C220      1.0  0.09926  0.51479  0.14143  1.0000
  C   C221      1.0  0.10789  0.54376  0.15114  1.0000
  C   C222      1.0  0.09845  0.56192  0.13790  1.0000
  C   C223      1.0  0.35686  0.96973  0.22685  1.0000
  H   H276      1.0  0.99360  0.51230  0.04551  1.0000
  H   H277      1.0  0.12194  0.55216  0.16891  1.0000
  H   H278      1.0  0.10539  0.58430  0.14533  1.0000
  C   C224      1.0  0.45017  0.51849  0.14696  1.0000
  C   C225      1.0  0.43934  0.52815  0.12562  1.0000
  N   N16       1.0  0.02066  0.53331  0.18554  1.0000
  H   H279      1.0  0.05834  0.51393  0.08708  1.0000
  C   C226      1.0  0.00041  0.54749  0.00103  1.0000
  H   H280      1.0  0.03936  0.52935  0.01866  1.0000
  H   H281      1.0  0.03715  0.49759  0.26729  1.0000
  C   C227      1.0  0.40717  0.55427  0.16736  1.0000
  C   C228      1.0  0.43308  0.58275  0.16708  1.0000
  C   C229      1.0  0.40968  0.59997  0.13506  1.0000
  C   C230      1.0  0.43450  0.60540  0.15072  1.0000
  C   C231      1.0  0.01171  0.54687  0.25959  1.0000
  H   H282      1.0  0.44116  0.92950  0.04427  1.0000
  C   C232      1.0  0.02840  0.58750  0.03517  1.0000
  C   C233      1.0  0.36470  0.98385  0.02863  1.0000
  H   H283      1.0  0.25639  0.74488  0.13584  1.0000
  H   H284      1.0  0.36491  0.56857  0.12281  1.0000
  C   C234      1.0  0.41798  0.94550  0.22549  1.0000
  H   H285      1.0  0.38258  0.91721  0.18454  1.0000
  H   H286      1.0  0.36798  0.50634  0.11289  1.0000
  H   H287      1.0  0.35992  0.50084  0.18822  1.0000
  C   C235      1.0  0.19652  0.72208  0.09436  1.0000
  S   S72       1.0  0.99828  0.60811  0.18928  1.0000
  C   C236      1.0  0.35100  0.96188  0.25428  1.0000
  H   H288      1.0  0.32294  0.53448  0.14775  1.0000
  H   H289      1.0  0.44759  0.56573  0.10035  1.0000
  C   C237      1.0  0.01156  0.54807  0.23149  1.0000
  C   C238      1.0  0.38164  0.54773  0.15113  1.0000
  H   H290      1.0  0.41770  0.51296  0.11670  1.0000
  H   H291      1.0  0.34221  0.52021  0.10867  1.0000
  H   H292      1.0  0.03876  0.58149  0.18611  1.0000
  H   H293      1.0  0.03665  0.49850  0.21853  1.0000
  H   H294      1.0  0.33573  0.93868  0.25965  1.0000
  H   H295      1.0  0.27937  0.82002  0.12718  1.0000
  H   H296      1.0  0.99022  0.52795  0.15308  1.0000
  N   N17       1.0  0.35418  0.51758  0.15009  1.0000
  H   H297      1.0  0.42109  0.92785  0.23550  1.0000
  C   C239      1.0  0.36443  0.98374  0.27489  1.0000
  H   H298      1.0  0.32370  0.94114  0.02580  1.0000
  H   H299      1.0  0.30493  0.76418  0.12040  1.0000
  H   H300      1.0  0.24728  0.78445  0.06151  1.0000
  C   C240      1.0  0.21385  0.72262  0.11617  1.0000
  C   C241      1.0  0.38352  0.57167  0.13536  1.0000
  C   C242      1.0  0.99936  0.53603  0.04861  1.0000
  H   H301      1.0  0.30684  0.49695  0.16014  1.0000
  H   H302      1.0  0.43006  0.96655  0.23750  1.0000
  H   H303      1.0  0.41076  0.92417  0.16007  1.0000
  C   C243      1.0  0.02069  0.52853  0.27246  1.0000
  C   C244      1.0  0.04521  0.55295  0.02287  1.0000
  H   H304      1.0  0.32477  0.83263  0.08271  1.0000
  H   H305      1.0  0.41100  0.61772  0.12231  1.0000
  H   H306      1.0  0.29937  0.80420  0.05982  1.0000
  N   N18       1.0  0.28975  0.79244  0.10183  1.0000
  H   H307      1.0  0.41214  0.93949  0.01176  1.0000
  H   H308      1.0  0.31743  0.82700  0.13043  1.0000
  C   C245      1.0  0.46886  0.93996  0.17728  1.0000
  C   C246      1.0  0.46637  0.93940  0.09771  1.0000
  H   H309      1.0  0.28752  0.82684  0.07871  1.0000
  C   C247      1.0  0.02921  0.51217  0.22903  1.0000
  C   C248      1.0  0.20929  0.74428  0.07469  1.0000
  C   C249      1.0  0.30072  0.81487  0.07969  1.0000
  C   C250      1.0  0.47318  0.89814  0.11211  1.0000
  H   H310      1.0  0.33392  0.79662  0.10394  1.0000
  C   C251      1.0  0.02837  0.65584  0.01128  1.0000
  C   C252      1.0  0.02954  0.51132  0.25722  1.0000
  H   H311      1.0  0.48694  0.53093  0.17479  1.0000
  C   C253      1.0  0.40629  0.92193  0.18211  1.0000
  N   N19       1.0  0.42815  0.94950  0.19697  1.0000
  H   H312      1.0  0.20337  0.70589  0.13189  1.0000
  H   H313      1.0  0.39357  0.93868  0.22710  1.0000
  C   C254      1.0  0.43592  0.94878  0.00757  1.0000
  H   H314      1.0  0.40686  0.90169  0.18931  1.0000
  H   H315      1.0  0.05101  0.51648  0.17643  1.0000
  H   H316      1.0  0.06658  0.56988  0.18525  1.0000
  H   H317      1.0  0.05941  0.56713  0.00590  1.0000
  C   C255      1.0  0.00233  0.71065  0.00026  1.0000
  H   H318      1.0  0.19532  0.74440  0.05834  1.0000
  H   H319      1.0  0.35943  0.97723  0.29580  1.0000
  C   C256      1.0  0.00193  0.64036  0.02656  1.0000
  H   H320      1.0  0.40826  0.53760  0.17980  1.0000
  H   H321      1.0  0.04118  0.59309  0.05451  1.0000
  H   H322      1.0  0.17277  0.70514  0.09333  1.0000
  H   H323      1.0  0.01139  0.54302  0.06831  1.0000
  C   C257      1.0  0.32783  0.51947  0.16025  1.0000
  H   H324      1.0  0.04528  0.56721  0.15552  1.0000
  C   C258      1.0  0.34805  0.50642  0.12186  1.0000
  H   H325      1.0  0.48757  0.88845  0.11497  1.0000
  C   C259      1.0  0.04380  0.56426  0.17781  1.0000
  S   S73       1.0  0.00189  0.64251  0.06245  1.0000
  S   S74       1.0  0.33928  0.94078  0.20191  1.0000
  C   C260      1.0  0.24408  0.74527  0.11834  1.0000
  C   C261      1.0  0.45245  0.94299  0.02667  1.0000
  H   H326      1.0  0.45518  0.62702  0.14977  1.0000
  C   C262      1.0  0.99492  0.61125  0.22489  1.0000
  S   S75       1.0  0.11055  0.49205  0.15874  1.0000
  C   C263      1.0  0.23937  0.76731  0.07684  1.0000
  H   H327      1.0  0.05959  0.56005  0.04129  1.0000
  C   C264      1.0  0.02014  0.53069  0.21528  1.0000
  H   H328      1.0  0.40284  0.97109  0.18557  1.0000
  H   H329      1.0  0.00034  0.68038  0.24455  1.0000
  S   S76       1.0  0.37040  0.98232  0.06392  1.0000
  H   H330      1.0  0.02771  0.51432  0.14909  1.0000
  H   H331      1.0  0.02118  0.52804  0.29429  1.0000
  H   H332      1.0  0.45313  0.92200  0.16437  1.0000
  C   C265      1.0  0.08134  0.50416  0.11832  1.0000
  C   C266      1.0  0.99084  0.52754  0.17551  1.0000
  H   H333      1.0  0.00895  0.59120  0.03875  1.0000
  C   C267      1.0  0.48526  0.92713  0.10152  1.0000
  C   C268      1.0  0.48291  0.97944  0.21052  1.0000
  H   H334      1.0  0.00519  0.56324  0.22249  1.0000
  C   C269      1.0  0.48334  0.95435  0.02325  1.0000
  H   H335      1.0  0.02628  0.72551  0.99689  1.0000
  H   H336      1.0  0.99028  0.50074  0.00131  1.0000
  C   C270      1.0  0.99208  0.69921  0.02592  1.0000
  H   H337      1.0  0.37566  0.49159  0.15943  1.0000
  H   H338      1.0  0.39921  0.96454  0.43377  1.0000
  C   C271      1.0  0.42839  0.96806  0.48070  1.0000
  C   C272      1.0  0.45773  0.51519  0.62321  1.0000
  C   C273      1.0  0.34510  0.95266  0.50277  1.0000
  C   C274      1.0  0.02295  0.61867  0.49721  1.0000
  H   H339      1.0  0.04015  0.61610  0.48675  1.0000
  Fe  Fe41      1.0  0.04251  0.64475  0.60620  1.0000
  S   S77       1.0  0.08187  0.63714  0.60038  1.0000
  H   H340      1.0  0.46710  0.96320  0.40864  1.0000
  H   H341      1.0  0.32473  0.83728  0.62616  1.0000
  H   H342      1.0  0.26913  0.75092  0.62415  1.0000
  Fe  Fe42      1.0  0.10841  0.68027  0.62460  1.0000
  S   S78       1.0  0.15530  0.71477  0.60802  1.0000
  Fe  Fe43      1.0  0.06859  0.61327  0.64038  1.0000
  C   C275      1.0  0.25562  0.75216  0.64032  1.0000
  S   S79       1.0  0.06934  0.68864  0.62899  1.0000
  S   S80       1.0  0.02713  0.61779  0.64464  1.0000
  Fe  Fe44      1.0  0.29785  0.88974  0.62319  1.0000
  S   S81       1.0  0.31486  0.93979  0.61863  1.0000
  S   S82       1.0  0.24789  0.85487  0.63143  1.0000
  Fe  Fe45      1.0  0.36168  0.90026  0.62606  1.0000
  S   S83       1.0  0.38315  0.95006  0.62143  1.0000
  H   H343      1.0  0.43850  0.86931  0.65000  1.0000
  C   C276      1.0  0.06091  0.51569  0.64726  1.0000
  Fe  Fe46      1.0  0.34856  0.93993  0.58883  1.0000
  H   H344      1.0  0.32729  0.93729  0.46277  1.0000
  C   C277      1.0  0.08907  0.70457  0.49697  1.0000
  S   S84       1.0  0.32947  0.88940  0.59133  1.0000
  C   C278      1.0  0.42414  0.89289  0.62335  1.0000
  C   C279      1.0  0.44491  0.88503  0.63349  1.0000
  C   C280      1.0  0.47401  0.89739  0.62223  1.0000
  C   C281      1.0  0.43263  0.91340  0.60216  1.0000
  C   C282      1.0  0.04592  0.68877  0.46765  1.0000
  H   H345      1.0  0.29408  0.80397  0.61180  1.0000
  H   H346      1.0  0.41676  0.91959  0.59424  1.0000
  H   H347      1.0  0.46782  0.94102  0.57416  1.0000
  H   H348      1.0  0.41939  0.51603  0.60626  1.0000
  H   H349      1.0  0.33071  0.93110  0.51212  1.0000
  H   H350      1.0  0.13360  0.55304  0.60389  1.0000
  H   H351      1.0  0.00279  0.50888  0.49486  1.0000
  C   C283      1.0  0.02606  0.62501  0.52512  1.0000
  H   H352      1.0  0.11592  0.76586  0.53256  1.0000
  H   H353      1.0  0.04529  0.62683  0.53587  1.0000
  C   C284      1.0  0.18016  0.75399  0.61433  1.0000
  C   C285      1.0  0.20755  0.76912  0.59991  1.0000
  C   C286      1.0  0.22848  0.79983  0.60476  1.0000
  C   C287      1.0  0.22238  0.81596  0.62421  1.0000
  C   C288      1.0  0.19479  0.80091  0.63835  1.0000
  C   C289      1.0  0.17385  0.77018  0.63352  1.0000
  H   H354      1.0  0.21268  0.75694  0.58494  1.0000
  H   H355      1.0  0.24912  0.81109  0.59317  1.0000
  C   C290      1.0  0.44595  0.94191  0.50936  1.0000
  H   H356      1.0  0.47438  0.68600  0.65066  1.0000
  C   C291      1.0  0.07459  0.54650  0.64127  1.0000
  C   C292      1.0  0.10063  0.55986  0.62535  1.0000
  C   C293      1.0  0.11320  0.54255  0.61591  1.0000
  C   C294      1.0  0.09959  0.51176  0.62199  1.0000
  N   N20       1.0  0.08888  0.71982  0.54521  1.0000
  S   S85       1.0  0.99659  0.60992  0.44712  1.0000
  C   C295      1.0  0.30117  0.81891  0.62979  1.0000
  C   C296      1.0  0.45962  0.56005  0.60506  1.0000
  S   S86       1.0  0.00854  0.64015  0.57356  1.0000
  H   H357      1.0  0.28665  0.82939  0.63070  1.0000
  H   H358      1.0  0.21709  0.70986  0.62835  1.0000
  C   C297      1.0  0.44319  0.52908  0.61104  1.0000
  H   H359      1.0  0.03005  0.70540  0.52915  1.0000
  C   C298      1.0  0.46150  0.92540  0.59071  1.0000
  H   H360      1.0  0.06575  0.74347  0.55760  1.0000
  S   S87       1.0  0.38765  0.87688  0.63734  1.0000
  C   C299      1.0  0.48825  0.68140  0.63614  1.0000
  C   C300      1.0  0.07518  0.69425  0.47190  1.0000
  C   C301      1.0  0.07089  0.72610  0.56511  1.0000
  H   H361      1.0  0.11148  0.70774  0.49947  1.0000
  H   H362      1.0  0.99747  0.54979  0.48202  1.0000
  C   C302      1.0  0.34316  0.95630  0.47475  1.0000
  H   H363      1.0  0.47249  0.97025  0.64057  1.0000
  C   C303      1.0  0.07396  0.70974  0.51862  1.0000
  H   H364      1.0  0.08314  0.73456  0.58458  1.0000
  C   C304      1.0  0.00460  0.62947  0.53883  1.0000
  H   H365      1.0  0.00720  0.68804  0.48531  1.0000
  H   H366      1.0  0.48025  0.93411  0.49262  1.0000
  S   S88       1.0  0.36923  0.97412  0.55406  1.0000
  C   C305      1.0  0.48862  0.53236  0.62933  1.0000
  C   C306      1.0  0.99339  0.49261  0.47871  1.0000
  H   H367      1.0  0.13488  0.74431  0.53022  1.0000
  C   C307      1.0  0.36156  0.98420  0.46214  1.0000
  C   C308      1.0  0.47073  0.98587  0.41397  1.0000
  C   C309      1.0  0.46714  0.95774  0.46464  1.0000
  C   C310      1.0  0.11855  0.74779  0.54232  1.0000
  H   H368      1.0  0.08680  0.68974  0.45582  1.0000
  H   H369      1.0  0.07224  0.67463  0.55882  1.0000
  C   C311      1.0  0.09397  0.69608  0.55660  1.0000
  H   H370      1.0  0.04927  0.70533  0.57016  1.0000
  H   H371      1.0  0.44833  0.57074  0.59561  1.0000
  H   H372      1.0  0.11140  0.58360  0.62071  1.0000
  Fe  Fe47      1.0  0.34866  0.94703  0.65125  1.0000
  H   H373      1.0  0.41247  0.94245  0.41701  1.0000
  H   H374      1.0  0.41308  0.97664  0.47826  1.0000
  H   H375      1.0  0.10912  0.69139  0.54392  1.0000
  C   C312      1.0  0.04395  0.70357  0.51367  1.0000
  C   C313      1.0  0.99811  0.61609  0.48265  1.0000
  H   H376      1.0  0.12970  0.75638  0.56225  1.0000
  H   H377      1.0  0.44487  0.93087  0.52827  1.0000
  H   H378      1.0  0.10461  0.70248  0.57684  1.0000
  H   H379      1.0  0.41187  0.95285  0.52091  1.0000
  H   H380      1.0  0.15298  0.75901  0.64483  1.0000
  C   C314      1.0  0.44820  0.97022  0.45961  1.0000
  S   S89       1.0  0.05953  0.56771  0.65574  1.0000
  C   C315      1.0  0.46576  0.94365  0.48915  1.0000
  S   S90       1.0  0.32938  0.89774  0.65794  1.0000
  C   C316      1.0  0.36561  0.97694  0.51857  1.0000
  C   C317      1.0  0.42741  0.95425  0.50520  1.0000
  H   H381      1.0  0.03482  0.67982  0.44847  1.0000
  H   H382      1.0  0.34412  0.80945  0.65324  1.0000
  H   H383      1.0  0.18963  0.81310  0.65330  1.0000
  H   H384      1.0  0.48694  0.65977  0.64200  1.0000
  C   C318      1.0  0.03039  0.69346  0.48846  1.0000
  C   C319      1.0  0.48218  0.91730  0.60055  1.0000
  C   C320      1.0  0.41770  0.96595  0.42090  1.0000
  H   H385      1.0  0.28072  0.96799  0.50474  1.0000
  H   H386      1.0  0.31747  0.77783  0.63469  1.0000
  H   H387      1.0  0.31266  0.98541  0.54555  1.0000
  C   C321      1.0  0.26721  0.77741  0.65793  1.0000
  N   N21       1.0  0.44783  0.98408  0.43356  1.0000
  H   H388      1.0  0.41606  0.97575  0.40142  1.0000
  C   C322      1.0  0.32013  0.79079  0.65344  1.0000
  H   H389      1.0  0.47727  0.67706  0.61607  1.0000
  H   H390      1.0  0.48308  0.95838  0.44996  1.0000
  C   C323      1.0  0.22585  0.72850  0.64252  1.0000
  N   N22       1.0  0.29870  0.80244  0.65496  1.0000
  H   H391      1.0  0.42274  0.93873  0.65837  1.0000
  C   C324      1.0  0.07322  0.49830  0.63747  1.0000
  S   S91       1.0  0.35892  0.98716  0.42655  1.0000
  C   C325      1.0  0.48569  0.96993  0.65744  1.0000
  H   H392      1.0  0.99028  0.54309  0.43275  1.0000
  H   H393      1.0  0.04057  0.50520  0.65932  1.0000
  H   H394      1.0  0.47257  0.49563  0.37779  1.0000
  C   C326      1.0  0.48702  0.49322  0.39233  1.0000
  C   C327      1.0  0.29907  0.99107  0.50597  1.0000
  S   S92       1.0  0.04916  0.67343  0.70916  1.0000
  H   H395      1.0  0.42323  0.97593  0.72274  1.0000
  H   H396      1.0  0.09531  0.63470  0.75845  1.0000
  C   C328      1.0  0.37020  0.95679  0.75988  1.0000
  C   C329      1.0  0.36415  0.95630  0.73206  1.0000
  H   H397      1.0  0.46744  0.50699  0.68348  1.0000
  H   H398      1.0  0.36511  0.93608  0.76991  1.0000
  H   H399      1.0  0.35453  0.93538  0.72090  1.0000
  H   H400      1.0  0.02258  0.59701  0.72075  1.0000
  H   H401      1.0  0.39992  0.94140  0.68441  1.0000
  C   C330      1.0  0.02005  0.65287  0.73322  1.0000
  C   C331      1.0  0.02455  0.66265  0.76026  1.0000
  H   H402      1.0  0.06275  0.63718  0.74925  1.0000
  C   C332      1.0  0.04729  0.57880  0.75908  1.0000
  C   C333      1.0  0.02683  0.65575  0.98284  1.0000
  H   H403      1.0  0.04505  0.68305  0.76576  1.0000
  C   C334      1.0  0.33632  0.96340  0.98699  1.0000
  H   H404      1.0  0.43918  0.95318  0.73098  1.0000
  C   C335      1.0  0.47179  0.49762  0.75117  1.0000
  H   H405      1.0  0.04737  0.66839  0.97129  1.0000
  H   H406      1.0  0.30639  0.81311  0.69730  1.0000
  H   H407      1.0  0.48804  0.96503  0.72610  1.0000
  C   C336      1.0  0.21699  0.75416  0.67910  1.0000
  C   C337      1.0  0.03982  0.59142  0.71393  1.0000
  H   H408      1.0  0.06995  0.55195  0.76046  1.0000
  C   C338      1.0  0.99326  0.62665  0.72644  1.0000
  H   H409      1.0  0.09039  0.64407  0.72456  1.0000
  N   N23       1.0  0.44795  0.97008  0.69014  1.0000
  S   S93       1.0  0.36576  0.98421  0.68338  1.0000
  N   N24       1.0  0.43315  0.97199  0.96306  1.0000
  H   H410      1.0  0.05033  0.60534  0.69572  1.0000
  C   C339      1.0  0.02536  0.58306  0.77299  1.0000
  H   H411      1.0  0.39135  0.92984  0.96689  1.0000
  H   H412      1.0  0.02782  0.56746  0.70735  1.0000
  H   H413      1.0  0.09612  0.60466  0.70470  1.0000
  C   C340      1.0  0.44336  0.97338  0.71926  1.0000
  H   H414      1.0  0.99437  0.57065  0.80630  1.0000
  H   H415      1.0  0.31720  0.77608  0.67095  1.0000
  C   C341      1.0  0.05344  0.55658  0.76949  1.0000
  C   C342      1.0  0.42164  0.94180  0.68044  1.0000
  C   C343      1.0  0.38248  0.98373  0.77489  1.0000
  C   C344      1.0  0.43994  0.96419  0.93605  1.0000
  C   C345      1.0  0.39984  0.95448  0.96673  1.0000
  H   H416      1.0  0.10388  0.59518  0.73721  1.0000
  H   H417      1.0  0.07948  0.50156  0.69726  1.0000
  H   H418      1.0  0.01965  0.59966  0.76639  1.0000
  H   H419      1.0  0.39271  0.96079  0.98571  1.0000
  C   C346      1.0  0.99901  0.63974  0.96925  1.0000
  C   C347      1.0  0.08534  0.59050  0.72286  1.0000
  C   C348      1.0  0.47613  0.51037  0.70380  1.0000
  N   N25       1.0  0.06261  0.59709  0.73498  1.0000
  H   H420      1.0  0.20151  0.75538  0.69337  1.0000
  C   C349      1.0  0.07846  0.62953  0.74219  1.0000
  H   H421      1.0  0.38768  0.95881  0.95025  1.0000
  H   H422      1.0  0.42047  0.92173  0.69019  1.0000
  H   H423      1.0  0.00548  0.59148  0.99118  1.0000
  H   H424      1.0  0.07477  0.56684  0.71556  1.0000
  S   S94       1.0  0.09858  0.65529  0.66395  1.0000
  H   H425      1.0  0.29567  0.83646  0.67838  1.0000
  C   C350      1.0  0.01059  0.56636  0.79586  1.0000
  H   H426      1.0  0.31701  0.94552  0.97669  1.0000
  C   C351      1.0  0.24674  0.77793  0.67716  1.0000
  Fe  Fe48      1.0  0.05733  0.66047  0.66691  1.0000
  H   H427      1.0  0.04396  0.52358  0.80052  1.0000
  H   H428      1.0  0.42515  0.96523  0.92019  1.0000
  C   C352      1.0  0.47603  0.96922  0.68442  1.0000
  C   C353      1.0  0.00303  0.64606  0.78038  1.0000
  H   H429      1.0  0.43659  0.94101  0.93583  1.0000
  H   H430      1.0  0.08887  0.50504  0.73241  1.0000
  C   C354      1.0  0.03852  0.53994  0.79247  1.0000
  H   H431      1.0  0.41132  0.49977  0.71851  1.0000
  S   S95       1.0  0.99842  0.64103  0.93332  1.0000
  H   H432      1.0  0.33286  0.84222  0.67543  1.0000
  H   H433      1.0  0.25283  0.79676  0.69051  1.0000
  C   C355      1.0  0.01711  0.54478  0.80557  1.0000
  H   H434      1.0  0.18325  0.71158  0.66284  1.0000
  H   H435      1.0  0.05528  0.50489  0.72087  1.0000
  C   C356      1.0  0.45001  0.96604  0.98411  1.0000
  C   C357      1.0  0.48170  0.97806  0.98167  1.0000
  H   H436      1.0  0.99117  0.71165  0.95926  1.0000
  C   C358      1.0  0.37086  0.98294  0.71876  1.0000
  S   S96       1.0  0.39073  0.98301  0.80968  1.0000
  C   C359      1.0  0.35732  0.98879  0.97235  1.0000
  H   H437      1.0  0.00707  0.65371  0.80109  1.0000
  H   H438      1.0  0.00584  0.53212  0.82352  1.0000
  C   C360      1.0  0.99606  0.56822  0.98544  1.0000
  H   H439      1.0  0.46339  0.98005  0.92930  1.0000
  C   C361      1.0  0.30872  0.82436  0.67761  1.0000
  S   S97       1.0  0.35178  0.99060  0.93708  1.0000
  C   C362      1.0  0.06975  0.49462  0.71788  1.0000
  C   C363      1.0  0.45811  0.49174  0.72525  1.0000
  C   C364      1.0  0.20665  0.72943  0.66196  1.0000
  C   C365      1.0  0.67599  0.00465  0.25040  1.0000
  H   H440      1.0  0.83924  0.16564  0.24319  1.0000
  C   C366      1.0  0.66528  0.01575  0.27118  1.0000
  N   N26       1.0  0.74829  0.12625  0.29207  1.0000
  N   N27       1.0  0.97611  0.41535  0.27638  1.0000
  H   H441      1.0  0.78632  0.12864  0.24956  1.0000
  H   H442      1.0  0.49748  0.45647  0.28304  1.0000
  C   C367      1.0  0.61704  0.03978  0.05263  1.0000
  H   H443      1.0  0.70587  0.12537  0.29802  1.0000
  C   C368      1.0  0.49094  0.43232  0.28320  1.0000
  H   H444      1.0  0.73349  0.15673  0.27872  1.0000
  H   H445      1.0  0.57100  0.04541  0.07119  1.0000
  H   H446      1.0  0.63019  0.02531  0.28236  1.0000
  H   H447      1.0  0.93636  0.37689  0.29251  1.0000
  C   C369      1.0  0.63880  0.01686  0.26670  1.0000
  H   H448      1.0  0.72298  0.09141  0.32093  1.0000
  H   H449      1.0  0.74400  0.08924  0.26768  1.0000
  S   S98       1.0  0.65741  0.99792  0.05548  1.0000
  H   H450      1.0  0.50289  0.42835  0.26627  1.0000
  H   H451      1.0  0.62127  0.03168  0.07204  1.0000
  C   C370      1.0  0.95819  0.43010  0.26997  1.0000
  C   C371      1.0  0.66038  0.99456  0.22561  1.0000
  N   N28       1.0  0.58503  0.02163  0.04403  1.0000
  C   C372      1.0  0.82719  0.16762  0.26039  1.0000
  C   C373      1.0  0.73046  0.14169  0.29598  1.0000
  C   C374      1.0  0.58070  0.03361  0.01834  1.0000
  H   H452      1.0  0.50027  0.42890  0.30226  1.0000
  H   H453      1.0  0.70929  0.08786  0.27448  1.0000
  H   H454      1.0  0.60268  0.00764  0.23889  1.0000
  H   H455      1.0  0.96170  0.31944  0.27229  1.0000
  C   C375      1.0  0.74649  0.10959  0.31696  1.0000
  H   H456      1.0  0.78596  0.17576  0.32249  1.0000
  H   H457      1.0  0.86618  0.20738  0.27572  1.0000
  C   C376      1.0  0.82720  0.19377  0.30087  1.0000
  C   C377      1.0  0.79665  0.17289  0.30485  1.0000
  H   H458      1.0  0.63288  0.03860  0.03800  1.0000
  C   C378      1.0  0.65467  0.00076  0.01970  1.0000
  H   H459      1.0  0.69641  0.00362  0.25356  1.0000
  H   H460      1.0  0.94462  0.42088  0.25132  1.0000
  C   C379      1.0  0.56599  0.02214  0.06648  1.0000
  C   C380      1.0  0.73363  0.10376  0.27010  1.0000
  C   C381      1.0  0.63378  0.99550  0.22121  1.0000
  C   C382      1.0  0.78036  0.14861  0.28671  1.0000
  H   H461      1.0  0.62383  0.06391  0.05513  1.0000
  C   C383      1.0  0.84244  0.19117  0.27866  1.0000
  C   C384      1.0  0.67402  0.02831  0.00686  1.0000
  S   S99       1.0  0.68579  0.02787  0.30219  1.0000
  H   H462      1.0  0.54598  0.04422  0.03183  1.0000
  H   H463      1.0  0.73453  0.11478  0.25059  1.0000
  H   H464      1.0  0.69060  0.04699  0.01873  1.0000
  C   C385      1.0  0.79662  0.14649  0.26428  1.0000
  H   H465      1.0  0.51983  0.48627  0.03975  1.0000
  H   H466      1.0  0.96444  0.31914  0.22227  1.0000
  H   H467      1.0  0.73674  0.15550  0.31472  1.0000
  H   H468      1.0  0.97180  0.42034  0.31917  1.0000
  C   C386      1.0  0.56009  0.04450  0.01547  1.0000
  H   H469      1.0  0.83919  0.21195  0.31526  1.0000
  H   H470      1.0  0.96707  0.37082  0.28573  1.0000
  H   H471      1.0  0.53037  0.00448  0.22053  1.0000
  H   H472      1.0  0.76067  0.09875  0.31541  1.0000
  H   H473      1.0  0.94470  0.37198  0.25861  1.0000
  C   C387      1.0  0.98282  0.33401  0.26219  1.0000
  C   C388      1.0  0.98445  0.33385  0.23378  1.0000
  H   H474      1.0  0.56995  0.01297  0.08541  1.0000
  H   H475      1.0  0.54146  0.00772  0.06203  1.0000
  C   C389      1.0  0.62321  0.00679  0.24194  1.0000
  H   H476      1.0  0.92273  0.45111  0.32094  1.0000
  H   H477      1.0  0.94170  0.42657  0.28631  1.0000
  H   H478      1.0  0.96607  0.40143  0.22237  1.0000
  H   H479      1.0  0.97303  0.45476  0.26735  1.0000
  C   C390      1.0  0.95519  0.38244  0.27817  1.0000
  H   H480      1.0  0.49108  0.46141  0.10912  1.0000
  C   C391      1.0  0.59768  0.03489  0.99516  1.0000
  H   H481      1.0  0.61371  0.02693  0.99571  1.0000
  S   S100      1.0  0.91945  0.32153  0.33004  1.0000
  H   H482      1.0  0.73234  0.47428  0.36750  1.0000
  Fe  Fe49      1.0  0.95373  0.34785  0.40266  1.0000
  S   S101      1.0  0.90454  0.33093  0.39304  1.0000
  H   H483      1.0  0.91825  0.26257  0.44519  1.0000
  Fe  Fe50      1.0  0.90659  0.29471  0.36869  1.0000
  S   S102      1.0  0.87424  0.24363  0.37324  1.0000
  Fe  Fe51      1.0  0.92144  0.35902  0.35550  1.0000
  C   C392      1.0  0.96098  0.46925  0.44009  1.0000
  S   S103      1.0  0.95545  0.31062  0.37983  1.0000
  Fe  Fe52      1.0  0.69782  0.10186  0.37580  1.0000
  S   S104      1.0  0.70913  0.06456  0.37491  1.0000
  S   S105      1.0  0.73078  0.15300  0.37544  1.0000
  Fe  Fe53      1.0  0.62944  0.05719  0.37225  1.0000
  S   S106      1.0  0.63741  0.01797  0.37010  1.0000
  S   S107      1.0  0.57872  0.03863  0.37074  1.0000
  Fe  Fe54      1.0  0.67010  0.04048  0.40420  1.0000
  H   H484      1.0  0.93317  0.31305  0.48775  1.0000
  H   H485      1.0  0.53639  0.46907  0.34216  1.0000
  S   S108      1.0  0.66086  0.07895  0.40723  1.0000
  N   N29       1.0  0.89371  0.28085  0.46568  1.0000
  H   H486      1.0  0.75400  0.12440  0.33507  1.0000
  C   C393      1.0  0.86618  0.25091  0.46796  1.0000
  H   H487      1.0  0.51919  0.43419  0.45254  1.0000
  H   H488      1.0  0.56973  0.44255  0.42619  1.0000
  H   H489      1.0  0.69433  0.05284  0.47910  1.0000
  C   C394      1.0  0.55790  0.05704  0.37703  1.0000
  C   C395      1.0  0.57012  0.08444  0.39087  1.0000
  C   C396      1.0  0.55165  0.09676  0.39741  1.0000
  C   C397      1.0  0.52112  0.08215  0.38962  1.0000
  C   C398      1.0  0.50922  0.05520  0.37518  1.0000
  C   C399      1.0  0.52743  0.04252  0.36923  1.0000
  H   H490      1.0  0.59364  0.09597  0.39677  1.0000
  C   C400      1.0  0.83258  0.20469  0.49288  1.0000
  C   C401      1.0  0.81932  0.21086  0.44772  1.0000
  C   C402      1.0  0.91497  0.44717  0.34159  1.0000
  C   C403      1.0  0.83423  0.21897  0.37411  1.0000
  C   C404      1.0  0.82281  0.18783  0.37745  1.0000
  C   C405      1.0  0.79137  0.16733  0.37830  1.0000
  C   C406      1.0  0.77078  0.17770  0.37572  1.0000
  C   C407      1.0  0.78222  0.20884  0.37255  1.0000
  C   C408      1.0  0.81365  0.22933  0.37172  1.0000
  H   H491      1.0  0.83845  0.17949  0.37939  1.0000
  H   H492      1.0  0.78313  0.14354  0.38087  1.0000
  H   H493      1.0  0.91646  0.48995  0.34555  1.0000
  S   S109      1.0  0.66099  0.00629  0.43795  1.0000
  C   C409      1.0  0.90806  0.41996  0.35416  1.0000
  C   C410      1.0  0.89769  0.41492  0.38075  1.0000
  C   C411      1.0  0.89302  0.43643  0.39426  1.0000
  C   C412      1.0  0.91138  0.46918  0.35546  1.0000
  H   H494      1.0  0.72328  0.01005  0.50675  1.0000
  Fe  Fe55      1.0  0.67473  0.04520  0.34105  1.0000
  H   H495      1.0  0.87190  0.29980  0.44173  1.0000
  H   H496      1.0  0.54066  0.48508  0.44216  1.0000
  H   H497      1.0  0.63673  0.06076  0.45991  1.0000
  C   C413      1.0  0.52553  0.43461  0.37192  1.0000
  C   C414      1.0  0.53518  0.42708  0.39551  1.0000
  C   C415      1.0  0.56231  0.44838  0.40794  1.0000
  S   S110      1.0  0.91017  0.39180  0.33534  1.0000
  C   C416      1.0  0.54352  0.46316  0.36054  1.0000
  C   C417      1.0  0.88501  0.30404  0.46064  1.0000
  C   C418      1.0  0.91303  0.29022  0.49016  1.0000
  C   C419      1.0  0.61881  0.04963  0.47541  1.0000
  C   C420      1.0  0.65875  0.00704  0.47379  1.0000
  H   H498      1.0  0.84969  0.25116  0.42738  1.0000
  S   S111      1.0  0.97002  0.37843  0.36658  1.0000
  H   H499      1.0  0.58232  0.06849  0.45684  1.0000
  H   H500      1.0  0.93392  0.30246  0.44104  1.0000
  H   H501      1.0  0.62600  0.03672  0.48834  1.0000
  H   H502      1.0  0.82744  0.19121  0.51097  1.0000
  H   H503      1.0  0.79248  0.17192  0.47211  1.0000
  H   H504      1.0  0.53809  0.03573  0.47771  1.0000
  H   H505      1.0  0.82191  0.25313  0.36914  1.0000
  H   H506      1.0  0.87084  0.30483  0.47734  1.0000
  H   H507      1.0  0.80399  0.20227  0.43068  1.0000
  H   H508      1.0  0.56106  0.11780  0.40840  1.0000
  C   C421      1.0  0.67808  0.03239  0.48913  1.0000
  H   H509      1.0  0.87323  0.23986  0.50910  1.0000
  C   C422      1.0  0.65711  0.00414  0.53110  1.0000
  H   H510      1.0  0.92184  0.27471  0.49447  1.0000
  S   S112      1.0  0.89231  0.48926  0.39900  1.0000
  H   H511      1.0  0.78251  0.48016  0.37378  1.0000
  H   H512      1.0  0.68556  0.45912  0.38594  1.0000
  H   H513      1.0  0.61888  0.06748  0.48829  1.0000
  C   C423      1.0  0.89983  0.46359  0.38167  1.0000
  H   H514      1.0  0.90523  0.32694  0.45867  1.0000
  C   C424      1.0  0.68534  0.47719  0.39817  1.0000
  H   H515      1.0  0.90072  0.29165  0.50812  1.0000
  C   C425      1.0  0.84557  0.23895  0.44609  1.0000
  H   H516      1.0  0.89197  0.39388  0.39047  1.0000
  N   N30       1.0  0.58869  0.03023  0.46314  1.0000
  H   H517      1.0  0.51427  0.45649  0.47839  1.0000
  C   C426      1.0  0.56631  0.01515  0.48493  1.0000
  H   H518      1.0  0.66230  0.47435  0.39595  1.0000
  C   C427      1.0  0.85892  0.23283  0.49151  1.0000
  C   C428      1.0  0.91241  0.28065  0.44283  1.0000
  H   H519      1.0  0.49142  0.41641  0.47828  1.0000
  C   C429      1.0  0.81283  0.19375  0.47104  1.0000
  C   C430      1.0  0.57994  0.47714  0.39675  1.0000
  H   H520      1.0  0.49413  0.00017  0.42172  1.0000
  C   C431      1.0  0.54215  0.02082  0.49006  1.0000
  H   H521      1.0  0.52203  0.40476  0.40390  1.0000
  H   H522      1.0  0.68817  0.47298  0.41967  1.0000
  H   H523      1.0  0.55971  0.03625  0.43526  1.0000
  Fe  Fe56      1.0  0.96772  0.34000  0.34258  1.0000
  H   H524      1.0  0.59893  0.05995  0.42912  1.0000
  H   H525      1.0  0.90072  0.27680  0.42315  1.0000
  S   S113      1.0  0.96982  0.36817  0.44509  1.0000
  H   H526      1.0  0.69327  0.05019  0.52922  1.0000
  C   C432      1.0  0.67745  0.03080  0.51759  1.0000
  H   H527      1.0  0.88380  0.43185  0.41444  1.0000
  C   C433      1.0  0.52459  0.48658  0.42912  1.0000
  S   S114      1.0  0.49819  0.09746  0.39911  1.0000
  H   H528      1.0  0.76661  0.21721  0.37051  1.0000
  C   C434      1.0  0.50228  0.43654  0.46497  1.0000
  C   C435      1.0  0.57063  0.48436  0.37287  1.0000
  C   C436      1.0  0.58192  0.04951  0.44553  1.0000
  S   S115      1.0  0.66490  0.08326  0.34092  1.0000
  H   H529      1.0  0.60609  0.01811  0.42839  1.0000
  C   C437      1.0  0.49323  0.46489  0.42922  1.0000
  C   C438      1.0  0.97164  0.44893  0.43804  1.0000
  H   H530      1.0  0.51794  0.02146  0.35828  1.0000
  S   S116      1.0  0.49167  0.40923  0.35536  1.0000
  H   H531      1.0  0.94445  0.46727  0.42547  1.0000
  H   H532      1.0  0.96315  0.43183  0.42236  1.0000
  C   C439      1.0  0.52268  0.00759  0.51200  1.0000
  H   H533      1.0  0.92041  0.48160  0.48529  1.0000
  C   C440      1.0  0.59013  0.00748  0.44555  1.0000
  H   H534      1.0  0.91417  0.47969  0.44960  1.0000
  H   H535      1.0  0.50452  0.01233  0.51579  1.0000
  S   S117      1.0  0.65945  0.00213  0.56685  1.0000
  C   C441      1.0  0.56928  0.99516  0.50276  1.0000
  H   H536      1.0  0.71690  0.99297  0.45939  1.0000
  C   C442      1.0  0.98902  0.36396  0.47343  1.0000
  H   H537      1.0  0.59833  0.99399  0.45631  1.0000
  H   H538      1.0  0.56764  0.99170  0.43675  1.0000
  H   H539      1.0  0.85778  0.29690  0.92492  1.0000
  S   S118      1.0  0.93243  0.35285  0.83564  1.0000
  H   H540      1.0  0.57670  0.44806  0.89131  1.0000
  H   H541      1.0  0.89520  0.26361  0.98347  1.0000
  S   S119      1.0  0.92655  0.35477  0.90171  1.0000
  H   H542      1.0  0.92261  0.23564  0.76818  1.0000
  Fe  Fe57      1.0  0.90800  0.31927  0.86894  1.0000
  S   S120      1.0  0.85719  0.28561  0.86544  1.0000
  Fe  Fe58      1.0  0.95438  0.38692  0.86881  1.0000
  S   S121      1.0  0.96854  0.43582  0.86121  1.0000
  S   S122      1.0  0.94440  0.30728  0.87345  1.0000
  Fe  Fe59      1.0  0.72090  0.10961  0.87366  1.0000
  S   S123      1.0  0.70786  0.06055  0.86981  1.0000
  S   S124      1.0  0.77187  0.14273  0.87895  1.0000
  Fe  Fe60      1.0  0.65523  0.09358  0.86619  1.0000
  S   S125      1.0  0.63813  0.04419  0.86180  1.0000
  S   S126      1.0  0.62390  0.11202  0.85838  1.0000
  Fe  Fe61      1.0  0.66860  0.05046  0.89724  1.0000
  S   S127      1.0  0.64749  0.01117  0.92743  1.0000
  Fe  Fe62      1.0  0.67835  0.05797  0.83493  1.0000
  H   H543      1.0  0.59323  0.05542  0.83093  1.0000
  S   S128      1.0  0.68314  0.09952  0.90333  1.0000
  S   S129      1.0  0.69387  0.10735  0.83718  1.0000
  C   C443      1.0  0.82587  0.18808  0.95121  1.0000
  C   C444      1.0  0.91970  0.25548  0.77156  1.0000
  H   H544      1.0  0.54389  0.02849  0.83893  1.0000
  H   H545      1.0  0.54013  0.42485  0.83731  1.0000
  H   H546      1.0  0.68713  0.05342  0.96943  1.0000
  H   H547      1.0  0.57224  0.04843  0.74702  1.0000
  H   H548      1.0  0.51783  0.38708  0.82676  1.0000
  H   H549      1.0  0.97197  0.37063  0.72374  1.0000
  C   C445      1.0  0.65098  0.00811  0.96303  1.0000
  N   N31       1.0  0.51095  0.41866  0.80327  1.0000
  C   C446      1.0  0.58660  0.09210  0.87078  1.0000
  C   C447      1.0  0.56571  0.10091  0.86309  1.0000
  C   C448      1.0  0.53586  0.08552  0.87283  1.0000
  C   C449      1.0  0.52692  0.06143  0.89057  1.0000
  C   C450      1.0  0.54763  0.05222  0.89779  1.0000
  C   C451      1.0  0.57737  0.06743  0.88788  1.0000
  H   H550      1.0  0.57274  0.11996  0.84982  1.0000
  H   H551      1.0  0.52003  0.09273  0.86713  1.0000
  H   H552      1.0  0.54072  0.03340  0.91131  1.0000
  H   H553      1.0  0.59330  0.06042  0.89385  1.0000
  C   C452      1.0  0.83408  0.24575  0.86908  1.0000
  C   C453      1.0  0.84610  0.22694  0.87415  1.0000
  C   C454      1.0  0.82673  0.19557  0.87693  1.0000
  C   C455      1.0  0.79513  0.18242  0.87441  1.0000
  C   C456      1.0  0.78317  0.20119  0.86904  1.0000
  C   C457      1.0  0.80252  0.23260  0.86650  1.0000
  H   H554      1.0  0.87024  0.23638  0.87579  1.0000
  H   H555      1.0  0.83627  0.18131  0.88105  1.0000
  H   H556      1.0  0.75898  0.19155  0.86711  1.0000
  H   H557      1.0  0.79289  0.24681  0.86249  1.0000
  C   C458      1.0  0.94816  0.45339  0.87230  1.0000
  C   C459      1.0  0.91897  0.43708  0.88297  1.0000
  C   C460      1.0  0.90296  0.45198  0.88990  1.0000
  H   H558      1.0  0.88536  0.32055  0.94895  1.0000
  H   H559      1.0  0.49545  0.43165  0.83868  1.0000
  H   H560      1.0  0.90858  0.41299  0.88547  1.0000
  H   H561      1.0  0.88025  0.43920  0.89782  1.0000
  H   H562      1.0  0.90519  0.25589  0.75504  1.0000
  H   H563      1.0  0.54167  0.06486  0.98920  1.0000
  H   H564      1.0  0.90499  0.30191  0.98164  1.0000
  C   C461      1.0  0.53130  0.44077  0.89033  1.0000
  C   C462      1.0  0.51363  0.45447  0.88819  1.0000
  C   C463      1.0  0.98709  0.36453  0.73346  1.0000
  H   H565      1.0  0.49411  0.99225  0.96485  1.0000
  C   C464      1.0  0.56291  0.45856  0.88946  1.0000
  C   C465      1.0  0.57922  0.03997  0.76454  1.0000
  H   H566      1.0  0.81322  0.25461  0.93423  1.0000
  C   C466      1.0  0.87180  0.19872  0.79861  1.0000
  C   C467      1.0  0.52529  0.04510  0.77759  1.0000
  H   H567      1.0  0.60307  0.04598  0.76035  1.0000
  C   C468      1.0  0.49501  0.03583  0.78327  1.0000
  Fe  Fe63      1.0  0.97009  0.34302  0.84210  1.0000
  C   C469      1.0  0.59469  0.04679  0.97083  1.0000
  C   C470      1.0  0.84674  0.24282  0.94867  1.0000
  C   C471      1.0  0.89657  0.27758  0.93174  1.0000
  C   C472      1.0  0.87576  0.22814  0.80035  1.0000
  H   H568      1.0  0.79608  0.15618  0.80974  1.0000
  C   C473      1.0  0.90673  0.28383  0.80171  1.0000
  S   S130      1.0  0.68169  0.03846  0.79412  1.0000
  H   H569      1.0  0.60823  0.04773  0.95352  1.0000
  H   H570      1.0  0.93008  0.30344  0.80021  1.0000
  H   H571      1.0  0.77928  0.16036  0.93969  1.0000
  C   C474      1.0  0.81778  0.23695  0.93988  1.0000
  C   C475      1.0  0.66935  0.01722  0.74188  1.0000
  H   H572      1.0  0.93034  0.23442  0.81655  1.0000
  C   C476      1.0  0.57679  0.48981  0.88554  1.0000
  C   C477      1.0  0.65094  0.99963  0.72028  1.0000
  C   C478      1.0  0.86539  0.29769  0.94611  1.0000
  H   H573      1.0  0.96475  0.46877  0.76701  1.0000
  C   C479      1.0  0.67209  0.03206  0.97883  1.0000
  H   H574      1.0  0.54987  0.41295  0.80676  1.0000
  C   C480      1.0  0.91606  0.48322  0.88641  1.0000
  C   C481      1.0  0.53034  0.45736  0.76535  1.0000
  H   H575      1.0  0.51349  0.39570  0.76768  1.0000
  H   H576      1.0  0.89079  0.19531  0.79519  1.0000
  N   N32       1.0  0.57637  0.05276  0.79060  1.0000
  C   C482      1.0  0.85004  0.21743  0.95415  1.0000
  N   N33       1.0  0.87294  0.27365  0.95130  1.0000
  H   H577      1.0  0.88778  0.27394  0.91079  1.0000
  H   H578      1.0  0.54472  0.47023  0.83275  1.0000
  C   C483      1.0  0.57470  0.05774  0.96882  1.0000
  C   C484      1.0  0.53113  0.03041  0.82251  1.0000
  C   C485      1.0  0.54420  0.04219  0.79689  1.0000
  H   H579      1.0  0.90411  0.40792  0.82611  1.0000
  H   H580      1.0  0.94883  0.27422  0.81982  1.0000
  C   C486      1.0  0.62541  0.00113  0.77013  1.0000
  H   H581      1.0  0.91582  0.25097  0.83982  1.0000
  C   C487      1.0  0.79373  0.20749  0.93721  1.0000
  H   H582      1.0  0.89778  0.28527  0.82182  1.0000
  H   H583      1.0  0.94257  0.27579  0.76927  1.0000
  C   C488      1.0  0.92613  0.25350  0.81951  1.0000
  Fe  Fe64      1.0  0.96450  0.34439  0.90485  1.0000
  H   H584      1.0  0.87309  0.47661  0.84239  1.0000
  H   H585      1.0  0.90528  0.26190  0.93535  1.0000
  H   H586      1.0  0.57982  0.01946  0.81441  1.0000
  H   H587      1.0  0.89326  0.28704  0.78583  1.0000
  H   H588      1.0  0.86874  0.47372  0.76659  1.0000
  C   C489      1.0  0.93555  0.43615  0.79597  1.0000
  C   C490      1.0  0.84336  0.17311  0.80184  1.0000
  N   N34       1.0  0.90639  0.25487  0.79832  1.0000
  C   C491      1.0  0.79777  0.18314  0.94278  1.0000
  H   H589      1.0  0.84986  0.25152  0.80669  1.0000
  H   H590      1.0  0.84091  0.15086  0.80112  1.0000
  H   H591      1.0  0.96479  0.35676  0.77222  1.0000
  C   C492      1.0  0.86710  0.47899  0.82135  1.0000
  C   C493      1.0  0.49645  0.39565  0.78171  1.0000
  H   H592      1.0  0.80118  0.20659  0.81148  1.0000
  C   C494      1.0  0.84931  0.23026  0.80465  1.0000
  H   H593      1.0  0.94635  0.42256  0.79451  1.0000
  C   C495      1.0  0.96136  0.48462  0.86920  1.0000
  C   C496      1.0  0.91152  0.42777  0.81369  1.0000
  C   C497      1.0  0.54742  0.48723  0.75665  1.0000
  H   H594      1.0  0.51862  0.44058  0.74999  1.0000
  C   C498      1.0  0.98287  0.35656  0.76101  1.0000
  C   C499      1.0  0.81801  0.17601  0.80649  1.0000
  H   H595      1.0  0.61752  0.09527  0.78534  1.0000
  H   H596      1.0  0.53885  0.46682  0.94612  1.0000
  H   H597      1.0  0.77203  0.20341  0.92980  1.0000
  H   H598      1.0  0.61550  0.05149  0.80561  1.0000
  C   C500      1.0  0.82095  0.20447  0.80751  1.0000
  C   C501      1.0  0.52884  0.44987  0.79311  1.0000
  H   H599      1.0  0.70493  0.99673  0.86296  1.0000
  C   C502      1.0  0.65682  0.01801  0.76699  1.0000
  H   H600      1.0  0.87982  0.43787  0.83103  1.0000
  H   H601      1.0  0.69360  0.03003  0.73920  1.0000
  C   C503      1.0  0.55727  0.05636  0.99099  1.0000
  H   H602      1.0  0.66107  0.99907  0.70127  1.0000
  C   C504      1.0  0.59168  0.04423  0.81130  1.0000
  S   S131      1.0  0.51462  0.40143  0.89253  1.0000
  C   C505      1.0  0.59285  0.08604  0.78870  1.0000
  C   C506      1.0  0.90778  0.47209  0.80104  1.0000
  C   C507      1.0  0.93250  0.48009  0.78327  1.0000
  H   H603      1.0  0.59051  0.09639  0.80770  1.0000
  C   C508      1.0  0.89778  0.44539  0.81637  1.0000
  H   H604      1.0  0.53396  0.05519  0.75817  1.0000
  H   H605      1.0  0.56543  0.01495  0.76458  1.0000
  C   C509      1.0  0.52745  0.48559  0.88390  1.0000
  H   H606      1.0  0.84752  0.29598  0.96006  1.0000
  C   C510      1.0  0.94599  0.46224  0.78072  1.0000
  H   H607      1.0  0.58431  0.09419  0.77204  1.0000
  C   C511      1.0  0.53058  0.41062  0.81906  1.0000
  H   H608      1.0  0.65713  0.99172  0.87292  1.0000
  H   H609      1.0  0.91645  0.30064  0.93283  1.0000
  C   C512      1.0  0.88579  0.27850  0.97889  1.0000
  H   H610      1.0  0.84889  0.45668  0.81418  1.0000
  C   C513      1.0  0.54505  0.47409  0.81135  1.0000
  S   S132      1.0  0.97810  0.33191  0.94496  1.0000
  H   H611      1.0  0.58370  0.47255  0.97016  1.0000
  H   H612      1.0  0.57288  0.06753  0.95009  1.0000
  H   H613      1.0  0.87153  0.22007  0.96027  1.0000
  H   H614      1.0  0.82899  0.16898  0.95496  1.0000
  H   H615      1.0  0.70161  0.00780  0.82978  1.0000
  H   H616      1.0  0.64930  0.99798  0.83892  1.0000
  C   C514      1.0  0.50088  0.02136  0.82799  1.0000
  H   H617      1.0  0.61543  0.00091  0.78940  1.0000
  H   H618      1.0  0.96060  0.48599  0.95972  1.0000
  H   H619      1.0  0.49150  0.01293  0.84782  1.0000
  C   C515      1.0  0.55519  0.48861  0.95434  1.0000
  H   H620      1.0  0.86835  0.27444  0.99437  1.0000
  S   S133      1.0  0.49054  0.04288  0.90498  1.0000
  H   H621      1.0  0.56546  0.53469  0.03448  1.0000
  Fe  Fe65      1.0  0.61219  0.65583  0.09880  1.0000
  S   S134      1.0  0.58053  0.67347  0.09139  1.0000
  S   S135      1.0  0.63158  0.63743  0.06678  1.0000
  Fe  Fe66      1.0  0.60968  0.66265  0.16138  1.0000
  S   S136      1.0  0.57731  0.68064  0.15764  1.0000
  S   S137      1.0  0.63521  0.66400  0.20028  1.0000
  Fe  Fe67      1.0  0.55414  0.64399  0.12621  1.0000
  S   S138      1.0  0.50396  0.61574  0.11764  1.0000
  Fe  Fe68      1.0  0.60619  0.70890  0.12308  1.0000
  S   S139      1.0  0.62716  0.75992  0.11542  1.0000
  S   S140      1.0  0.58433  0.62422  0.13214  1.0000
  S   S141      1.0  0.63997  0.69298  0.12830  1.0000
  C   C516      1.0  0.64743  0.72336  0.05861  1.0000
  Fe  Fe69      1.0  0.59290  0.90332  0.11636  1.0000
  S   S142      1.0  0.63751  0.94584  0.12445  1.0000
  S   S143      1.0  0.57883  0.85397  0.12580  1.0000
  Fe  Fe70      1.0  0.56036  0.93918  0.10508  1.0000
  C   C517      1.0  0.62971  0.65914  0.01559  1.0000
  S   S144      1.0  0.52337  0.94841  0.09146  1.0000
  Fe  Fe71      1.0  0.62572  0.96428  0.08741  1.0000
  H   H622      1.0  0.55351  0.97526  0.03453  1.0000
  Fe  Fe72      1.0  0.61010  0.96108  0.14913  1.0000
  H   H623      1.0  0.64566  0.70162  0.06449  1.0000
  S   S145      1.0  0.58303  0.92102  0.07808  1.0000
  S   S146      1.0  0.56620  0.91822  0.14234  1.0000
  H   H624      1.0  0.68098  0.67207  0.32581  1.0000
  C   C518      1.0  0.55273  0.55747  0.06354  1.0000
  C   C519      1.0  0.96627  0.66919  0.27510  1.0000
  H   H625      1.0  0.59386  0.83944  0.21528  1.0000
  H   H626      1.0  0.58143  0.98045  0.05885  1.0000
  C   C520      1.0  0.95580  0.65260  0.22863  1.0000
  H   H627      1.0  0.60528  0.68777  0.24634  1.0000
  C   C521      1.0  0.65423  0.71232  0.29918  1.0000
  H   H628      1.0  0.64558  0.89402  0.29166  1.0000
  N   N35       1.0  0.92339  0.65253  0.30921  1.0000
  C   C522      1.0  0.52179  0.50465  0.05192  1.0000
  C   C523      1.0  0.69371  0.73925  0.03438  1.0000
  H   H629      1.0  0.94230  0.57692  0.27514  1.0000
  H   H630      1.0  0.94909  0.57423  0.22574  1.0000
  C   C524      1.0  0.61306  0.78557  0.11828  1.0000
  C   C525      1.0  0.58417  0.77691  0.12820  1.0000
  C   C526      1.0  0.57422  0.79813  0.13020  1.0000
  C   C527      1.0  0.59279  0.82828  0.12219  1.0000
  C   C528      1.0  0.62171  0.83699  0.11232  1.0000
  C   C529      1.0  0.63172  0.81579  0.11044  1.0000
  H   H631      1.0  0.56949  0.75386  0.13434  1.0000
  H   H632      1.0  0.55181  0.79103  0.13788  1.0000
  H   H633      1.0  0.63636  0.86002  0.10613  1.0000
  H   H634      1.0  0.65414  0.82289  0.10280  1.0000
  H   H635      1.0  0.63564  0.93501  0.30454  1.0000
  H   H636      1.0  0.68498  0.75891  0.09843  1.0000
  C   C530      1.0  0.96361  0.59240  0.26579  1.0000
  C   C531      1.0  0.62244  0.61085  0.27950  1.0000
  C   C532      1.0  0.59810  0.60196  0.26147  1.0000
  C   C533      1.0  0.60165  0.61728  0.23687  1.0000
  C   C534      1.0  0.62964  0.64202  0.22998  1.0000
  C   C535      1.0  0.65406  0.65064  0.24785  1.0000
  C   C536      1.0  0.65061  0.63509  0.27228  1.0000
  H   H637      1.0  0.57620  0.58324  0.26670  1.0000
  H   H638      1.0  0.58261  0.61029  0.22347  1.0000
  H   H639      1.0  0.67585  0.66963  0.24278  1.0000
  H   H640      1.0  0.66970  0.64202  0.28553  1.0000
  C   C537      1.0  0.53086  0.55477  0.08190  1.0000
  C   C538      1.0  0.63783  0.64167  0.03130  1.0000
  C   C539      1.0  0.65219  0.62753  0.01862  1.0000
  H   H641      1.0  0.61778  0.66934  0.02472  1.0000
  H   H642      1.0  0.65850  0.61385  0.03050  1.0000
  C   C540      1.0  0.69479  0.75127  0.08216  1.0000
  C   C541      1.0  0.90697  0.62097  0.31874  1.0000
  C   C542      1.0  0.60534  0.92027  0.24163  1.0000
  H   H643      1.0  0.92176  0.61078  0.31740  1.0000
  C   C543      1.0  0.49561  0.56788  0.14873  1.0000
  H   H644      1.0  0.88191  0.65075  0.29663  1.0000
  C   C544      1.0  0.57030  0.87387  0.20029  1.0000
  C   C545      1.0  0.98707  0.61422  0.28154  1.0000
  C   C546      1.0  0.59825  0.66438  0.28391  1.0000
  H   H645      1.0  0.69750  0.77201  0.00394  1.0000
  C   C547      1.0  0.57758  0.98996  0.04018  1.0000
  C   C548      1.0  0.62541  0.88753  0.25223  1.0000
  H   H646      1.0  0.70249  0.79525  0.04767  1.0000
  H   H647      1.0  0.61727  0.92715  0.18682  1.0000
  H   H648      1.0  0.98361  0.68116  0.29000  1.0000
  C   C549      1.0  0.97416  0.62402  0.01296  1.0000
  H   H649      1.0  0.57337  0.57895  0.06118  1.0000
  C   C550      1.0  0.52116  0.97030  0.19097  1.0000
  H   H650      1.0  0.96392  0.65157  0.20863  1.0000
  C   C551      1.0  0.50458  0.52704  0.08558  1.0000
  H   H651      1.0  0.88636  0.60657  0.30672  1.0000
  H   H652      1.0  0.55540  0.85746  0.21572  1.0000
  C   C552      1.0  0.69861  0.71451  0.03784  1.0000
  H   H653      1.0  0.50561  0.93519  0.16124  1.0000
  C   C553      1.0  0.49797  0.97195  0.00082  1.0000
  C   C554      1.0  0.90226  0.66451  0.30919  1.0000
  H   H654      1.0  0.71312  0.68542  0.02003  1.0000
  N   N36       1.0  0.67922  0.74765  0.05600  1.0000
  C   C555      1.0  0.67917  0.77617  0.05079  1.0000
  C   C556      1.0  0.96754  0.59100  0.23770  1.0000
  H   H655      1.0  0.49583  0.94946  0.03812  1.0000
  C   C557      1.0  0.96147  0.67939  0.03024  1.0000
  C   C558      1.0  0.92498  0.63700  0.23426  1.0000
  H   H656      1.0  0.57697  0.64536  0.27750  1.0000
  S   S147      1.0  0.98309  0.61861  0.31683  1.0000
  H   H657      1.0  0.95393  0.66987  0.05016  1.0000
  H   H658      1.0  0.66926  0.78240  0.06805  1.0000
  C   C559      1.0  0.71037  0.70488  0.01710  1.0000
  H   H659      1.0  0.63497  0.71968  0.03934  1.0000
  H   H660      1.0  0.98535  0.54500  0.18226  1.0000
  S   S148      1.0  0.61580  0.59198  0.31125  1.0000
  C   C560      1.0  0.91461  0.63747  0.26028  1.0000
  H   H661      1.0  0.89053  0.62470  0.26372  1.0000
  H   H662      1.0  0.71929  0.76801  0.08058  1.0000
  H   H663      1.0  0.63524  0.72880  0.07418  1.0000
  H   H664      1.0  0.59161  0.98753  0.02445  1.0000
  H   H665      1.0  0.95356  0.61198  0.02453  1.0000
  H   H666      1.0  0.91768  0.65485  0.01367  1.0000
  H   H667      1.0  0.91351  0.68795  0.30134  1.0000
  H   H668      1.0  0.61684  0.89895  0.16516  1.0000
  H   H669      1.0  0.53442  0.57425  0.09360  1.0000
  H   H670      1.0  0.59994  0.84858  0.18027  1.0000
  C   C561      1.0  0.97633  0.66885  0.24893  1.0000
  C   C562      1.0  0.93495  0.65343  0.28159  1.0000
  C   C563      1.0  0.63359  0.97681  0.00388  1.0000
  C   C564      1.0  0.61075  0.89682  0.23337  1.0000
  H   H671      1.0  0.60990  0.95166  0.27280  1.0000
  H   H672      1.0  0.69254  0.72986  0.08964  1.0000
  H   H673      1.0  0.64597  0.91702  0.19010  1.0000
  H   H674      1.0  0.51714  0.58317  0.15793  1.0000
  C   C565      1.0  0.63905  0.68787  0.31732  1.0000
  H   H675      1.0  0.66495  0.77421  0.03309  1.0000
  H   H676      1.0  0.56546  0.89274  0.19985  1.0000
  H   H677      1.0  0.63151  0.86464  0.20230  1.0000
  H   H678      1.0  0.97237  0.50531  0.18246  1.0000
  H   H679      1.0  0.52199  0.98078  0.99811  1.0000
  C   C566      1.0  0.62840  0.92408  0.28505  1.0000
  C   C567      1.0  0.61387  0.93345  0.26714  1.0000
  C   C568      1.0  0.49915  0.50107  0.07077  1.0000
  N   N37       1.0  0.60260  0.88415  0.20580  1.0000
  C   C569      1.0  0.60724  0.85808  0.20095  1.0000
  C   C570      1.0  0.61046  0.66389  0.30898  1.0000
  H   H680      1.0  0.65451  0.73052  0.25991  1.0000
  C   C571      1.0  0.62146  0.90784  0.18615  1.0000
  H   H681      1.0  0.59522  0.92927  0.22814  1.0000
  H   H682      1.0  0.63081  0.87014  0.24772  1.0000
  H   H683      1.0  0.56314  0.86278  0.18017  1.0000
  H   H684      1.0  0.61872  0.95538  0.01325  1.0000
  H   H685      1.0  0.59752  0.64390  0.32092  1.0000
  C   C572      1.0  0.54819  0.53249  0.04855  1.0000
  C   C573      1.0  0.64202  0.71228  0.27397  1.0000
  H   H686      1.0  0.69209  0.70144  0.05619  1.0000
  C   C574      1.0  0.63406  0.90109  0.27767  1.0000
  H   H687      1.0  0.90914  0.62411  0.21843  1.0000
  H   H688      1.0  0.96058  0.69448  0.32359  1.0000
  C   C575      1.0  0.61414  0.68830  0.26632  1.0000
  H   H689      1.0  0.67599  0.73138  0.30406  1.0000
  H   H690      1.0  0.66886  0.98592  0.21002  1.0000
  H   H691      1.0  0.97791  0.53656  0.05084  1.0000
  C   C576      1.0  0.70101  0.75347  0.00873  1.0000
  C   C577      1.0  0.51307  0.98636  0.20856  1.0000
  S   S149      1.0  0.60255  0.98288  0.11316  1.0000
  C   C578      1.0  0.49913  0.94727  0.17529  1.0000
  H   H692      1.0  0.54462  0.97588  0.18930  1.0000
  S   S150      1.0  0.61214  0.98206  0.19087  1.0000
  C   C579      1.0  0.94092  0.67072  0.00890  1.0000
  C   C580      1.0  0.50771  0.76450  0.59849  1.0000
  S   S151      1.0  0.65948  0.55806  0.35263  1.0000
  Fe  Fe73      1.0  0.66376  0.61613  0.40570  1.0000
  S   S152      1.0  0.68129  0.58444  0.41447  1.0000
  S   S153      1.0  0.65731  0.64822  0.43385  1.0000
  Fe  Fe74      1.0  0.70141  0.59504  0.37260  1.0000
  S   S154      1.0  0.74361  0.59515  0.35590  1.0000
  Fe  Fe75      1.0  0.63889  0.54977  0.39376  1.0000
  H   H693      1.0  0.58490  0.51016  0.48454  1.0000
  S   S155      1.0  0.68735  0.62999  0.36504  1.0000
  S   S156      1.0  0.62026  0.58058  0.38737  1.0000
  Fe  Fe76      1.0  0.90127  0.59095  0.38927  1.0000
  S   S157      1.0  0.95114  0.62461  0.38523  1.0000
  S   S158      1.0  0.86802  0.60772  0.39884  1.0000
  Fe  Fe77      1.0  0.91325  0.53824  0.38712  1.0000
  H   H694      1.0  0.68116  0.52655  0.40124  1.0000
  Fe  Fe78      1.0  0.95950  0.59639  0.41500  1.0000
  C   C581      1.0  0.67585  0.93442  0.51719  1.0000
  Fe  Fe79      1.0  0.95120  0.59390  0.35240  1.0000
  S   S159      1.0  0.91002  0.56524  0.42141  1.0000
  S   S160      1.0  0.90068  0.56137  0.35516  1.0000
  C   C582      1.0  0.73943  0.51108  0.39436  1.0000
  C   C583      1.0  0.57200  0.56213  0.51717  1.0000
  C   C584      1.0  0.66099  0.92566  0.56536  1.0000
  H   H695      1.0  0.95689  0.61767  0.48568  1.0000
  C   C585      1.0  0.77737  0.59752  0.36891  1.0000
  C   C586      1.0  0.79315  0.58706  0.35294  1.0000
  C   C587      1.0  0.82053  0.58937  0.36187  1.0000
  C   C588      1.0  0.83287  0.60280  0.38674  1.0000
  C   C589      1.0  0.81705  0.61321  0.40270  1.0000
  C   C590      1.0  0.78935  0.61030  0.39403  1.0000
  S   S161      1.0  0.56034  0.90351  0.63830  1.0000
  H   H696      1.0  0.96349  0.66149  0.33118  1.0000
  H   H697      1.0  0.82634  0.62370  0.42194  1.0000
  H   H698      1.0  0.77774  0.61870  0.40650  1.0000
  C   C591      1.0  0.65371  0.64714  0.46978  1.0000
  C   C592      1.0  0.64219  0.66399  0.48246  1.0000
  C   C593      1.0  0.66218  0.63025  0.48594  1.0000
  H   H699      1.0  0.63561  0.67721  0.47027  1.0000
  H   H700      1.0  0.67111  0.61719  0.47664  1.0000
  H   H701      1.0  0.48992  0.89120  0.63004  1.0000
  N   N38       1.0  0.65307  0.68798  0.34347  1.0000
  Fe  Fe80      1.0  0.62381  0.66235  0.59516  1.0000
  S   S162      1.0  0.59234  0.68081  0.58892  1.0000
  S   S163      1.0  0.64713  0.64832  0.56303  1.0000
  H   H702      1.0  0.67285  0.73582  0.35046  1.0000
  H   H703      1.0  0.64708  0.90841  0.58069  1.0000
  Fe  Fe81      1.0  0.56019  0.64242  0.61528  1.0000
  S   S164      1.0  0.51065  0.61602  0.60376  1.0000
  Fe  Fe82      1.0  0.61091  0.70587  0.62812  1.0000
  S   S165      1.0  0.61996  0.75309  0.64051  1.0000
  S   S166      1.0  0.59020  0.62264  0.61939  1.0000
  S   S167      1.0  0.64510  0.68999  0.63304  1.0000
  Fe  Fe83      1.0  0.59451  0.89911  0.61251  1.0000
  S   S168      1.0  0.63441  0.94173  0.62871  1.0000
  S   S169      1.0  0.59221  0.85518  0.59807  1.0000
  Fe  Fe84      1.0  0.55696  0.93088  0.60469  1.0000
  S   S170      1.0  0.59407  0.97484  0.62044  1.0000
  S   S171      1.0  0.51783  0.93254  0.58500  1.0000
  Fe  Fe85      1.0  0.62484  0.96547  0.59475  1.0000
  H   H704      1.0  0.63512  0.71311  0.36314  1.0000
  Fe  Fe86      1.0  0.64449  0.59231  0.34729  1.0000
  S   S172      1.0  0.58742  0.92300  0.57753  1.0000
  C   C594      1.0  0.53677  0.70009  0.61487  1.0000
  H   H705      1.0  0.57842  0.57321  0.58511  1.0000
  H   H706      1.0  0.64624  0.66089  0.37897  1.0000
  N   N39       1.0  0.70919  0.50768  0.38984  1.0000
  H   H707      1.0  0.80670  0.55404  0.42770  1.0000
  H   H708      1.0  0.68461  0.93703  0.57298  1.0000
  H   H709      1.0  0.62095  0.95878  0.52576  1.0000
  C   C595      1.0  0.61269  0.78153  0.62788  1.0000
  C   C596      1.0  0.60092  0.78018  0.60213  1.0000
  C   C597      1.0  0.59516  0.80305  0.59338  1.0000
  C   C598      1.0  0.60113  0.82769  0.61011  1.0000
  C   C599      1.0  0.61321  0.82925  0.63574  1.0000
  H   H710      1.0  0.62111  0.88142  0.51274  1.0000
  N   N40       1.0  0.65839  0.91204  0.53831  1.0000
  C   C600      1.0  0.97264  0.53495  0.48461  1.0000
  C   C601      1.0  0.54969  0.98206  0.52453  1.0000
  H   H711      1.0  0.72422  0.53341  0.35330  1.0000
  N   N41       1.0  0.51996  0.70660  0.63570  1.0000
  H   H712      1.0  0.61173  0.87993  0.54728  1.0000
  C   C602      1.0  0.58088  0.58304  0.49559  1.0000
  C   C603      1.0  0.63941  0.66420  0.51083  1.0000
  C   C604      1.0  0.64864  0.64794  0.52701  1.0000
  C   C605      1.0  0.65986  0.63086  0.51430  1.0000
  H   H713      1.0  0.63090  0.67759  0.52019  1.0000
  H   H714      1.0  0.66714  0.61822  0.52652  1.0000
  N   N42       1.0  0.95937  0.51261  0.46235  1.0000
  C   C606      1.0  0.51787  0.51387  0.39258  1.0000
  C   C607      1.0  0.63818  0.98052  0.48733  1.0000
  H   H715      1.0  0.52847  0.57626  0.62896  1.0000
  H   H716      1.0  0.61798  0.84798  0.64889  1.0000
  C   C608      1.0  0.70535  0.51166  0.36078  1.0000
  H   H717      1.0  0.51170  0.97834  0.54641  1.0000
  C   C609      1.0  0.69488  0.96560  0.52279  1.0000
  H   H718      1.0  0.52747  0.69828  0.59432  1.0000
  H   H719      1.0  0.56095  0.71795  0.61442  1.0000
  H   H720      1.0  0.59648  0.76167  0.58883  1.0000
  H   H721      1.0  0.58341  0.54635  0.56644  1.0000
  H   H722      1.0  0.54715  0.59784  0.53111  1.0000
  H   H723      1.0  0.75759  0.54969  0.42225  1.0000
  C   C610      1.0  0.52187  0.78945  0.61543  1.0000
  C   C611      1.0  0.70982  0.98625  0.50212  1.0000
  C   C612      1.0  0.53542  0.76125  0.64582  1.0000
  H   H724      1.0  0.56065  0.52634  0.41071  1.0000
  H   H725      1.0  0.68394  0.51179  0.35677  1.0000
  H   H726      1.0  0.62333  0.96066  0.47574  1.0000
  H   H727      1.0  0.66598  0.87729  0.52169  1.0000
  H   H728      1.0  0.89373  0.66470  0.32987  1.0000
  H   H729      1.0  0.78418  0.57717  0.33345  1.0000
  H   H730      1.0  0.61242  0.65720  0.36498  1.0000
  H   H731      1.0  0.69783  0.97492  0.54285  1.0000
  C   C613      1.0  0.53652  0.51066  0.41105  1.0000
  H   H732      1.0  0.58158  0.60437  0.49746  1.0000
  H   H733      1.0  0.59795  0.59407  0.45494  1.0000
  C   C614      1.0  0.63690  0.97927  0.51574  1.0000
  H   H734      1.0  0.65666  0.87317  0.55675  1.0000
  H   H735      1.0  0.58413  0.50641  0.36401  1.0000
  H   H736      1.0  0.51542  0.54159  0.53485  1.0000
  C   C615      1.0  0.65711  0.71390  0.35999  1.0000
  H   H737      1.0  0.51936  0.97028  0.63082  1.0000
  H   H738      1.0  0.95454  0.51498  0.41918  1.0000
  C   C616      1.0  0.57310  0.53534  0.51226  1.0000
  H   H739      1.0  0.83222  0.58110  0.34938  1.0000
  C   C617      1.0  0.68853  0.94622  0.46931  1.0000
  C   C618      1.0  0.97142  0.49168  0.46053  1.0000
  C   C619      1.0  0.56287  0.59669  0.54590  1.0000
  H   H740      1.0  0.50003  0.52178  0.63872  1.0000
  S   S173      1.0  0.61291  0.50403  0.41344  1.0000
  S   S174      1.0  0.57624  0.66831  0.65392  1.0000
  H   H741      1.0  0.61732  0.91140  0.52744  1.0000
  H   H742      1.0  0.63168  0.63990  0.34861  1.0000
  H   H743      1.0  0.96801  0.52388  0.50465  1.0000
  H   H744      1.0  0.91635  0.51037  0.46812  1.0000
  H   H745      1.0  0.58591  0.61625  0.54272  1.0000
  Fe  Fe87      1.0  0.59985  0.94763  0.65304  1.0000
  C   C620      1.0  0.96559  0.52972  0.43690  1.0000
  C   C621      1.0  0.49049  0.57725  0.61144  1.0000
  C   C622      1.0  0.58388  0.56814  0.56475  1.0000
  H   H746      1.0  0.56703  0.51858  0.52778  1.0000
  C   C623      1.0  0.52079  0.73518  0.62917  1.0000
  C   C624      1.0  0.53177  0.54335  0.55054  1.0000
  N   N43       1.0  0.56280  0.56769  0.54398  1.0000
  H   H747      1.0  0.58578  0.80151  0.57354  1.0000
  H   H748      1.0  0.60762  0.58563  0.56010  1.0000
  C   C625      1.0  0.66915  0.89010  0.54066  1.0000
  H   H749      1.0  0.72053  0.55327  0.39911  1.0000
  H   H750      1.0  0.52381  0.54757  0.57019  1.0000
  C   C626      1.0  0.78994  0.53631  0.41498  1.0000
  C   C627      1.0  0.59199  0.55131  0.46703  1.0000
  H   H751      1.0  0.52749  0.53217  0.37819  1.0000
  C   C628      1.0  0.62584  0.89555  0.53104  1.0000
  C   C629      1.0  0.76144  0.53351  0.41159  1.0000
  C   C630      1.0  0.67377  0.92529  0.48984  1.0000
  C   C631      1.0  0.97952  0.62642  0.52433  1.0000
  C   C632      1.0  0.70409  0.52975  0.40509  1.0000
  H   H752      1.0  0.68576  0.93896  0.44845  1.0000
  C   C633      1.0  0.61890  0.80632  0.64450  1.0000
  H   H753      1.0  0.96270  0.62973  0.53466  1.0000
  H   H754      1.0  0.69363  0.90164  0.54579  1.0000
  C   C634      1.0  0.59048  0.57743  0.47089  1.0000
  H   H755      1.0  0.55555  0.60004  0.56618  1.0000
  S   S175      1.0  0.96314  0.56818  0.38183  1.0000
  H   H756      1.0  0.65304  0.94230  0.56505  1.0000
  C   C635      1.0  0.92620  0.49529  0.46660  1.0000
  H   H757      1.0  0.49628  0.71916  0.59119  1.0000
  H   H758      1.0  0.96307  0.55034  0.48518  1.0000
  H   H759      1.0  0.53021  0.52105  0.55237  1.0000
  H   H760      1.0  0.60063  0.54769  0.44821  1.0000
  C   C636      1.0  0.51228  0.96952  0.65157  1.0000
  H   H761      1.0  0.53602  0.67840  0.61878  1.0000
  H   H762      1.0  0.66022  0.90195  0.48407  1.0000
  C   C637      1.0  0.52655  0.98837  0.52925  1.0000
  H   H763      1.0  0.66659  0.71401  0.38025  1.0000
  C   C638      1.0  0.70631  0.97667  0.47542  1.0000
  H   H764      1.0  0.95691  0.54577  0.43773  1.0000
  H   H765      1.0  0.55278  0.96727  0.53816  1.0000
  H   H766      1.0  0.93810  0.66913  0.34970  1.0000
  H   H767      1.0  0.49759  0.76615  0.57987  1.0000
  H   H768      1.0  0.70573  0.52751  0.42722  1.0000
  C   C639      1.0  0.63494  0.66028  0.35960  1.0000
  Fe  Fe88      1.0  0.60892  0.65108  0.65680  1.0000
  C   C640      1.0  0.50487  0.56327  0.62366  1.0000
  H   H769      1.0  0.54748  0.80765  0.65164  1.0000
  C   C641      1.0  0.50711  0.73773  0.60519  1.0000
  C   C642      1.0  0.97610  0.61951  0.49650  1.0000
  H   H770      1.0  0.69399  0.69025  0.35802  1.0000
  C   C643      1.0  0.53555  0.78777  0.63906  1.0000
  C   C644      1.0  0.68310  0.69082  0.33877  1.0000
  H   H771      1.0  0.52309  0.81049  0.60989  1.0000
  C   C645      1.0  0.58315  0.53020  0.48760  1.0000
  H   H772      1.0  0.89936  0.61939  0.34007  1.0000
  H   H773      1.0  0.58732  0.99007  0.50043  1.0000
  C   C646      1.0  0.79750  0.51723  0.40131  1.0000
  H   H774      1.0  0.81991  0.52004  0.40362  1.0000
  C   C647      1.0  0.77643  0.49490  0.38443  1.0000
  H   H775      1.0  0.70484  0.49357  0.34805  1.0000
  C   C648      1.0  0.94753  0.67028  0.32917  1.0000
  C   C649      1.0  0.74779  0.49176  0.38099  1.0000
  H   H776      1.0  0.69924  0.71219  0.32872  1.0000
  Fe  Fe89      1.0  0.67145  0.62892  0.84464  1.0000
  S   S176      1.0  0.66011  0.58071  0.84468  1.0000
  S   S177      1.0  0.68218  0.65608  0.80548  1.0000
  Fe  Fe90      1.0  0.66774  0.63032  0.90762  1.0000
  S   S178      1.0  0.65680  0.58211  0.91115  1.0000
  S   S179      1.0  0.66493  0.65968  0.94145  1.0000
  Fe  Fe91      1.0  0.69314  0.59403  0.87937  1.0000
  S   S180      1.0  0.72462  0.57405  0.87639  1.0000
  Fe  Fe92      1.0  0.62553  0.57359  0.87619  1.0000
  S   S181      1.0  0.57499  0.54169  0.87510  1.0000
  S   S182      1.0  0.70617  0.64299  0.87807  1.0000
  S   S183      1.0  0.63486  0.62115  0.87391  1.0000
  S   S184      1.0  0.60766  0.62420  0.69447  1.0000
  Fe  Fe93      1.0  0.89698  0.60170  0.88475  1.0000
  S   S185      1.0  0.94473  0.63513  0.87178  1.0000
  S   S186      1.0  0.86643  0.62230  0.89202  1.0000
  Fe  Fe94      1.0  0.91277  0.55081  0.88682  1.0000
  C   C650      1.0  0.97268  0.62345  0.98455  1.0000
  Fe  Fe95      1.0  0.95916  0.61388  0.90418  1.0000
  H   H777      1.0  0.66994  0.92822  0.85287  1.0000
  Fe  Fe96      1.0  0.94190  0.59916  0.84359  1.0000
  S   S187      1.0  0.94938  0.59629  0.79816  1.0000
  S   S188      1.0  0.91196  0.58231  0.91827  1.0000
  S   S189      1.0  0.89321  0.56707  0.85478  1.0000
  N   N44       1.0  0.66373  0.96541  0.84229  1.0000
  C   C651      1.0  0.60841  0.91974  0.78651  1.0000
  C   C652      1.0  0.96623  0.52973  0.95254  1.0000
  H   H778      1.0  0.71386  0.62968  0.77632  1.0000
  H   H779      1.0  0.54092  0.55801  0.73706  1.0000
  H   H780      1.0  0.98405  0.49738  0.86133  1.0000
  C   C653      1.0  0.65900  0.94080  0.86083  1.0000
  H   H781      1.0  0.95615  0.52354  0.87400  1.0000
  H   H782      1.0  0.94172  0.50041  0.77140  1.0000
  H   H783      1.0  0.95133  0.58964  0.74101  1.0000
  H   H784      1.0  0.79213  0.65871  0.75712  1.0000
  C   C654      1.0  0.97654  0.61950  0.77365  1.0000
  C   C655      1.0  0.52034  0.96584  0.69886  1.0000
  C   C656      1.0  0.76398  0.58786  0.88179  1.0000
  C   C657      1.0  0.78397  0.61753  0.88972  1.0000
  C   C658      1.0  0.81512  0.62755  0.89273  1.0000
  C   C659      1.0  0.82682  0.60821  0.88780  1.0000
  C   C660      1.0  0.80686  0.57862  0.87968  1.0000
  C   C661      1.0  0.77571  0.56857  0.87674  1.0000
  H   H785      1.0  0.77547  0.63276  0.89354  1.0000
  H   H786      1.0  0.83028  0.65053  0.89891  1.0000
  H   H787      1.0  0.81537  0.56341  0.87578  1.0000
  H   H788      1.0  0.76057  0.54561  0.87046  1.0000
  C   C662      1.0  0.66056  0.64701  0.77510  1.0000
  C   C663      1.0  0.66975  0.66871  0.75453  1.0000
  C   C664      1.0  0.65373  0.66238  0.72994  1.0000
  C   C665      1.0  0.62841  0.63403  0.72540  1.0000
  C   C666      1.0  0.61934  0.61225  0.74592  1.0000
  C   C667      1.0  0.63515  0.61869  0.77062  1.0000
  H   H789      1.0  0.68936  0.69068  0.75767  1.0000
  H   H790      1.0  0.66112  0.67938  0.71443  1.0000
  H   H791      1.0  0.59991  0.59024  0.74266  1.0000
  H   H792      1.0  0.62778  0.60171  0.78614  1.0000
  H   H793      1.0  0.90715  0.53667  0.81515  1.0000
  C   C668      1.0  0.88409  0.49575  0.77636  1.0000
  H   H794      1.0  0.58287  0.96975  0.75148  1.0000
  C   C669      1.0  0.56197  0.50381  0.80247  1.0000
  H   H795      1.0  0.94266  0.64191  0.94421  1.0000
  H   H796      1.0  0.51362  0.49597  0.88149  1.0000
  C   C670      1.0  0.89817  0.64964  0.96575  1.0000
  H   H797      1.0  0.71708  0.75389  0.96834  1.0000
  H   H798      1.0  0.59595  0.61264  0.93516  1.0000
  C   C671      1.0  0.54234  0.56345  0.94097  1.0000
  C   C672      1.0  0.72827  0.59160  0.79817  1.0000
  H   H799      1.0  0.63242  0.67858  0.97639  1.0000
  C   C673      1.0  0.62671  0.92943  0.76370  1.0000
  C   C674      1.0  0.69656  0.98784  0.84233  1.0000
  C   C675      1.0  0.91646  0.52121  0.81414  1.0000
  N   N45       1.0  0.74855  0.62469  0.79672  1.0000
  H   H800      1.0  0.95133  0.71757  0.94173  1.0000
  H   H801      1.0  0.61828  0.59764  0.94793  1.0000
  C   C676      1.0  0.79969  0.64963  0.77293  1.0000
  C   C677      1.0  0.63769  0.66400  0.98804  1.0000
  C   C678      1.0  0.82335  0.62860  0.81257  1.0000
  C   C679      1.0  0.94016  0.66104  0.93706  1.0000
  H   H802      1.0  0.60543  0.92326  0.82897  1.0000
  C   C680      1.0  0.79320  0.62161  0.81394  1.0000
  C   C681      1.0  0.55900  0.50326  0.88234  1.0000
  H   H803      1.0  0.52181  0.54756  0.95247  1.0000
  H   H804      1.0  0.95113  0.61058  0.97459  1.0000
  C   C682      1.0  0.84164  0.64591  0.79143  1.0000
  H   H805      1.0  0.58456  0.90359  0.78435  1.0000
  C   C683      1.0  0.52950  0.96738  0.67220  1.0000
  H   H806      1.0  0.84425  0.66997  0.75529  1.0000
  C   C684      1.0  0.97179  0.61002  0.74654  1.0000
  H   H807      1.0  0.73188  0.58172  0.81676  1.0000
  C   C685      1.0  0.65728  0.95046  0.76623  1.0000
  H   H808      1.0  0.86505  0.65132  0.79048  1.0000
  H   H809      1.0  0.95294  0.52294  0.93416  1.0000
  H   H810      1.0  0.53168  0.50949  0.93905  1.0000
  H   H811      1.0  0.88316  0.64308  0.94771  1.0000
  C   C686      1.0  0.57108  0.58435  0.98139  1.0000
  C   C687      1.0  0.73805  0.63593  0.77396  1.0000
  H   H812      1.0  0.61546  0.96171  0.96393  1.0000
  C   C688      1.0  0.82984  0.65637  0.77165  1.0000
  C   C689      1.0  0.97048  0.50894  0.96707  1.0000
  C   C690      1.0  0.50560  0.53391  0.70812  1.0000
  H   H813      1.0  0.60116  0.50335  0.88444  1.0000
  H   H814      1.0  0.73169  0.58013  0.78057  1.0000
  H   H815      1.0  0.56859  0.60455  0.97854  1.0000
  H   H816      1.0  0.76052  0.66323  0.82204  1.0000
  C   C691      1.0  0.92886  0.69988  0.94913  1.0000
  S   S190      1.0  0.59530  0.95776  0.69778  1.0000
  C   C692      1.0  0.57299  0.54257  0.96003  1.0000
  H   H817      1.0  0.90343  0.50890  0.76257  1.0000
  C   C693      1.0  0.51815  0.53944  0.73382  1.0000
  H   H818      1.0  0.59602  0.58148  0.91863  1.0000
  H   H819      1.0  0.59283  0.59260  0.99222  1.0000
  C   C694      1.0  0.56328  0.51037  0.77515  1.0000
  H   H820      1.0  0.61597  0.56630  0.98159  1.0000
  H   H821      1.0  0.54843  0.49255  0.73540  1.0000
  H   H822      1.0  0.51874  0.54818  0.69146  1.0000
  H   H823      1.0  0.63469  0.92434  0.86404  1.0000
  H   H824      1.0  0.62189  0.52240  0.98794  1.0000
  H   H825      1.0  0.53372  0.96356  0.71466  1.0000
  C   C695      1.0  0.65949  0.63175  0.99093  1.0000
  C   C696      1.0  0.66969  0.96228  0.79150  1.0000
  C   C697      1.0  0.59831  0.54489  0.97404  1.0000
  N   N46       1.0  0.89391  0.49142  0.80331  1.0000
  C   C698      1.0  0.65287  0.65058  0.97557  1.0000
  H   H826      1.0  0.96234  0.67793  0.92855  1.0000
  H   H827      1.0  0.67141  0.62149  0.98174  1.0000
  C   C699      1.0  0.98740  0.51762  0.99090  1.0000
  H   H828      1.0  0.57661  0.53347  0.76835  1.0000
  H   H829      1.0  0.67124  0.95849  0.74830  1.0000
  H   H830      1.0  0.54132  0.55398  0.92045  1.0000
  H   H831      1.0  0.61708  0.92119  0.74389  1.0000
  C   C700      1.0  0.62061  0.93120  0.81193  1.0000
  H   H832      1.0  0.70404  0.58542  0.79866  1.0000
  H   H833      1.0  0.57417  0.52183  0.81697  1.0000
  C   C701      1.0  0.60196  0.51987  0.97779  1.0000
  H   H834      1.0  0.83261  0.62069  0.82815  1.0000
  C   C702      1.0  0.55135  0.51351  0.95040  1.0000
  H   H835      1.0  0.66857  0.94962  0.88121  1.0000
  H   H836      1.0  0.72484  0.71065  0.97576  1.0000
  H   H837      1.0  0.72162  0.63447  0.82380  1.0000
  S   S191      1.0  0.96083  0.58110  0.87464  1.0000
  S   S192      1.0  0.89470  0.50094  0.89410  1.0000
  H   H838      1.0  0.69325  0.97942  0.79169  1.0000
  C   C703      1.0  0.61963  0.98226  0.72356  1.0000
  C   C704      1.0  0.63181  0.98049  0.97583  1.0000
  C   C705      1.0  0.98199  0.70232  0.97880  1.0000
  C   C706      1.0  0.60701  0.98335  0.74858  1.0000
  H   H839      1.0  0.85734  0.49415  0.82276  1.0000
  H   H840      1.0  0.54119  0.58436  0.93782  1.0000
  C   C707      1.0  0.64762  0.98052  0.85319  1.0000
  H   H841      1.0  0.91282  0.69397  0.93193  1.0000
  H   H842      1.0  0.62326  0.96467  0.85680  1.0000
  C   C708      1.0  0.65164  0.95296  0.81522  1.0000
  H   H843      1.0  0.88786  0.65766  0.98109  1.0000
  N   N47       1.0  0.92967  0.67311  0.95918  1.0000
  H   H844      1.0  0.92358  0.51931  0.83484  1.0000
  H   H845      1.0  0.89722  0.62865  0.97302  1.0000
  C   C709      1.0  0.95066  0.68183  0.98237  1.0000
  C   C710      1.0  0.74502  0.63843  0.82178  1.0000
  H   H846      1.0  0.75080  0.66096  0.77286  1.0000
  H   H847      1.0  0.73984  0.62634  0.75436  1.0000
  C   C711      1.0  0.59620  0.59130  0.93864  1.0000
  N   N48       1.0  0.57041  0.56973  0.95531  1.0000
  C   C712      1.0  0.78038  0.63189  0.79423  1.0000
  H   H848      1.0  0.74956  0.62902  0.84020  1.0000
  H   H849      1.0  0.77999  0.60826  0.83077  1.0000
  H   H850      1.0  0.87188  0.50868  0.77771  1.0000
  H   H851      1.0  0.92401  0.65287  0.91989  1.0000
  H   H852      1.0  0.92167  0.71008  0.96531  1.0000
  H   H853      1.0  0.93707  0.53272  0.80145  1.0000
  H   H854      1.0  0.54978  0.96645  0.66750  1.0000
  H   H855      1.0  0.71022  0.97791  0.83480  1.0000
  C   C713      1.0  0.49401  0.96673  0.70506  1.0000
  C   C714      1.0  0.71700  0.71907  0.99216  1.0000
  C   C715      1.0  0.71241  0.74335  0.98801  1.0000
  H   H856      1.0  0.62818  0.80779  0.66439  1.0000
  H   H857      1.0  0.52228  0.71238  0.67891  1.0000
  C   C716      1.0  0.97917  0.55933  0.96161  1.0000
  C   C717      1.0  0.94551  0.49950  0.87635  1.0000
  H   H858      1.0  0.97613  0.57558  0.95005  1.0000
  C   C718      1.0  0.50136  0.52125  0.75526  1.0000
  H   H859      1.0  0.51128  0.52568  0.77524  1.0000
  H   H860      1.0  0.98920  0.61904  0.70571  1.0000
  H   H861      1.0  0.54768  0.76209  0.66381  1.0000
  C   C719      1.0  0.58050  0.49180  0.96783  1.0000
  H   H862      1.0  0.55266  0.56854  0.99497  1.0000
  C   C720      1.0  0.53355  0.70710  0.66229  1.0000
  H   H863      1.0  0.53146  0.68497  0.66714  1.0000
  H   H864      1.0  0.55824  0.72378  0.66268  1.0000
