data_image0
_chemical_formula_structural       FeSHS2NFeSFeSCSFeSHFeSHFeSFeS4C2H3SHFeSCS2FeS2FeHFeS2HFeC6H4C6H4C2FeHC4H3CHSC2H2C6HCH2C2HC4H2CHCHCHCHC2HCH4C2HSHCHSNC6H6FeCHC2NC9H12NC9H10NC2SH8C2HCHCHCH9SCH3CH2CH7C2H2NCHNC2HCHS2FeCSCH2CSHS4CS2FeHFeSH2FeSFeS2FeS2FeSFeS3C6H3C6H4C6H4CFeC3H2C6HSCHCHCHC2S2NC9H14CNCHC7H2CH3CH8C3H4NSHCH2C2HNHNH2C2HC3HCFeHCHFeH3NC9H15CHSH2CHCH2C2H3SH7SCHCHCHSFeCHCH2NHSHSHC3H2C2FeCHCFeHC2HC3SCH3CHCHCNH4CFeH2CH3CH2CH2CSCFeHCH2C2HC2SFeSNHSCH2CNCSH3SHCSCFeSFeS2CFeS2FeS2FeSFeS3C6H4C6H4C6H5C2H2SCH2CH4CSHC2NH2C8H3C3H5C2H3FeHFeSHCH3FeHCHCHCH5SCHSFeCH4CHCHCNC9H15C2SCNC3HCHSCH5FeH4CSCHCHCNC7HFeC2H2CHCH5CHCH4CH4CFeSH3SH8CHNCHCS2CSHCSCFeH2CSFeSH2FeHSCFeSHFeSFeSHCHSFe2H3CHCSHC2SH2CH4C6H4C8H2SC4HCH2CNH4C2FeH3CSH2C3HFeCHC2SH3CH3C2H3CSH4FeH2C2NC2HC3H3C2HC3H5CH3CHCFe2SCSCNH2CSHCHC3H3SCH5SHCH3S2HFeSHCHC2H2CSHCH2C6H6SCHC4SH2CHC2HC2H3C2HC4HCH2C2H7CSH3C2H2CHCH5C3H2SCH2C2HFeSHFeCFe2HCHNCHCNH3C2H2CSHC2HC2NC2HC2SHCSHSHSHSH2C2HCHCSCHFeS2FeS2FeSFeS5FeSH2FeS2HC2SFeHC2NHCH2C6H4C6H4C6H6CHC2HCH2C2H2CHC3HS2FeHCH2CNC9H11C2HC2HSCHC2HCH4C2H2C2HNC9H14CH5C2H3CH2C2H4CNCHCHC2SH2C2H2CH3C3H2CH2SHCHC2H3C2NCH2CN2HFeCH2FeCS2HSCHCH2SH2CNHCS2CFeS2FeS2FeSFeS3Fe2S2CSFeS2H4CHSCSHC6H4C6H4C6H4C6H5CNC9H11FeHC3H6CH5C2H2SHFeC4H7C3HNC2H4C2H5C2HNCH3C2HCH3FeCHCS3FeH2SFeHCH2FeH3C3HCH3SH2NCH3SCHFeCSHC3H2C2FeSHFeS2CFeSHSH2SH2CNHSH2FeC2H2CHC3HFeHS2HC2SHSCH3C4H2C2FeC4HCHC5H3C4HCHC3HCFeC2NCH7SHCHC3H2C2SHCH7NH5CSC3H3SC3HCH3C2H3C2HC2H7CHCNCH4CHC4HCH2CH4C2HFeHCFeS2FeSHSHS2FeSFeSCHCSHSHC6H4C6H4CH2C3HC3H2C6NH2C6H2NC9H14CH2CHC2H2CH2CH2SCH6CH2CNHFeCHC2HNHCHCH3S2HCNC2HFeCH2C2HSH2CHC3HCSC3H2C3HC2H3CH2CH5C2SCHFeSCNFeSFeS3FeS2FeS2FeSFeS3C6H4C5HCHC6H4C6H4C6H2C6H2CHSHSH5C2H5NC9H14CH2FeH2C2H2NC4H10CH9SHCHC2HC3HC2H4CH4SCH2CHCHCHCNHSH4CHCH2SH3NSH2C2H2CSCH3FeSFeS3FeS2FeS2FeSFeS3FeSFeS2C6H4C6H4CFeHCSC6H4CH2SCH2CH2C2HC7H3CH2CH2FeCHCHSH2C4NHSH2CH3CH2NH2NC9H12CHCH2CFeH3C4H3CHFeHCSC2HCNC7H7CH2CHNH2CHCHC3H2CHFeC2H2CHC3H3SCH2CHC2H4CHCH3CSCHCSHSCHFeSHFeS2FeSFeS3CH2SCFeS2FeSFeS3CHC2H3C4H2C6H4C6H4C6HCH3FeCH5NHSHFeH3CHCSHNH2CHCH2CFe2CHNC9H11CHCHNC2FeC3H2N2C2H2CHC2HCH6C2H5CFeNC2SHCHCSHC2HCH2CH4SHC3H3CSHC2SC3HCH4SHCHCSH2CH4C4HCHFeCHFeC2H2CH2SH3FeS2Fe2S3FeCFe2SH2S2H2SFeSHS2CFeSC3H3CNC4H8C3HC5H2C6HFe2C2H2CNCH4CH4CH4CH2SCHCNHCH2SNH2CH2C3HSCHCHC2HCH5CHC2HCFeCH2CHC3H2C4HCNHCSH3C3FeHCHSCH2C3H2C3H2C2NC4HC3SH3CH2C2H8CH2C3HCSCH2CHC2HCH5SCH5C2HCHCH2NHSH2CNHC2SCH5SFe2S2FeS2FeSFeS3FeS6FeHSH2FeHSHSC7H4C6H4C6H7FeC2HFeHCH2FeH3CSCNC9H14CHCHCHC2H2SC3HSHCH2C3H3NC9H12SHC2HC2FeH2SC2HC2NHSNCHC2HCSH3CHCHC3H2CSH4C3SH7CH3SH3C2HCFeH3CH2CHC2HC2H2CHSCHNFeHCNFeHCS2FeS2FeS2FeSFeS3CSCH4FeS2FeCFeHS2C4HSC2HC2HC2H2C9H4C6H4C6H4C6H7NC9H12CH2CSH6CH3CNCNCNC2H8CHFeHCH4SH2CHNC9H8CHC3SC2H4C2H7CHC2HCHFeHNHFeSCH2SCSH6CSHCSH5CH3C3HC2SC2HC5H4CHFeSHCHNH3CHC3H6FeCH3CH4C2HCNC2SCH3CFeH3SC2HCS
_chemical_formula_sum              "Fe176 S352 H1584 N88 C1320"
_cell_length_a       43.7226
_cell_length_b       88.0052
_cell_length_c       41.9078
_cell_angle_alpha    87.1867
_cell_angle_beta     89.1255
_cell_angle_gamma    85.3509

_space_group_name_H-M_alt    "P 1"
_space_group_IT_number       1

loop_
  _space_group_symop_operation_xyz
  'x, y, z'

loop_
  _atom_site_type_symbol
  _atom_site_label
  _atom_site_symmetry_multiplicity
  _atom_site_fract_x
  _atom_site_fract_y
  _atom_site_fract_z
  _atom_site_occupancy
  Fe  Fe1       1.0  0.48252  0.12201  0.16334  1.0000
  S   S1        1.0  0.43331  0.13131  0.16186  1.0000
  H   H1        1.0  0.13323  0.98941  0.38236  1.0000
  S   S2        1.0  0.50632  0.22150  0.50857  1.0000
  S   S3        1.0  0.43693  0.12772  0.08406  1.0000
  N   N1        1.0  0.23043  0.98285  0.18613  1.0000
  Fe  Fe2       1.0  0.44797  0.14518  0.11857  1.0000
  S   S4        1.0  0.43236  0.17015  0.11192  1.0000
  Fe  Fe3       1.0  0.42734  0.11297  0.12760  1.0000
  S   S5        1.0  0.39250  0.09555  0.13461  1.0000
  C   C1        1.0  0.49089  0.19882  0.04491  1.0000
  S   S6        1.0  0.47571  0.10271  0.13181  1.0000
  Fe  Fe4       1.0  0.46584  0.14066  0.38238  1.0000
  S   S7        1.0  0.41734  0.14367  0.40068  1.0000
  H   H2        1.0  0.05054  0.99535  0.39635  1.0000
  Fe  Fe5       1.0  0.48914  0.12621  0.44615  1.0000
  S   S8        1.0  0.44235  0.12888  0.46905  1.0000
  H   H3        1.0  0.41304  0.15350  0.03478  1.0000
  Fe  Fe6       1.0  0.42633  0.12021  0.42352  1.0000
  S   S9        1.0  0.39764  0.10011  0.42232  1.0000
  Fe  Fe7       1.0  0.43838  0.15214  0.44436  1.0000
  S   S10       1.0  0.41642  0.17374  0.46513  1.0000
  S   S11       1.0  0.47320  0.11633  0.40147  1.0000
  S   S12       1.0  0.48657  0.15036  0.42510  1.0000
  S   S13       1.0  0.18388  0.05953  0.44928  1.0000
  C   C2        1.0  0.46311  0.22584  0.35459  1.0000
  C   C3        1.0  0.24705  0.03057  0.18686  1.0000
  H   H4        1.0  0.02937  0.06544  0.20247  1.0000
  H   H5        1.0  0.25176  0.12062  0.42063  1.0000
  H   H6        1.0  0.51626  0.19393  0.36208  1.0000
  S   S14       1.0  0.20768  0.07609  0.03919  1.0000
  H   H7        1.0  0.08083  0.00831  0.35355  1.0000
  Fe  Fe8       1.0  0.22272  0.05108  0.04654  1.0000
  S   S15       1.0  0.20595  0.03266  0.08080  1.0000
  C   C4        1.0  0.45044  0.19702  0.08493  1.0000
  S   S16       1.0  0.27334  0.05410  0.04078  1.0000
  S   S17       1.0  0.03384  0.00761  0.30673  1.0000
  Fe  Fe9       1.0  0.14808  0.00775  0.30810  1.0000
  S   S18       1.0  0.16764  0.00582  0.25839  1.0000
  S   S19       1.0  0.17987  0.00716  0.35054  1.0000
  Fe  Fe10      1.0  0.08213  0.00588  0.28576  1.0000
  H   H8        1.0  0.51663  0.19015  0.49383  1.0000
  Fe  Fe11      1.0  0.12771  0.02201  0.24324  1.0000
  S   S20       1.0  0.13104  0.04283  0.21000  1.0000
  S   S21       1.0  0.11066  0.02553  0.29343  1.0000
  H   H9        1.0  0.39011  0.12313  0.21914  1.0000
  Fe  Fe12      1.0  0.25785  0.07879  0.02944  1.0000
  C   C5        1.0  0.18399  0.03604  0.11582  1.0000
  C   C6        1.0  0.17393  0.02346  0.13376  1.0000
  C   C7        1.0  0.15810  0.02542  0.16287  1.0000
  C   C8        1.0  0.15154  0.04007  0.17388  1.0000
  C   C9        1.0  0.16091  0.05272  0.15562  1.0000
  C   C10       1.0  0.17735  0.05071  0.12675  1.0000
  H   H10       1.0  0.17874  0.01212  0.12518  1.0000
  H   H11       1.0  0.15076  0.01563  0.17664  1.0000
  H   H12       1.0  0.15582  0.06409  0.16400  1.0000
  H   H13       1.0  0.18501  0.06047  0.11309  1.0000
  C   C11       1.0  0.18438  0.04529  0.42093  1.0000
  C   C12       1.0  0.16404  0.04724  0.39515  1.0000
  C   C13       1.0  0.16293  0.03585  0.37286  1.0000
  C   C14       1.0  0.18199  0.02233  0.37641  1.0000
  C   C15       1.0  0.20281  0.02055  0.40179  1.0000
  C   C16       1.0  0.20413  0.03201  0.42390  1.0000
  H   H14       1.0  0.14883  0.05754  0.39261  1.0000
  H   H15       1.0  0.14720  0.03750  0.35311  1.0000
  H   H16       1.0  0.21770  0.01015  0.40464  1.0000
  H   H17       1.0  0.21992  0.03039  0.44364  1.0000
  C   C17       1.0  0.49588  0.12544  0.24388  1.0000
  C   C18       1.0  0.47448  0.23074  0.41855  1.0000
  Fe  Fe13      1.0  0.13520  0.98760  0.25364  1.0000
  H   H18       1.0  0.24033  0.00291  0.13505  1.0000
  C   C19       1.0  0.36745  0.09924  0.45037  1.0000
  C   C20       1.0  0.35760  0.11182  0.46804  1.0000
  C   C21       1.0  0.24278  0.02238  0.21565  1.0000
  C   C22       1.0  0.49444  0.12657  0.30200  1.0000
  H   H19       1.0  0.30777  0.08202  0.38389  1.0000
  H   H20       1.0  0.34845  0.09859  0.37237  1.0000
  H   H21       1.0  0.36869  0.12235  0.46470  1.0000
  C   C23       1.0  0.49580  0.18288  0.04644  1.0000
  H   H22       1.0  0.03487  0.04817  0.25142  1.0000
  S   S22       1.0  0.09644  0.00368  0.23446  1.0000
  C   C24       1.0  0.45549  0.18105  0.08655  1.0000
  C   C25       1.0  0.47846  0.17401  0.06749  1.0000
  H   H23       1.0  0.48236  0.16171  0.06852  1.0000
  H   H24       1.0  0.44058  0.17755  0.37650  1.0000
  C   C26       1.0  0.36194  0.09676  0.10753  1.0000
  C   C27       1.0  0.35469  0.11008  0.08869  1.0000
  C   C28       1.0  0.32930  0.11102  0.06831  1.0000
  C   C29       1.0  0.31142  0.09857  0.06627  1.0000
  C   C30       1.0  0.31905  0.08515  0.08465  1.0000
  C   C31       1.0  0.34412  0.08430  0.10544  1.0000
  H   H25       1.0  0.36820  0.11977  0.09031  1.0000
  C   C32       1.0  0.14471  0.02476  0.47408  1.0000
  H   H26       1.0  0.30528  0.07554  0.08335  1.0000
  H   H27       1.0  0.34964  0.07397  0.11998  1.0000
  C   C33       1.0  0.42987  0.20185  0.48372  1.0000
  C   C34       1.0  0.47362  0.08101  0.47011  1.0000
  H   H28       1.0  0.51443  0.10742  0.27643  1.0000
  C   C35       1.0  0.44237  0.18942  0.38414  1.0000
  C   C36       1.0  0.47305  0.14801  0.26892  1.0000
  C   C37       1.0  0.48055  0.14001  0.24127  1.0000
  C   C38       1.0  0.11270  0.01050  0.42681  1.0000
  H   H29       1.0  0.46555  0.08897  0.05748  1.0000
  H   H30       1.0  0.07641  0.02909  0.18667  1.0000
  C   C39       1.0  0.23817  0.00682  0.21590  1.0000
  H   H31       1.0  0.44647  0.18835  0.41025  1.0000
  C   C40       1.0  0.10211  0.02503  0.43782  1.0000
  H   H32       1.0  0.08029  0.02468  0.37680  1.0000
  C   C41       1.0  0.24691  0.02324  0.15821  1.0000
  H   H33       1.0  0.47677  0.20661  0.42646  1.0000
  C   C42       1.0  0.15568  0.01048  0.46399  1.0000
  H   H34       1.0  0.09634  0.98331  0.37419  1.0000
  C   C43       1.0  0.45980  0.07864  0.04659  1.0000
  C   C44       1.0  0.42741  0.08082  0.50145  1.0000
  H   H35       1.0  0.48181  0.17121  0.47726  1.0000
  C   C45       1.0  0.47274  0.18274  0.48143  1.0000
  H   H36       1.0  0.04122  0.02777  0.24744  1.0000
  H   H37       1.0  0.36676  0.98295  0.49570  1.0000
  H   H38       1.0  0.24248  0.02818  0.23790  1.0000
  H   H39       1.0  0.46424  0.09221  0.45927  1.0000
  C   C46       1.0  0.50264  0.11871  0.27429  1.0000
  C   C47       1.0  0.24178  0.00777  0.15813  1.0000
  H   H40       1.0  0.32501  0.12069  0.50305  1.0000
  S   S23       1.0  0.47109  0.15203  0.33326  1.0000
  H   H41       1.0  0.46107  0.18379  0.32503  1.0000
  C   C48       1.0  0.46138  0.19588  0.33171  1.0000
  H   H42       1.0  0.46186  0.15943  0.26669  1.0000
  S   S24       1.0  0.11835  0.98819  0.30440  1.0000
  N   N2        1.0  0.46702  0.19698  0.36638  1.0000
  C   C49       1.0  0.06397  0.00099  0.41417  1.0000
  C   C50       1.0  0.49683  0.18829  0.37373  1.0000
  C   C51       1.0  0.48075  0.07115  0.02591  1.0000
  C   C52       1.0  0.46770  0.21290  0.37628  1.0000
  C   C53       1.0  0.20030  0.98207  0.17080  1.0000
  C   C54       1.0  0.48081  0.20831  0.49750  1.0000
  H   H43       1.0  0.46452  0.21821  0.06360  1.0000
  H   H44       1.0  0.46211  0.13938  0.02005  1.0000
  H   H45       1.0  0.15068  0.99264  0.43307  1.0000
  H   H46       1.0  0.31782  0.07409  0.48030  1.0000
  H   H47       1.0  0.11027  0.04340  0.46819  1.0000
  H   H48       1.0  0.47977  0.20079  0.31680  1.0000
  Fe  Fe14      1.0  0.48604  0.11886  0.09105  1.0000
  C   C55       1.0  0.09305  0.01350  0.37287  1.0000
  H   H49       1.0  0.18185  0.98887  0.18375  1.0000
  C   C56       1.0  0.11806  0.03206  0.46093  1.0000
  C   C57       1.0  0.44142  0.18689  0.47777  1.0000
  N   N3        1.0  0.40461  0.09987  0.23515  1.0000
  C   C58       1.0  0.38245  0.11140  0.21923  1.0000
  C   C59       1.0  0.43521  0.10095  0.21994  1.0000
  C   C60       1.0  0.39456  0.08456  0.22899  1.0000
  C   C61       1.0  0.40656  0.10288  0.26950  1.0000
  C   C62       1.0  0.40165  0.09168  0.29433  1.0000
  C   C63       1.0  0.41419  0.11737  0.27900  1.0000
  C   C64       1.0  0.40402  0.09496  0.32653  1.0000
  C   C65       1.0  0.41602  0.12057  0.31121  1.0000
  C   C66       1.0  0.41109  0.10938  0.33489  1.0000
  H   H50       1.0  0.37934  0.10907  0.19364  1.0000
  H   H51       1.0  0.44319  0.11256  0.22100  1.0000
  H   H52       1.0  0.43515  0.09829  0.19421  1.0000
  H   H53       1.0  0.45299  0.09297  0.23200  1.0000
  H   H54       1.0  0.37149  0.08298  0.23961  1.0000
  H   H55       1.0  0.39275  0.08292  0.20284  1.0000
  H   H56       1.0  0.41132  0.07527  0.23829  1.0000
  H   H57       1.0  0.39630  0.08027  0.28952  1.0000
  H   H58       1.0  0.41932  0.12631  0.26156  1.0000
  H   H59       1.0  0.36063  0.07586  0.44135  1.0000
  H   H60       1.0  0.42190  0.13172  0.31788  1.0000
  H   H61       1.0  0.41316  0.11186  0.35979  1.0000
  N   N4        1.0  0.25005  0.08986  0.41261  1.0000
  C   C67       1.0  0.22247  0.09494  0.39359  1.0000
  C   C68       1.0  0.25780  0.07341  0.40719  1.0000
  C   C69       1.0  0.24216  0.09115  0.44698  1.0000
  C   C70       1.0  0.27527  0.09960  0.40382  1.0000
  C   C71       1.0  0.30322  0.09385  0.38932  1.0000
  C   C72       1.0  0.27239  0.11539  0.40993  1.0000
  C   C73       1.0  0.32688  0.10330  0.38229  1.0000
  C   C74       1.0  0.29637  0.12468  0.40312  1.0000
  C   C75       1.0  0.32363  0.11862  0.38949  1.0000
  H   H62       1.0  0.22751  0.09442  0.36753  1.0000
  H   H63       1.0  0.20324  0.08761  0.39936  1.0000
  H   H64       1.0  0.21374  0.10685  0.39829  1.0000
  H   H65       1.0  0.26192  0.07135  0.38145  1.0000
  H   H66       1.0  0.23879  0.06632  0.41498  1.0000
  H   H67       1.0  0.27832  0.06884  0.42108  1.0000
  H   H68       1.0  0.23274  0.10276  0.45298  1.0000
  H   H69       1.0  0.22439  0.08337  0.45486  1.0000
  H   H70       1.0  0.26273  0.08826  0.46197  1.0000
  H   H71       1.0  0.04459  0.01737  0.19252  1.0000
  N   N5        1.0  0.09541  0.00336  0.40217  1.0000
  C   C76       1.0  0.35293  0.08566  0.45482  1.0000
  C   C77       1.0  0.32850  0.08467  0.47672  1.0000
  S   S25       1.0  0.49793  0.13732  0.12270  1.0000
  H   H72       1.0  0.47526  0.14529  0.21793  1.0000
  H   H73       1.0  0.15748  0.03045  0.49133  1.0000
  H   H74       1.0  0.02604  0.99840  0.24141  1.0000
  H   H75       1.0  0.41962  0.19585  0.38051  1.0000
  H   H76       1.0  0.49994  0.12134  0.32532  1.0000
  H   H77       1.0  0.45859  0.22483  0.32955  1.0000
  H   H78       1.0  0.35950  0.11154  0.23110  1.0000
  H   H79       1.0  0.07082  0.04004  0.23721  1.0000
  C   C78       1.0  0.05106  0.02892  0.18432  1.0000
  C   C79       1.0  0.46834  0.20591  0.06442  1.0000
  H   H80       1.0  0.43273  0.20251  0.09971  1.0000
  C   C80       1.0  0.43147  0.07295  0.05326  1.0000
  H   H81       1.0  0.23476  0.00124  0.23905  1.0000
  C   C81       1.0  0.48008  0.14135  0.29933  1.0000
  H   H82       1.0  0.40178  0.05538  0.04430  1.0000
  C   C82       1.0  0.47328  0.21585  0.40860  1.0000
  H   H83       1.0  0.05057  0.01192  0.41905  1.0000
  H   H84       1.0  0.41760  0.07264  0.48572  1.0000
  H   H85       1.0  0.32344  0.12144  0.05421  1.0000
  H   H86       1.0  0.34258  0.12570  0.38510  1.0000
  H   H87       1.0  0.38082  0.02678  0.02555  1.0000
  H   H88       1.0  0.04653  0.03035  0.15831  1.0000
  H   H89       1.0  0.51289  0.17742  0.03103  1.0000
  H   H90       1.0  0.03679  0.05783  0.16385  1.0000
  H   H91       1.0  0.24997  0.04269  0.18664  1.0000
  S   S26       1.0  0.26647  0.05643  0.48821  1.0000
  C   C83       1.0  0.04212  0.05607  0.18967  1.0000
  H   H92       1.0  0.06717  0.05745  0.19182  1.0000
  H   H93       1.0  0.50126  0.18702  0.39982  1.0000
  H   H94       1.0  0.49762  0.17645  0.36522  1.0000
  C   C84       1.0  0.10983  0.98833  0.39281  1.0000
  H   H95       1.0  0.08169  0.03121  0.42822  1.0000
  H   H96       1.0  0.29404  0.13658  0.40899  1.0000
  C   C85       1.0  0.23723  0.99905  0.18699  1.0000
  H   H97       1.0  0.43867  0.20159  0.32471  1.0000
  H   H98       1.0  0.17701  0.00510  0.47359  1.0000
  H   H99       1.0  0.40070  0.08627  0.34525  1.0000
  H   H100      1.0  0.41528  0.07882  0.06931  1.0000
  H   H101      1.0  0.44061  0.22412  0.49779  1.0000
  H   H102      1.0  0.24961  0.02972  0.13574  1.0000
  H   H103      1.0  0.49897  0.08144  0.46941  1.0000
  C   C86       1.0  0.14018  0.00343  0.44055  1.0000
  C   C87       1.0  0.42829  0.15859  0.01739  1.0000
  H   H104      1.0  0.11622  0.01579  0.36354  1.0000
  H   H105      1.0  0.50229  0.07617  0.02140  1.0000
  N   N6        1.0  0.46140  0.07826  0.50298  1.0000
  C   C88       1.0  0.44951  0.21254  0.49369  1.0000
  H   H106      1.0  0.46757  0.07200  0.45412  1.0000
  N   N7        1.0  0.03422  0.04093  0.20292  1.0000
  C   C89       1.0  0.33287  0.11088  0.48970  1.0000
  C   C90       1.0  0.04560  0.03914  0.23623  1.0000
  H   H107      1.0  0.06468  0.99373  0.43670  1.0000
  C   C91       1.0  0.49239  0.19345  0.49105  1.0000
  H   H108      1.0  0.40575  0.20521  0.48023  1.0000
  S   S27       1.0  0.27916  0.10035  0.04132  1.0000
  S   S28       1.0  0.50724  0.11549  0.20957  1.0000
  Fe  Fe15      1.0  0.21518  0.05697  0.49234  1.0000
  C   C92       1.0  0.31817  0.09732  0.49400  1.0000
  S   S29       1.0  0.51207  0.11170  0.04679  1.0000
  C   C93       1.0  0.42396  0.05974  0.03922  1.0000
  H   H109      1.0  0.42002  0.09247  0.49132  1.0000
  H   H110      1.0  0.20024  0.98657  0.14555  1.0000
  C   C94       1.0  0.44477  0.05209  0.01862  1.0000
  S   S30       1.0  0.51296  0.20949  0.01790  1.0000
  H   H111      1.0  0.09859  0.08334  0.62214  1.0000
  S   S31       1.0  0.21642  0.04646  0.99490  1.0000
  S   S32       1.0  0.50086  0.00477  0.62879  1.0000
  S   S33       1.0  0.46115  0.01441  0.90209  1.0000
  S   S34       1.0  0.42738  0.00998  0.98953  1.0000
  C   C95       1.0  0.35010  0.21314  0.61815  1.0000
  S   S35       1.0  0.26667  0.05869  0.56692  1.0000
  S   S36       1.0  0.21554  0.03925  0.53286  1.0000
  Fe  Fe16      1.0  0.51126  0.00838  0.91047  1.0000
  H   H112      1.0  0.46504  0.03765  0.96311  1.0000
  Fe  Fe17      1.0  0.21538  0.05901  0.56515  1.0000
  S   S37       1.0  0.18797  0.05941  0.61156  1.0000
  H   H113      1.0  0.06047  0.11920  0.68997  1.0000
  H   H114      1.0  0.33656  0.21824  0.59847  1.0000
  Fe  Fe18      1.0  0.20587  0.07165  0.98685  1.0000
  S   S38       1.0  0.16637  0.08114  0.95528  1.0000
  Fe  Fe19      1.0  0.12907  0.12598  0.71945  1.0000
  S   S39       1.0  0.08632  0.14039  0.73238  1.0000
  S   S40       1.0  0.14121  0.12304  0.66732  1.0000
  Fe  Fe20      1.0  0.14899  0.12116  0.78874  1.0000
  S   S41       1.0  0.10785  0.13506  0.80750  1.0000
  S   S42       1.0  0.18981  0.11101  0.81702  1.0000
  Fe  Fe21      1.0  0.08145  0.12278  0.77220  1.0000
  S   S43       1.0  0.03747  0.11215  0.78656  1.0000
  Fe  Fe22      1.0  0.11631  0.15146  0.76605  1.0000
  S   S44       1.0  0.11329  0.17722  0.76681  1.0000
  S   S45       1.0  0.12225  0.10744  0.75689  1.0000
  S   S46       1.0  0.15933  0.13852  0.74984  1.0000
  C   C96       1.0  0.14713  0.18536  0.77741  1.0000
  C   C97       1.0  0.15243  0.20017  0.76578  1.0000
  C   C98       1.0  0.17854  0.20714  0.77515  1.0000
  C   C99       1.0  0.19901  0.19950  0.79701  1.0000
  C   C100      1.0  0.19381  0.18465  0.80840  1.0000
  C   C101      1.0  0.16819  0.17752  0.79835  1.0000
  H   H115      1.0  0.13646  0.20617  0.74918  1.0000
  H   H116      1.0  0.20961  0.17866  0.82519  1.0000
  H   H117      1.0  0.16430  0.16611  0.80742  1.0000
  C   C102      1.0  0.18274  0.10317  0.85566  1.0000
  C   C103      1.0  0.15294  0.10097  0.86652  1.0000
  C   C104      1.0  0.14815  0.09438  0.89729  1.0000
  C   C105      1.0  0.17308  0.08992  0.91727  1.0000
  C   C106      1.0  0.20277  0.09240  0.90654  1.0000
  C   C107      1.0  0.20760  0.09891  0.87580  1.0000
  H   H118      1.0  0.13361  0.10423  0.85115  1.0000
  H   H119      1.0  0.12507  0.09261  0.90551  1.0000
  H   H120      1.0  0.22208  0.08913  0.92172  1.0000
  H   H121      1.0  0.23068  0.10068  0.86758  1.0000
  C   C108      1.0  0.17561  0.07718  0.62702  1.0000
  C   C109      1.0  0.16588  0.07778  0.65905  1.0000
  C   C110      1.0  0.15522  0.09174  0.67179  1.0000
  C   C111      1.0  0.15454  0.10522  0.65259  1.0000
  C   C112      1.0  0.16411  0.10460  0.62057  1.0000
  C   C113      1.0  0.17462  0.09064  0.60781  1.0000
  H   H122      1.0  0.16637  0.06737  0.67394  1.0000
  H   H123      1.0  0.14745  0.09201  0.69636  1.0000
  H   H124      1.0  0.16358  0.11498  0.60556  1.0000
  H   H125      1.0  0.18196  0.09030  0.58310  1.0000
  C   C114      1.0  0.39039  0.01774  0.97926  1.0000
  Fe  Fe23      1.0  0.26254  0.07478  0.52376  1.0000
  C   C115      1.0  0.33079  0.02990  0.96363  1.0000
  C   C116      1.0  0.34921  0.02216  0.94099  1.0000
  C   C117      1.0  0.37902  0.01614  0.94872  1.0000
  H   H126      1.0  0.34037  0.02074  0.91745  1.0000
  H   H127      1.0  0.39301  0.01007  0.93120  1.0000
  C   C118      1.0  0.38684  0.02226  0.59144  1.0000
  C   C119      1.0  0.36757  0.03541  0.58409  1.0000
  C   C120      1.0  0.34116  0.03458  0.56583  1.0000
  C   C121      1.0  0.33360  0.02055  0.55521  1.0000
  C   C122      1.0  0.35324  0.00741  0.56205  1.0000
  C   C123      1.0  0.37986  0.00826  0.58008  1.0000
  H   H128      1.0  0.37301  0.04628  0.59256  1.0000
  S   S47       1.0  0.51319  0.98699  0.88323  1.0000
  C   C124      1.0  0.50441  0.05832  0.51677  1.0000
  H   H129      1.0  0.39456  0.99804  0.58581  1.0000
  C   C125      1.0  0.43669  0.04267  0.70289  1.0000
  H   H130      1.0  0.48511  0.17649  0.95770  1.0000
  C   C126      1.0  0.06742  0.10676  0.69158  1.0000
  H   H131      1.0  0.48578  0.02473  0.68844  1.0000
  C   C127      1.0  0.48644  0.03556  0.97730  1.0000
  C   C128      1.0  0.49516  0.03366  0.54155  1.0000
  S   S48       1.0  0.41932  0.02355  0.61513  1.0000
  S   S49       1.0  0.25474  0.07600  0.97667  1.0000
  N   N8        1.0  0.21984  0.04242  0.89037  1.0000
  C   C129      1.0  0.24678  0.03495  0.87360  1.0000
  C   C130      1.0  0.22984  0.05633  0.90432  1.0000
  C   C131      1.0  0.21087  0.03170  0.91664  1.0000
  C   C132      1.0  0.19327  0.04680  0.86943  1.0000
  C   C133      1.0  0.16621  0.05441  0.88208  1.0000
  C   C134      1.0  0.19377  0.04437  0.83611  1.0000
  C   C135      1.0  0.14152  0.05957  0.86255  1.0000
  C   C136      1.0  0.16885  0.04954  0.81678  1.0000
  C   C137      1.0  0.14289  0.05722  0.82994  1.0000
  H   H132      1.0  0.25580  0.04269  0.85454  1.0000
  H   H133      1.0  0.26620  0.03182  0.89032  1.0000
  H   H134      1.0  0.24115  0.02415  0.86316  1.0000
  H   H135      1.0  0.23359  0.06534  0.88541  1.0000
  H   H136      1.0  0.25162  0.05407  0.91753  1.0000
  H   H137      1.0  0.21286  0.06113  0.92186  1.0000
  H   H138      1.0  0.20265  0.02119  0.90714  1.0000
  H   H139      1.0  0.23055  0.02817  0.93279  1.0000
  H   H140      1.0  0.19230  0.03682  0.93209  1.0000
  H   H141      1.0  0.16422  0.05681  0.90715  1.0000
  H   H142      1.0  0.21328  0.03868  0.82431  1.0000
  H   H143      1.0  0.12147  0.06570  0.87276  1.0000
  H   H144      1.0  0.16980  0.04777  0.79136  1.0000
  H   H145      1.0  0.12384  0.06147  0.81485  1.0000
  C   C138      1.0  0.34233  0.03170  0.99405  1.0000
  N   N9        1.0  0.43082  0.19562  0.96657  1.0000
  C   C139      1.0  0.06621  0.10769  0.63441  1.0000
  H   H146      1.0  0.40562  0.22430  0.54410  1.0000
  C   C140      1.0  0.20961  0.13202  0.94005  1.0000
  C   C141      1.0  0.17992  0.12801  0.93193  1.0000
  C   C142      1.0  0.22306  0.14295  0.91932  1.0000
  C   C143      1.0  0.16517  0.13431  0.90438  1.0000
  C   C144      1.0  0.20807  0.14918  0.89185  1.0000
  C   C145      1.0  0.17928  0.14477  0.88427  1.0000
  C   C146      1.0  0.42196  0.20670  0.99131  1.0000
  H   H147      1.0  0.31294  0.21797  0.65161  1.0000
  H   H148      1.0  0.47349  0.00727  0.70590  1.0000
  C   C147      1.0  0.46525  0.01859  0.69511  1.0000
  H   H149      1.0  0.47637  0.20321  0.96098  1.0000
  H   H150      1.0  0.20498  0.10390  0.97246  1.0000
  H   H151      1.0  0.40234  0.20343  0.00651  1.0000
  C   C148      1.0  0.35253  0.20683  0.67493  1.0000
  H   H152      1.0  0.49785  0.08935  0.52436  1.0000
  H   H153      1.0  0.16781  0.11974  0.94597  1.0000
  H   H154      1.0  0.24548  0.14661  0.92398  1.0000
  H   H155      1.0  0.14290  0.13078  0.89818  1.0000
  H   H156      1.0  0.21892  0.15735  0.87609  1.0000
  H   H157      1.0  0.16797  0.14936  0.86261  1.0000
  H   H158      1.0  0.06722  0.05039  0.71419  1.0000
  H   H159      1.0  0.34748  0.99654  0.55391  1.0000
  C   C149      1.0  0.47244  0.06279  0.51566  1.0000
  C   C150      1.0  0.20968  0.11365  0.98698  1.0000
  C   C151      1.0  0.39704  0.20111  0.64118  1.0000
  H   H160      1.0  0.44799  0.02967  0.55082  1.0000
  H   H161      1.0  0.44236  0.20764  0.59501  1.0000
  H   H162      1.0  0.42127  0.01925  0.77884  1.0000
  H   H163      1.0  0.25210  0.10873  0.93943  1.0000
  N   N10       1.0  0.39501  0.20749  0.58114  1.0000
  S   S50       1.0  0.29972  0.01912  0.53365  1.0000
  H   H164      1.0  0.11877  0.05699  0.62747  1.0000
  C   C152      1.0  0.41500  0.01921  0.71846  1.0000
  H   H165      1.0  0.09154  0.10840  0.63334  1.0000
  H   H166      1.0  0.46450  0.10161  0.51523  1.0000
  C   C153      1.0  0.45773  0.02486  0.80727  1.0000
  C   C154      1.0  0.10222  0.06140  0.64504  1.0000
  H   H167      1.0  0.09021  0.22007  0.81552  1.0000
  N   N11       1.0  0.44389  0.02705  0.71704  1.0000
  H   H168      1.0  0.05884  0.10249  0.61241  1.0000
  N   N12       1.0  0.05670  0.09901  0.66373  1.0000
  H   H169      1.0  0.44820  0.21378  0.93667  1.0000
  H   H170      1.0  0.39675  0.02554  0.73244  1.0000
  C   C155      1.0  0.06934  0.08286  0.66542  1.0000
  C   C156      1.0  0.06144  0.07294  0.69148  1.0000
  H   H171      1.0  0.34181  0.20707  0.69845  1.0000
  C   C157      1.0  0.07349  0.05772  0.69399  1.0000
  C   C158      1.0  0.45948  0.98622  0.79770  1.0000
  C   C159      1.0  0.09386  0.05197  0.67081  1.0000
  H   H172      1.0  0.05818  0.10218  0.71470  1.0000
  C   C160      1.0  0.50197  0.03428  0.78041  1.0000
  Fe  Fe24      1.0  0.26578  0.05111  0.98868  1.0000
  H   H173      1.0  0.27192  0.12530  0.94633  1.0000
  C   C161      1.0  0.23344  0.13707  0.99006  1.0000
  H   H174      1.0  0.41484  0.21823  0.98046  1.0000
  Fe  Fe25      1.0  0.45208  0.00249  0.61544  1.0000
  H   H175      1.0  0.41644  0.07992  0.52553  1.0000
  H   H176      1.0  0.44148  0.20798  0.00723  1.0000
  H   H177      1.0  0.10353  0.04023  0.67296  1.0000
  N   N13       1.0  0.23468  0.11216  0.70765  1.0000
  C   C162      1.0  0.26268  0.10720  0.72618  1.0000
  C   C163      1.0  0.22958  0.12902  0.70908  1.0000
  C   C164      1.0  0.20809  0.10549  0.72375  1.0000
  C   C165      1.0  0.23836  0.10687  0.67464  1.0000
  C   C166      1.0  0.24373  0.09105  0.66927  1.0000
  C   C167      1.0  0.23770  0.11706  0.64715  1.0000
  C   C168      1.0  0.24873  0.08581  0.63849  1.0000
  C   C169      1.0  0.24297  0.11168  0.61650  1.0000
  C   C170      1.0  0.24864  0.09612  0.61220  1.0000
  H   H178      1.0  0.26645  0.09457  0.72901  1.0000
  H   H179      1.0  0.28344  0.11150  0.71425  1.0000
  H   H180      1.0  0.26119  0.11148  0.75083  1.0000
  H   H181      1.0  0.24923  0.13488  0.69852  1.0000
  H   H182      1.0  0.22680  0.13263  0.73417  1.0000
  H   H183      1.0  0.20816  0.13347  0.69642  1.0000
  H   H184      1.0  0.21000  0.09283  0.72454  1.0000
  H   H185      1.0  0.20533  0.10891  0.74896  1.0000
  H   H186      1.0  0.18647  0.10947  0.71133  1.0000
  H   H187      1.0  0.24394  0.08256  0.68878  1.0000
  H   H188      1.0  0.23294  0.12923  0.64854  1.0000
  H   H189      1.0  0.25208  0.07366  0.63484  1.0000
  H   H190      1.0  0.24232  0.11958  0.59579  1.0000
  H   H191      1.0  0.25237  0.09204  0.58833  1.0000
  H   H192      1.0  0.03990  0.16808  0.77126  1.0000
  C   C171      1.0  0.37736  0.19851  0.55990  1.0000
  H   H193      1.0  0.45403  0.01660  0.67222  1.0000
  S   S51       1.0  0.28665  0.09658  0.52061  1.0000
  H   H194      1.0  0.37062  0.22894  0.56503  1.0000
  H   H195      1.0  0.14187  0.22062  0.82550  1.0000
  C   C172      1.0  0.09030  0.07663  0.64226  1.0000
  H   H196      1.0  0.04618  0.07698  0.71036  1.0000
  C   C173      1.0  0.38096  0.20721  0.61355  1.0000
  H   H197      1.0  0.42066  0.19651  0.64026  1.0000
  H   H198      1.0  0.09287  0.10545  0.69294  1.0000
  C   C174      1.0  0.07987  0.22970  0.82803  1.0000
  C   C175      1.0  0.44019  0.18037  0.98160  1.0000
  H   H199      1.0  0.43739  0.20143  0.55576  1.0000
  H   H200      1.0  0.40541  0.01822  0.69416  1.0000
  H   H201      1.0  0.48241  0.02703  0.99713  1.0000
  S   S52       1.0  0.21106  0.07669  0.52484  1.0000
  H   H202      1.0  0.42580  0.04241  0.67899  1.0000
  H   H203      1.0  0.46165  0.19516  0.92572  1.0000
  H   H204      1.0  0.45765  0.04893  0.69920  1.0000
  H   H205      1.0  0.37607  0.18661  0.56989  1.0000
  H   H206      1.0  0.41897  0.00738  0.72908  1.0000
  H   H207      1.0  0.42069  0.04948  0.71858  1.0000
  H   H208      1.0  0.18261  0.21849  0.76585  1.0000
  S   S53       1.0  0.23046  0.20834  0.81183  1.0000
  C   C176      1.0  0.46837  0.17197  0.97396  1.0000
  H   H209      1.0  0.36730  0.22896  0.88684  1.0000
  C   C177      1.0  0.37208  0.02555  0.00189  1.0000
  H   H210      1.0  0.42975  0.18883  0.58891  1.0000
  C   C178      1.0  0.46369  0.03769  0.54103  1.0000
  H   H211      1.0  0.42768  0.05432  0.52886  1.0000
  S   S54       1.0  0.29337  0.03701  0.95319  1.0000
  Fe  Fe26      1.0  0.45466  0.00081  0.94787  1.0000
  C   C179      1.0  0.47592  0.15733  0.98760  1.0000
  H   H212      1.0  0.48032  0.06378  0.94863  1.0000
  C   C180      1.0  0.51549  0.04395  0.52945  1.0000
  H   H213      1.0  0.46403  0.08802  0.54883  1.0000
  H   H214      1.0  0.39556  0.19649  0.69224  1.0000
  N   N14       1.0  0.22666  0.12507  0.96815  1.0000
  H   H215      1.0  0.39673  0.20572  0.93354  1.0000
  S   S55       1.0  0.50480  0.99602  0.95776  1.0000
  H   H216      1.0  0.35347  0.20358  0.55633  1.0000
  S   S56       1.0  0.46441  0.98938  0.57206  1.0000
  H   H217      1.0  0.51835  0.05469  0.94389  1.0000
  C   C181      1.0  0.48780  0.03346  0.75089  1.0000
  C   C182      1.0  0.48700  0.02994  0.80856  1.0000
  C   C183      1.0  0.45231  0.05200  0.52830  1.0000
  H   H218      1.0  0.38807  0.19776  0.53569  1.0000
  H   H219      1.0  0.11840  0.23052  0.77530  1.0000
  C   C184      1.0  0.44350  0.02377  0.77788  1.0000
  C   C185      1.0  0.33621  0.21293  0.64841  1.0000
  Fe  Fe27      1.0  0.46235  0.99204  0.87834  1.0000
  C   C186      1.0  0.42750  0.20104  0.58041  1.0000
  H   H220      1.0  0.49744  0.15110  0.98150  1.0000
  C   C187      1.0  0.02263  0.09986  0.66453  1.0000
  Fe  Fe28      1.0  0.26689  0.04035  0.53152  1.0000
  H   H221      1.0  0.32671  0.04482  0.55995  1.0000
  C   C188      1.0  0.40400  0.19449  0.94586  1.0000
  C   C189      1.0  0.45829  0.02794  0.74863  1.0000
  H   H222      1.0  0.44629  0.02128  0.82921  1.0000
  C   C190      1.0  0.44569  0.98219  0.76964  1.0000
  C   C191      1.0  0.45545  0.20211  0.94663  1.0000
  C   C192      1.0  0.38287  0.20096  0.67135  1.0000
  S   S57       1.0  0.43728  0.98810  0.83297  1.0000
  C   C193      1.0  0.39429  0.22347  0.56797  1.0000
  H   H223      1.0  0.05610  0.11974  0.63365  1.0000
  H   H224      1.0  0.50396  0.03004  0.96112  1.0000
  H   H225      1.0  0.24838  0.14547  0.97876  1.0000
  C   C194      1.0  0.50211  0.06028  0.96139  1.0000
  H   H226      1.0  0.18756  0.11877  0.99662  1.0000
  C   C195      1.0  0.25608  0.11725  0.95734  1.0000
  H   H227      1.0  0.21191  0.14345  0.99815  1.0000
  C   C196      1.0  0.47237  0.08978  0.52381  1.0000
  N   N15       1.0  0.49657  0.04989  0.98946  1.0000
  H   H228      1.0  0.40935  0.18608  0.92717  1.0000
  H   H229      1.0  0.40625  0.23067  0.58407  1.0000
  H   H230      1.0  0.50387  0.02256  0.55147  1.0000
  H   H231      1.0  0.26880  0.11108  0.97754  1.0000
  C   C197      1.0  0.05061  0.22846  0.84142  1.0000
  Fe  Fe29      1.0  0.51314  0.98997  0.58795  1.0000
  H   H232      1.0  0.50155  0.99188  0.81842  1.0000
  H   H233      1.0  0.03910  0.21813  0.83898  1.0000
  C   C198      1.0  0.49079  0.98839  0.79734  1.0000
  H   H234      1.0  0.38374  0.19086  0.95973  1.0000
  H   H235      1.0  0.02248  0.12909  0.72647  1.0000
  H   H236      1.0  0.50031  0.03705  0.72980  1.0000
  C   C199      1.0  0.50834  0.98626  0.76940  1.0000
  H   H237      1.0  0.51228  0.07082  0.96817  1.0000
  H   H238      1.0  0.49819  0.03036  0.83143  1.0000
  C   C200      1.0  0.42031  0.17314  0.00359  1.0000
  H   H239      1.0  0.22300  0.10867  0.00797  1.0000
  H   H240      1.0  0.43731  0.04191  0.00870  1.0000
  C   C201      1.0  0.45596  0.15067  0.00929  1.0000
  S   S58       1.0  0.44664  0.98182  0.64778  1.0000
  C   C202      1.0  0.49465  0.98225  0.74136  1.0000
  Fe  Fe30      1.0  0.49657  0.98286  0.65781  1.0000
  H   H241      1.0  0.39840  0.17866  0.01045  1.0000
  C   C203      1.0  0.47399  0.05757  0.01138  1.0000
  H   H242      1.0  0.32827  0.03764  0.01163  1.0000
  H   H243      1.0  0.24572  0.13205  0.01178  1.0000
  C   C204      1.0  0.45372  0.30648  0.09381  1.0000
  C   C205      1.0  0.12122  0.34691  0.47638  1.0000
  H   H244      1.0  0.16761  0.35626  0.36831  1.0000
  C   C206      1.0  0.30861  0.30989  0.19642  1.0000
  C   C207      1.0  0.18123  0.37531  0.39341  1.0000
  S   S59       1.0  0.44908  0.28195  0.05748  1.0000
  Fe  Fe31      1.0  0.46251  0.28546  0.27396  1.0000
  S   S60       1.0  0.45539  0.31068  0.26674  1.0000
  N   N16       1.0  0.45569  0.42316  0.26361  1.0000
  H   H245      1.0  0.47106  0.25467  0.40442  1.0000
  S   S61       1.0  0.07177  0.31513  0.45111  1.0000
  C   C208      1.0  0.19783  0.40213  0.24523  1.0000
  H   H246      1.0  0.32926  0.32907  0.17413  1.0000
  H   H247      1.0  0.04886  0.31840  0.28642  1.0000
  C   C209      1.0  0.51804  0.29422  0.01902  1.0000
  N   N17       1.0  0.11351  0.36288  0.46427  1.0000
  C   C210      1.0  0.23600  0.41554  0.21552  1.0000
  S   S62       1.0  0.07172  0.32471  0.12522  1.0000
  H   H248      1.0  0.18448  0.39187  0.24741  1.0000
  H   H249      1.0  0.40321  0.29627  0.13220  1.0000
  H   H250      1.0  0.49976  0.42049  0.31268  1.0000
  S   S63       1.0  0.38710  0.45329  0.31259  1.0000
  H   H251      1.0  0.50411  0.28527  0.15993  1.0000
  C   C211      1.0  0.47010  0.24314  0.39668  1.0000
  S   S64       1.0  0.36789  0.46060  0.23710  1.0000
  C   C212      1.0  0.22097  0.43048  0.21254  1.0000
  Fe  Fe32      1.0  0.35668  0.44380  0.27691  1.0000
  S   S65       1.0  0.35920  0.41855  0.26707  1.0000
  Fe  Fe33      1.0  0.02953  0.32724  0.47358  1.0000
  S   S66       1.0  0.50004  0.28218  0.23648  1.0000
  S   S67       1.0  0.31460  0.45785  0.29196  1.0000
  C   C213      1.0  0.43685  0.43696  0.25158  1.0000
  Fe  Fe34      1.0  0.24565  0.32576  0.27820  1.0000
  S   S68       1.0  0.22854  0.33785  0.32237  1.0000
  S   S69       1.0  0.27865  0.30411  0.28290  1.0000
  Fe  Fe35      1.0  0.20366  0.34641  0.23359  1.0000
  S   S70       1.0  0.18580  0.35994  0.27439  1.0000
  S   S71       1.0  0.18175  0.35619  0.18725  1.0000
  Fe  Fe36      1.0  0.23403  0.35909  0.29138  1.0000
  S   S72       1.0  0.24581  0.38133  0.31132  1.0000
  Fe  Fe37      1.0  0.18127  0.33773  0.30160  1.0000
  S   S73       1.0  0.13197  0.33874  0.32047  1.0000
  S   S74       1.0  0.25315  0.34722  0.24822  1.0000
  S   S75       1.0  0.19740  0.32400  0.25973  1.0000
  C   C214      1.0  0.32802  0.40806  0.27997  1.0000
  C   C215      1.0  0.30434  0.41460  0.29885  1.0000
  C   C216      1.0  0.27949  0.40620  0.30837  1.0000
  C   C217      1.0  0.27797  0.39119  0.29906  1.0000
  C   C218      1.0  0.30168  0.38456  0.28022  1.0000
  C   C219      1.0  0.32668  0.39298  0.27078  1.0000
  H   H252      1.0  0.30522  0.42610  0.30641  1.0000
  H   H253      1.0  0.26136  0.41139  0.32307  1.0000
  H   H254      1.0  0.30084  0.37295  0.27310  1.0000
  H   H255      1.0  0.34495  0.38781  0.25624  1.0000
  C   C220      1.0  0.10157  0.33405  0.14232  1.0000
  C   C221      1.0  0.10479  0.34967  0.13715  1.0000
  C   C222      1.0  0.12940  0.35635  0.15105  1.0000
  C   C223      1.0  0.15056  0.34757  0.17079  1.0000
  C   C224      1.0  0.14701  0.33201  0.17630  1.0000
  C   C225      1.0  0.12289  0.32528  0.16184  1.0000
  H   H256      1.0  0.08867  0.35653  0.12203  1.0000
  H   H257      1.0  0.13206  0.36837  0.14642  1.0000
  H   H258      1.0  0.16337  0.32505  0.19097  1.0000
  H   H259      1.0  0.12086  0.31316  0.16556  1.0000
  C   C226      1.0  0.11601  0.33178  0.35683  1.0000
  C   C227      1.0  0.08577  0.33704  0.36486  1.0000
  C   C228      1.0  0.07188  0.33193  0.39347  1.0000
  C   C229      1.0  0.08808  0.32145  0.41436  1.0000
  C   C230      1.0  0.11820  0.31604  0.40619  1.0000
  C   C231      1.0  0.13223  0.32124  0.37761  1.0000
  H   H260      1.0  0.07313  0.34529  0.34905  1.0000
  H   H261      1.0  0.04868  0.33613  0.39940  1.0000
  H   H262      1.0  0.13085  0.30785  0.42216  1.0000
  H   H263      1.0  0.15546  0.31704  0.37163  1.0000
  H   H264      1.0  0.51017  0.28566  0.03708  1.0000
  C   C232      1.0  0.17652  0.38386  0.42044  1.0000
  C   C233      1.0  0.08297  0.36384  0.44910  1.0000
  H   H265      1.0  0.18596  0.39169  0.18681  1.0000
  H   H266      1.0  0.49665  0.33626  0.41035  1.0000
  S   S76       1.0  0.41752  0.27411  0.27940  1.0000
  C   C234      1.0  0.49007  0.31481  0.39001  1.0000
  H   H267      1.0  0.18068  0.41195  0.18660  1.0000
  H   H268      1.0  0.45603  0.40842  0.30646  1.0000
  C   C235      1.0  0.49437  0.32422  0.41524  1.0000
  H   H269      1.0  0.29404  0.28903  0.21790  1.0000
  H   H270      1.0  0.22284  0.37730  0.21719  1.0000
  H   H271      1.0  0.25055  0.38557  0.23992  1.0000
  H   H272      1.0  0.43900  0.31243  0.07593  1.0000
  C   C236      1.0  0.48087  0.46470  0.30198  1.0000
  S   S77       1.0  0.48845  0.32357  0.35057  1.0000
  H   H273      1.0  0.46068  0.46151  0.31507  1.0000
  C   C237      1.0  0.49606  0.31827  0.44690  1.0000
  C   C238      1.0  0.46133  0.31408  0.12089  1.0000
  N   N18       1.0  0.21793  0.40197  0.21642  1.0000
  H   H274      1.0  0.48917  0.43258  0.21124  1.0000
  H   H275      1.0  0.34217  0.27427  0.20844  1.0000
  C   C239      1.0  0.49266  0.30281  0.45440  1.0000
  C   C240      1.0  0.05297  0.31102  0.20572  1.0000
  C   C241      1.0  0.31815  0.29710  0.28207  1.0000
  C   C242      1.0  0.32492  0.28142  0.28853  1.0000
  C   C243      1.0  0.35522  0.27480  0.28742  1.0000
  C   C244      1.0  0.37972  0.28366  0.27984  1.0000
  C   C245      1.0  0.37323  0.29946  0.27330  1.0000
  C   C246      1.0  0.34256  0.30617  0.27448  1.0000
  H   H276      1.0  0.30642  0.27425  0.29425  1.0000
  H   H277      1.0  0.35960  0.26265  0.29248  1.0000
  H   H278      1.0  0.33772  0.31826  0.26901  1.0000
  C   C247      1.0  0.46434  0.29123  0.08986  1.0000
  C   C248      1.0  0.48294  0.28362  0.11373  1.0000
  C   C249      1.0  0.11079  0.37262  0.49233  1.0000
  H   H279      1.0  0.41931  0.41758  0.29671  1.0000
  H   H280      1.0  0.30943  0.42652  0.22083  1.0000
  H   H281      1.0  0.45562  0.41296  0.21773  1.0000
  H   H282      1.0  0.28196  0.40371  0.22162  1.0000
  H   H283      1.0  0.14458  0.34550  0.48684  1.0000
  C   C250      1.0  0.23744  0.44348  0.21226  1.0000
  C   C251      1.0  0.44435  0.41926  0.29639  1.0000
  H   H284      1.0  0.44157  0.44018  0.22616  1.0000
  H   H285      1.0  0.48312  0.29171  0.37827  1.0000
  H   H286      1.0  0.42559  0.40772  0.24441  1.0000
  Fe  Fe38      1.0  0.49323  0.30754  0.22996  1.0000
  H   H287      1.0  0.22559  0.45479  0.21004  1.0000
  Fe  Fe39      1.0  0.49164  0.31099  0.30427  1.0000
  S   S78       1.0  0.48750  0.31719  0.17874  1.0000
  H   H288      1.0  0.44315  0.28565  0.18972  1.0000
  C   C252      1.0  0.31257  0.29443  0.20547  1.0000
  H   H289      1.0  0.28706  0.31634  0.20166  1.0000
  H   H290      1.0  0.38026  0.26181  0.17881  1.0000
  H   H291      1.0  0.09316  0.30533  0.25740  1.0000
  Fe  Fe40      1.0  0.34537  0.46880  0.32487  1.0000
  H   H292      1.0  0.39159  0.30654  0.26702  1.0000
  C   C253      1.0  0.47906  0.30653  0.14525  1.0000
  H   H293      1.0  0.21165  0.40225  0.26736  1.0000
  C   C254      1.0  0.48662  0.29921  0.39722  1.0000
  H   H294      1.0  0.39386  0.26758  0.21671  1.0000
  C   C255      1.0  0.45017  0.41035  0.24330  1.0000
  H   H295      1.0  0.44090  0.44695  0.26568  1.0000
  H   H296      1.0  0.49086  0.27176  0.11136  1.0000
  H   H297      1.0  0.15212  0.38719  0.46390  1.0000
  H   H298      1.0  0.25309  0.38636  0.19668  1.0000
  H   H299      1.0  0.21275  0.40294  0.16540  1.0000
  S   S79       1.0  0.44131  0.47923  0.25678  1.0000
  C   C256      1.0  0.28468  0.42758  0.21819  1.0000
  H   H300      1.0  0.50120  0.30436  0.01980  1.0000
  S   S80       1.0  0.49765  0.28585  0.31259  1.0000
  Fe  Fe41      1.0  0.46724  0.26510  0.02021  1.0000
  C   C257      1.0  0.48771  0.29325  0.42937  1.0000
  H   H301      1.0  0.37825  0.31477  0.16304  1.0000
  H   H302      1.0  0.38199  0.27974  0.13050  1.0000
  H   H303      1.0  0.45288  0.32589  0.12321  1.0000
  H   H304      1.0  0.42266  0.27775  0.13682  1.0000
  C   C258      1.0  0.13686  0.36738  0.44037  1.0000
  H   H305      1.0  0.41626  0.29287  0.21912  1.0000
  C   C259      1.0  0.23712  0.38723  0.21755  1.0000
  H   H306      1.0  0.19820  0.37828  0.37543  1.0000
  C   C260      1.0  0.02273  0.33427  0.21848  1.0000
  N   N19       1.0  0.39416  0.30765  0.36948  1.0000
  C   C261      1.0  0.36195  0.30830  0.35838  1.0000
  C   C262      1.0  0.39905  0.32268  0.38243  1.0000
  C   C263      1.0  0.41503  0.30563  0.34159  1.0000
  C   C264      1.0  0.40006  0.29461  0.39287  1.0000
  C   C265      1.0  0.41030  0.29634  0.42446  1.0000
  C   C266      1.0  0.39578  0.27952  0.38418  1.0000
  C   C267      1.0  0.41532  0.28376  0.44599  1.0000
  C   C268      1.0  0.40086  0.26703  0.40592  1.0000
  C   C269      1.0  0.41049  0.26915  0.43680  1.0000
  H   H307      1.0  0.35634  0.31828  0.34150  1.0000
  H   H308      1.0  0.35714  0.29809  0.34525  1.0000
  H   H309      1.0  0.34545  0.30913  0.37884  1.0000
  H   H310      1.0  0.38366  0.32513  0.40327  1.0000
  H   H311      1.0  0.39427  0.33222  0.36426  1.0000
  H   H312      1.0  0.42336  0.32327  0.38966  1.0000
  H   H313      1.0  0.41157  0.29512  0.32912  1.0000
  H   H314      1.0  0.41179  0.31535  0.32362  1.0000
  H   H315      1.0  0.43939  0.30473  0.34899  1.0000
  H   H316      1.0  0.41498  0.30726  0.43316  1.0000
  H   H317      1.0  0.38842  0.27729  0.36042  1.0000
  H   H318      1.0  0.42321  0.28540  0.46994  1.0000
  H   H319      1.0  0.39717  0.25564  0.39877  1.0000
  H   H320      1.0  0.41424  0.25947  0.45368  1.0000
  H   H321      1.0  0.19631  0.43221  0.21079  1.0000
  C   C270      1.0  0.48863  0.42601  0.26219  1.0000
  C   C271      1.0  0.04982  0.32443  0.22349  1.0000
  S   S81       1.0  0.02631  0.34420  0.04578  1.0000
  C   C272      1.0  0.50799  0.42405  0.28932  1.0000
  N   N20       1.0  0.07311  0.32824  0.24652  1.0000
  C   C273      1.0  0.08483  0.34316  0.23679  1.0000
  C   C274      1.0  0.05883  0.32925  0.27877  1.0000
  C   C275      1.0  0.10001  0.31679  0.24914  1.0000
  H   H322      1.0  0.04046  0.33869  0.27992  1.0000
  C   C276      1.0  0.15465  0.38005  0.44367  1.0000
  H   H323      1.0  0.46437  0.39979  0.25110  1.0000
  S   S82       1.0  0.49640  0.29647  0.49536  1.0000
  C   C277      1.0  0.14230  0.35897  0.41253  1.0000
  H   H324      1.0  0.42035  0.26248  0.18551  1.0000
  H   H325      1.0  0.06693  0.35280  0.23796  1.0000
  H   H326      1.0  0.10392  0.34591  0.25239  1.0000
  H   H327      1.0  0.09383  0.34314  0.21180  1.0000
  H   H328      1.0  0.48504  0.28129  0.43464  1.0000
  Fe  Fe42      1.0  0.39541  0.47120  0.27398  1.0000
  H   H329      1.0  0.07595  0.33146  0.29697  1.0000
  H   H330      1.0  0.11262  0.31583  0.22600  1.0000
  H   H331      1.0  0.11702  0.32001  0.26669  1.0000
  H   H332      1.0  0.07601  0.37568  0.43993  1.0000
  C   C278      1.0  0.02928  0.40541  0.03119  1.0000
  S   S83       1.0  0.32718  0.47057  0.37560  1.0000
  C   C279      1.0  0.49002  0.29122  0.14155  1.0000
  H   H333      1.0  0.12963  0.34926  0.40838  1.0000
  C   C280      1.0  0.50232  0.43094  0.23292  1.0000
  H   H334      1.0  0.42289  0.30381  0.18283  1.0000
  C   C281      1.0  0.33247  0.31703  0.18116  1.0000
  N   N21       1.0  0.39544  0.28458  0.17795  1.0000
  C   C282      1.0  0.40102  0.28460  0.14294  1.0000
  C   C283      1.0  0.42041  0.29207  0.19300  1.0000
  C   C284      1.0  0.39738  0.26841  0.19030  1.0000
  C   C285      1.0  0.36550  0.29303  0.18453  1.0000
  C   C286      1.0  0.36047  0.30875  0.17510  1.0000
  C   C287      1.0  0.34058  0.28608  0.19992  1.0000
  C   C288      1.0  0.26848  0.41449  0.21851  1.0000
  H   H335      1.0  0.44737  0.42861  0.31280  1.0000
  Fe  Fe43      1.0  0.02984  0.33252  0.09484  1.0000
  C   C289      1.0  0.50416  0.47735  0.25635  1.0000
  C   C290      1.0  0.26923  0.44203  0.21511  1.0000
  H   H336      1.0  0.28192  0.45214  0.21517  1.0000
  H   H337      1.0  0.01908  0.34483  0.23060  1.0000
  C   C291      1.0  0.19851  0.40223  0.18760  1.0000
  H   H338      1.0  0.06495  0.36039  0.46636  1.0000
  C   C292      1.0  0.51030  0.46070  0.31456  1.0000
  H   H339      1.0  0.18098  0.41227  0.24511  1.0000
  H   H340      1.0  0.41195  0.43526  0.25311  1.0000
  H   H341      1.0  0.47882  0.23261  0.44344  1.0000
  H   H342      1.0  0.29596  0.47641  0.43462  1.0000
  H   H343      1.0  0.10337  0.38470  0.48519  1.0000
  C   C293      1.0  0.16407  0.36290  0.38944  1.0000
  H   H344      1.0  0.51261  0.45427  0.33717  1.0000
  C   C294      1.0  0.46432  0.24070  0.36480  1.0000
  H   H345      1.0  0.07315  0.30311  0.20690  1.0000
  H   H346      1.0  0.18996  0.39353  0.42335  1.0000
  H   H347      1.0  0.46075  0.25039  0.34780  1.0000
  H   H348      1.0  0.02411  0.38298  0.05311  1.0000
  C   C295      1.0  0.47771  0.47315  0.27290  1.0000
  H   H349      1.0  0.10455  0.34323  0.49502  1.0000
  H   H350      1.0  0.08227  0.35621  0.42888  1.0000
  H   H351      1.0  0.49984  0.32580  0.46587  1.0000
  H   H352      1.0  0.12059  0.33857  0.45738  1.0000
  C   C296      1.0  0.03024  0.30771  0.18455  1.0000
  Fe  Fe44      1.0  0.32809  0.47549  0.25505  1.0000
  S   S84       1.0  0.02623  0.38154  0.50239  1.0000
  H   H353      1.0  0.05372  0.40488  0.03531  1.0000
  H   H354      1.0  0.13272  0.37217  0.50559  1.0000
  H   H355      1.0  0.09296  0.36888  0.50969  1.0000
  S   S85       1.0  0.51575  0.25481  0.01494  1.0000
  H   H356      1.0  0.03365  0.29776  0.17024  1.0000
  H   H357      1.0  0.51887  0.33170  0.10451  1.0000
  H   H358      1.0  0.51835  0.32300  0.05008  1.0000
  H   H359      1.0  0.16101  0.45086  0.01917  1.0000
  H   H360      1.0  0.09342  0.44581  0.01609  1.0000
  H   H361      1.0  0.14479  0.43295  0.01735  1.0000
  H   H362      1.0  0.10734  0.46419  0.01642  1.0000
  H   H363      1.0  0.36551  0.24519  0.76546  1.0000
  C   C297      1.0  0.40172  0.27005  0.71613  1.0000
  H   H364      1.0  0.42468  0.27102  0.67021  1.0000
  N   N22       1.0  0.37779  0.26800  0.77196  1.0000
  C   C298      1.0  0.42709  0.26804  0.69555  1.0000
  H   H365      1.0  0.48029  0.25285  0.74844  1.0000
  C   C299      1.0  0.12411  0.29336  0.65775  1.0000
  S   S86       1.0  0.03673  0.33702  0.52141  1.0000
  S   S87       1.0  0.46908  0.24144  0.58552  1.0000
  C   C300      1.0  0.08010  0.25512  0.84777  1.0000
  S   S88       1.0  0.03555  0.45327  0.67341  1.0000
  H   H366      1.0  0.39384  0.28839  0.78993  1.0000
  C   C301      1.0  0.10168  0.41683  0.91592  1.0000
  S   S89       1.0  0.04524  0.45410  0.92317  1.0000
  C   C302      1.0  0.19886  0.46982  0.63570  1.0000
  Fe  Fe45      1.0  0.48533  0.27628  0.52885  1.0000
  H   H367      1.0  0.10298  0.42287  0.99485  1.0000
  H   H368      1.0  0.15498  0.31545  0.71075  1.0000
  C   C303      1.0  0.51093  0.24460  0.81680  1.0000
  S   S90       1.0  0.46669  0.27905  0.57926  1.0000
  Fe  Fe46      1.0  0.43607  0.26075  0.56795  1.0000
  S   S91       1.0  0.38495  0.26292  0.57932  1.0000
  H   H369      1.0  0.14204  0.47230  0.53672  1.0000
  H   H370      1.0  0.12270  0.26886  0.80935  1.0000
  Fe  Fe47      1.0  0.48792  0.24191  0.53549  1.0000
  H   H371      1.0  0.35377  0.28721  0.74653  1.0000
  S   S92       1.0  0.22589  0.25350  0.81138  1.0000
  C   C304      1.0  0.03235  0.40559  0.54017  1.0000
  Fe  Fe48      1.0  0.28464  0.24672  0.74071  1.0000
  S   S93       1.0  0.26831  0.27013  0.75622  1.0000
  H   H372      1.0  0.03465  0.29882  0.67473  1.0000
  Fe  Fe49      1.0  0.27485  0.25991  0.80638  1.0000
  S   S94       1.0  0.30251  0.27278  0.84041  1.0000
  Fe  Fe50      1.0  0.22073  0.26168  0.75986  1.0000
  S   S95       1.0  0.17522  0.27170  0.73803  1.0000
  H   H373      1.0  0.10380  0.32820  0.70915  1.0000
  C   C305      1.0  0.09769  0.41450  0.94877  1.0000
  H   H374      1.0  0.08260  0.45969  0.98485  1.0000
  S   S96       1.0  0.46280  0.27296  0.96806  1.0000
  Fe  Fe51      1.0  0.44552  0.25006  0.95984  1.0000
  Fe  Fe52      1.0  0.24339  0.23123  0.79098  1.0000
  H   H375      1.0  0.02520  0.34026  0.68786  1.0000
  H   H376      1.0  0.05640  0.35445  0.92806  1.0000
  H   H377      1.0  0.34075  0.26878  0.73822  1.0000
  C   C306      1.0  0.37482  0.24377  0.66899  1.0000
  H   H378      1.0  0.06471  0.34366  0.68104  1.0000
  C   C307      1.0  0.36269  0.24124  0.88572  1.0000
  S   S97       1.0  0.29246  0.23695  0.79076  1.0000
  H   H379      1.0  0.28925  0.46876  0.61249  1.0000
  C   C308      1.0  0.02386  0.39058  0.53904  1.0000
  C   C309      1.0  0.13851  0.25932  0.81936  1.0000
  S   S98       1.0  0.05615  0.31382  0.77923  1.0000
  H   H380      1.0  0.07804  0.29553  0.64168  1.0000
  H   H381      1.0  0.02849  0.41989  0.88757  1.0000
  C   C310      1.0  0.03009  0.41323  0.56891  1.0000
  H   H382      1.0  0.13331  0.45058  0.91324  1.0000
  H   H383      1.0  0.10352  0.46772  0.57977  1.0000
  H   H384      1.0  0.40376  0.27135  0.81445  1.0000
  H   H385      1.0  0.05286  0.33274  0.71631  1.0000
  C   C311      1.0  0.14253  0.28279  0.75263  1.0000
  C   C312      1.0  0.11350  0.28018  0.74108  1.0000
  C   C313      1.0  0.08695  0.28912  0.75028  1.0000
  C   C314      1.0  0.08906  0.30131  0.77019  1.0000
  C   C315      1.0  0.11816  0.30402  0.78167  1.0000
  C   C316      1.0  0.14470  0.29466  0.77338  1.0000
  H   H386      1.0  0.11153  0.27126  0.72453  1.0000
  H   H387      1.0  0.06499  0.28685  0.74092  1.0000
  H   H388      1.0  0.12022  0.31343  0.79693  1.0000
  H   H389      1.0  0.16692  0.29698  0.78213  1.0000
  C   C317      1.0  0.33209  0.26380  0.86506  1.0000
  C   C318      1.0  0.33855  0.24796  0.86663  1.0000
  C   C319      1.0  0.17194  0.46880  0.65382  1.0000
  C   C320      1.0  0.38062  0.25022  0.90360  1.0000
  C   C321      1.0  0.37429  0.26608  0.90202  1.0000
  C   C322      1.0  0.35009  0.27281  0.88285  1.0000
  C   C323      1.0  0.14822  0.23234  0.82967  1.0000
  C   C324      1.0  0.12411  0.24219  0.78061  1.0000
  H   H390      1.0  0.38781  0.27312  0.91574  1.0000
  H   H391      1.0  0.34520  0.28508  0.88192  1.0000
  S   S99       1.0  0.49295  0.23916  0.95063  1.0000
  C   C325      1.0  0.36991  0.25746  0.61731  1.0000
  C   C326      1.0  0.33889  0.26147  0.62462  1.0000
  C   C327      1.0  0.32591  0.25675  0.65413  1.0000
  C   C328      1.0  0.34379  0.24772  0.67628  1.0000
  H   H392      1.0  0.03956  0.26305  0.87394  1.0000
  C   C329      1.0  0.38792  0.24871  0.63981  1.0000
  H   H393      1.0  0.32477  0.26820  0.60731  1.0000
  H   H394      1.0  0.30193  0.25976  0.65933  1.0000
  C   C330      1.0  0.04915  0.33499  0.69016  1.0000
  N   N23       1.0  0.05387  0.32073  0.67248  1.0000
  H   H395      1.0  0.03770  0.30723  0.71233  1.0000
  H   H396      1.0  0.41182  0.24556  0.63459  1.0000
  H   H397      1.0  0.10626  0.25042  0.76943  1.0000
  H   H398      1.0  0.02258  0.31710  0.91340  1.0000
  C   C331      1.0  0.38576  0.27727  0.79886  1.0000
  C   C332      1.0  0.12012  0.43861  0.95810  1.0000
  Fe  Fe53      1.0  0.51032  0.26137  0.96257  1.0000
  H   H399      1.0  0.13007  0.28321  0.64459  1.0000
  H   H400      1.0  0.02176  0.33067  0.63692  1.0000
  H   H401      1.0  0.20390  0.46136  0.61814  1.0000
  C   C333      1.0  0.50286  0.25130  0.84550  1.0000
  S   S100      1.0  0.32834  0.24018  0.71244  1.0000
  H   H402      1.0  0.50982  0.26960  0.87597  1.0000
  H   H403      1.0  0.38873  0.24693  0.79988  1.0000
  C   C334      1.0  0.10849  0.31882  0.69369  1.0000
  C   C335      1.0  0.09439  0.30053  0.65625  1.0000
  C   C336      1.0  0.13817  0.31159  0.69487  1.0000
  H   H404      1.0  0.27196  0.46610  0.65143  1.0000
  Fe  Fe54      1.0  0.04157  0.47917  0.93135  1.0000
  C   C337      1.0  0.45837  0.25778  0.73960  1.0000
  H   H405      1.0  0.17172  0.23307  0.81930  1.0000
  C   C338      1.0  0.08571  0.31358  0.67398  1.0000
  C   C339      1.0  0.34965  0.27570  0.75706  1.0000
  S   S101      1.0  0.45205  0.25950  0.51651  1.0000
  H   H406      1.0  0.06162  0.33195  0.62656  1.0000
  H   H407      1.0  0.36560  0.27980  0.81493  1.0000
  H   H408      1.0  0.16872  0.29305  0.67885  1.0000
  C   C340      1.0  0.14597  0.29891  0.67693  1.0000
  H   H409      1.0  0.15675  0.45994  0.64971  1.0000
  H   H410      1.0  0.38039  0.27444  0.70518  1.0000
  H   H411      1.0  0.51616  0.28956  0.99493  1.0000
  C   C341      1.0  0.40411  0.26611  0.74941  1.0000
  C   C342      1.0  0.04508  0.32456  0.63874  1.0000
  H   H412      1.0  0.04061  0.41135  0.51873  1.0000
  H   H413      1.0  0.03991  0.39642  0.85803  1.0000
  H   H414      1.0  0.32477  0.24085  0.85336  1.0000
  C   C343      1.0  0.26693  0.46824  0.62555  1.0000
  S   S102      1.0  0.03614  0.43372  0.00349  1.0000
  H   H415      1.0  0.08994  0.26578  0.85119  1.0000
  H   H416      1.0  0.14696  0.47203  0.98238  1.0000
  H   H417      1.0  0.04394  0.31428  0.62461  1.0000
  H   H418      1.0  0.34918  0.25368  0.80045  1.0000
  Fe  Fe55      1.0  0.04886  0.46997  0.63427  1.0000
  H   H419      1.0  0.33062  0.27735  0.77489  1.0000
  H   H420      1.0  0.14628  0.24397  0.76799  1.0000
  C   C344      1.0  0.51568  0.26459  0.85328  1.0000
  C   C345      1.0  0.12393  0.44063  0.92440  1.0000
  N   N24       1.0  0.12603  0.24433  0.81542  1.0000
  C   C346      1.0  0.43320  0.25980  0.76046  1.0000
  C   C347      1.0  0.14124  0.46359  0.96484  1.0000
  H   H421      1.0  0.50128  0.23413  0.81102  1.0000
  C   C348      1.0  0.03206  0.39555  0.88269  1.0000
  C   C349      1.0  0.10699  0.42512  0.96960  1.0000
  C   C350      1.0  0.11821  0.47699  0.58111  1.0000
  H   H422      1.0  0.04119  0.34487  0.96266  1.0000
  H   H423      1.0  0.09430  0.40863  0.89982  1.0000
  H   H424      1.0  0.43653  0.25623  0.78529  1.0000
  C   C351      1.0  0.09542  0.24315  0.83053  1.0000
  C   C352      1.0  0.45532  0.26192  0.70722  1.0000
  H   H425      1.0  0.22577  0.47490  0.57763  1.0000
  C   C353      1.0  0.03275  0.30986  0.68660  1.0000
  C   C354      1.0  0.02828  0.38125  0.89769  1.0000
  C   C355      1.0  0.05092  0.25372  0.86111  1.0000
  H   H426      1.0  0.16070  0.26021  0.80635  1.0000
  H   H427      1.0  0.47477  0.26024  0.69097  1.0000
  H   H428      1.0  0.48699  0.24610  0.86204  1.0000
  H   H429      1.0  0.11735  0.43176  0.87813  1.0000
  H   H430      1.0  0.14284  0.26128  0.84487  1.0000
  C   C356      1.0  0.16358  0.47957  0.67624  1.0000
  H   H431      1.0  0.25641  0.45810  0.61714  1.0000
  H   H432      1.0  0.16264  0.46066  0.95102  1.0000
  H   H433      1.0  0.08681  0.40456  0.95822  1.0000
  C   C357      1.0  0.37011  0.25279  0.78500  1.0000
  H   H434      1.0  0.03420  0.37131  0.88402  1.0000
  C   C358      1.0  0.11478  0.42985  0.90377  1.0000
  Fe  Fe56      1.0  0.50113  0.25962  0.59439  1.0000
  Fe  Fe57      1.0  0.49407  0.23346  0.00337  1.0000
  S   S103      1.0  0.23682  0.23891  0.73974  1.0000
  C   C359      1.0  0.15311  0.44259  0.00237  1.0000
  S   S104      1.0  0.41056  0.24091  0.92723  1.0000
  C   C360      1.0  0.02566  0.40880  0.89926  1.0000
  N   N25       1.0  0.12904  0.44984  0.98076  1.0000
  H   H435      1.0  0.12401  0.46966  0.94844  1.0000
  H   H436      1.0  0.38881  0.23675  0.68596  1.0000
  C   C361      1.0  0.10201  0.45510  0.00033  1.0000
  S   S105      1.0  0.03282  0.45640  0.59448  1.0000
  H   H437      1.0  0.05742  0.36276  0.96635  1.0000
  C   C362      1.0  0.04328  0.35633  0.95065  1.0000
  H   H438      1.0  0.03680  0.42476  0.56956  1.0000
  C   C363      1.0  0.03611  0.24049  0.85779  1.0000
  C   C364      1.0  0.14018  0.47951  0.55697  1.0000
  C   C365      1.0  0.01937  0.40588  0.59674  1.0000
  H   H439      1.0  0.17347  0.43802  0.98851  1.0000
  H   H440      1.0  0.14210  0.47898  0.68943  1.0000
  H   H441      1.0  0.14985  0.23332  0.85595  1.0000
  S   S106      1.0  0.44583  0.24308  0.01235  1.0000
  C   C366      1.0  0.50282  0.49948  0.32932  1.0000
  H   H442      1.0  0.28185  0.50012  0.46297  1.0000
  H   H443      1.0  0.05571  0.51745  0.04186  1.0000
  H   H444      1.0  0.02935  0.70512  0.11386  1.0000
  H   H445      1.0  0.32421  0.52617  0.38771  1.0000
  H   H446      1.0  0.22797  0.55302  0.36114  1.0000
  S   S107      1.0  0.08022  0.57338  0.40979  1.0000
  H   H447      1.0  0.34579  0.50608  0.13286  1.0000
  C   C367      1.0  0.30213  0.48726  0.42429  1.0000
  H   H448      1.0  0.12953  0.56839  0.03092  1.0000
  H   H449      1.0  0.10026  0.52177  0.46621  1.0000
  H   H450      1.0  0.12355  0.64853  0.47338  1.0000
  S   S108      1.0  0.29175  0.53188  0.44666  1.0000
  S   S109      1.0  0.20965  0.52998  0.08793  1.0000
  H   H451      1.0  0.17926  0.55813  0.45934  1.0000
  Fe  Fe58      1.0  0.25593  0.52908  0.06415  1.0000
  S   S110      1.0  0.29997  0.51929  0.08831  1.0000
  H   H452      1.0  0.09378  0.57370  0.04966  1.0000
  C   C368      1.0  0.09649  0.57924  0.21190  1.0000
  H   H453      1.0  0.29728  0.50824  0.27601  1.0000
  C   C369      1.0  0.10667  0.57272  0.44119  1.0000
  C   C370      1.0  0.09934  0.57987  0.46967  1.0000
  H   H454      1.0  0.48267  0.49347  0.33550  1.0000
  H   H455      1.0  0.35298  0.56066  0.04455  1.0000
  C   C371      1.0  0.16120  0.60259  0.43962  1.0000
  S   S111      1.0  0.28807  0.48651  0.22639  1.0000
  H   H456      1.0  0.07730  0.58600  0.47266  1.0000
  C   C372      1.0  0.04641  0.59218  0.20666  1.0000
  H   H457      1.0  0.10602  0.57888  0.27168  1.0000
  H   H458      1.0  0.33864  0.50234  0.35944  1.0000
  C   C373      1.0  0.07945  0.56468  0.11386  1.0000
  C   C374      1.0  0.08943  0.57928  0.11617  1.0000
  C   C375      1.0  0.12044  0.58175  0.11086  1.0000
  C   C376      1.0  0.14146  0.56965  0.10278  1.0000
  C   C377      1.0  0.13165  0.55496  0.10145  1.0000
  C   C378      1.0  0.10079  0.55244  0.10753  1.0000
  H   H459      1.0  0.07336  0.58873  0.12160  1.0000
  H   H460      1.0  0.12798  0.59312  0.11198  1.0000
  H   H461      1.0  0.14778  0.54553  0.09550  1.0000
  H   H462      1.0  0.09336  0.54105  0.10634  1.0000
  H   H463      1.0  0.02752  0.56426  0.21008  1.0000
  H   H464      1.0  0.03142  0.56443  0.46448  1.0000
  S   S112      1.0  0.15578  0.50715  0.04449  1.0000
  C   C379      1.0  0.06461  0.54771  0.48590  1.0000
  H   H465      1.0  0.23145  0.52281  0.27594  1.0000
  C   C380      1.0  0.02816  0.57702  0.26898  1.0000
  C   C381      1.0  0.01939  0.53092  0.06502  1.0000
  C   C382      1.0  0.26819  0.50771  0.14045  1.0000
  C   C383      1.0  0.29415  0.50068  0.44042  1.0000
  S   S113      1.0  0.04037  0.56152  0.11712  1.0000
  H   H466      1.0  0.02604  0.72495  0.12144  1.0000
  H   H467      1.0  0.05906  0.62401  0.48177  1.0000
  C   C384      1.0  0.30208  0.51477  0.42732  1.0000
  H   H468      1.0  0.24363  0.49899  0.18140  1.0000
  C   C385      1.0  0.29248  0.49522  0.18787  1.0000
  C   C386      1.0  0.09387  0.54568  0.02687  1.0000
  H   H469      1.0  0.08083  0.62427  0.43272  1.0000
  C   C387      1.0  0.31800  0.51531  0.39793  1.0000
  C   C388      1.0  0.23409  0.51718  0.39506  1.0000
  H   H470      1.0  0.04184  0.57596  0.34878  1.0000
  H   H471      1.0  0.05077  0.59348  0.18046  1.0000
  H   H472      1.0  0.07862  0.60933  0.50673  1.0000
  C   C389      1.0  0.11689  0.52610  0.48269  1.0000
  C   C390      1.0  0.32347  0.50452  0.14339  1.0000
  H   H473      1.0  0.23197  0.51128  0.41825  1.0000
  C   C391      1.0  0.26601  0.50051  0.17095  1.0000
  C   C392      1.0  0.24176  0.53266  0.33617  1.0000
  C   C393      1.0  0.14417  0.60231  0.41187  1.0000
  C   C394      1.0  0.32596  0.50186  0.38176  1.0000
  H   H474      1.0  0.05249  0.60282  0.21759  1.0000
  C   C395      1.0  0.10498  0.57196  0.02600  1.0000
  H   H475      1.0  0.08539  0.64590  0.46102  1.0000
  H   H476      1.0  0.48422  0.50864  0.28460  1.0000
  C   C396      1.0  0.36448  0.53182  0.02517  1.0000
  C   C397      1.0  0.04003  0.55890  0.48664  1.0000
  H   H477      1.0  0.28437  0.48912  0.33350  1.0000
  H   H478      1.0  0.21336  0.50664  0.29312  1.0000
  H   H479      1.0  0.10177  0.60968  0.38849  1.0000
  H   H480      1.0  0.22190  0.53925  0.41339  1.0000
  H   H481      1.0  0.34190  0.49313  0.18681  1.0000
  H   H482      1.0  0.15300  0.59564  0.39221  1.0000
  H   H483      1.0  0.31384  0.56279  0.03173  1.0000
  C   C398      1.0  0.31801  0.48779  0.39492  1.0000
  S   S114      1.0  0.21123  0.53171  0.48801  1.0000
  H   H484      1.0  0.14141  0.55926  0.41563  1.0000
  H   H485      1.0  0.09478  0.57763  0.32876  1.0000
  H   H486      1.0  0.24944  0.49689  0.37283  1.0000
  C   C399      1.0  0.07637  0.62184  0.50088  1.0000
  C   C400      1.0  0.14926  0.57097  0.49116  1.0000
  H   H487      1.0  0.02122  0.59175  0.20965  1.0000
  H   H488      1.0  0.13700  0.51742  0.48390  1.0000
  C   C401      1.0  0.22840  0.53297  0.39238  1.0000
  H   H489      1.0  0.16355  0.61000  0.48655  1.0000
  C   C402      1.0  0.07632  0.57738  0.31181  1.0000
  H   H490      1.0  0.02797  0.72669  0.43029  1.0000
  H   H491      1.0  0.11083  0.56901  0.22127  1.0000
  H   H492      1.0  0.11795  0.54294  0.03489  1.0000
  H   H493      1.0  0.09158  0.65084  0.50094  1.0000
  H   H494      1.0  0.09962  0.57961  0.18540  1.0000
  C   C403      1.0  0.32132  0.49717  0.17397  1.0000
  C   C404      1.0  0.23208  0.54070  0.36297  1.0000
  C   C405      1.0  0.50367  0.50803  0.30055  1.0000
  H   H495      1.0  0.07901  0.54587  0.04865  1.0000
  H   H496      1.0  0.10582  0.58974  0.22024  1.0000
  S   S115      1.0  0.35591  0.48758  0.28910  1.0000
  C   C406      1.0  0.15680  0.56391  0.46259  1.0000
  H   H497      1.0  0.24757  0.51150  0.12776  1.0000
  H   H498      1.0  0.28465  0.52669  0.28871  1.0000
  C   C407      1.0  0.11531  0.61020  0.40983  1.0000
  C   C408      1.0  0.05834  0.57789  0.25638  1.0000
  H   H499      1.0  0.04276  0.66859  0.47012  1.0000
  Fe  Fe59      1.0  0.19307  0.52325  0.04073  1.0000
  S   S116      1.0  0.17935  0.57320  0.09268  1.0000
  H   H500      1.0  0.07387  0.54519  0.46252  1.0000
  Fe  Fe60      1.0  0.03646  0.58859  0.41511  1.0000
  C   C409      1.0  0.04645  0.57642  0.32326  1.0000
  Fe  Fe61      1.0  0.26241  0.53134  0.49166  1.0000
  Fe  Fe62      1.0  0.20322  0.55378  0.06696  1.0000
  H   H501      1.0  0.24448  0.53917  0.31393  1.0000
  C   C410      1.0  0.10335  0.61839  0.43554  1.0000
  H   H502      1.0  0.24261  0.50426  0.26272  1.0000
  N   N26       1.0  0.06372  0.57850  0.22135  1.0000
  C   C411      1.0  0.08239  0.57810  0.27886  1.0000
  H   H503      1.0  0.05320  0.58716  0.02403  1.0000
  C   C412      1.0  0.29686  0.50989  0.12654  1.0000
  N   N27       1.0  0.25924  0.50841  0.30952  1.0000
  H   H504      1.0  0.18331  0.59608  0.44147  1.0000
  H   H505      1.0  0.38594  0.53674  0.03204  1.0000
  H   H506      1.0  0.32551  0.54795  0.06017  1.0000
  C   C413      1.0  0.24843  0.51657  0.33817  1.0000
  C   C414      1.0  0.24421  0.50903  0.36855  1.0000
  H   H507      1.0  0.24499  0.48617  0.32445  1.0000
  H   H508      1.0  0.30518  0.52936  0.02379  1.0000
  C   C415      1.0  0.13547  0.56472  0.43771  1.0000
  S   S117      1.0  0.25096  0.55385  0.04696  1.0000
  H   H509      1.0  0.30600  0.51350  0.31563  1.0000
  C   C416      1.0  0.12049  0.57895  0.49464  1.0000
  C   C417      1.0  0.10160  0.64388  0.48128  1.0000
  H   H510      1.0  0.12550  0.53675  0.47183  1.0000
  C   C418      1.0  0.28797  0.51451  0.29700  1.0000
  C   C419      1.0  0.11988  0.61881  0.46435  1.0000
  N   N28       1.0  0.10644  0.62747  0.49134  1.0000
  C   C420      1.0  0.33318  0.55428  0.03812  1.0000
  C   C421      1.0  0.23560  0.51066  0.28433  1.0000
  H   H511      1.0  0.50189  0.48390  0.23386  1.0000
  C   C422      1.0  0.14939  0.61068  0.46558  1.0000
  C   C423      1.0  0.26573  0.49170  0.31576  1.0000
  S   S118      1.0  0.23991  0.52046  0.01772  1.0000
  H   H512      1.0  0.27355  0.48592  0.29372  1.0000
  C   C424      1.0  0.02247  0.57618  0.30191  1.0000
  S   S119      1.0  0.02066  0.60047  0.45915  1.0000
  H   H513      1.0  0.35552  0.52585  0.04710  1.0000
  S   S120      1.0  0.02657  0.60911  0.38194  1.0000
  H   H514      1.0  0.03417  0.53437  0.08347  1.0000
  S   S121      1.0  0.02663  0.69032  0.05121  1.0000
  H   H515      1.0  0.03733  0.71110  0.15299  1.0000
  S   S122      1.0  0.02493  0.64322  0.43648  1.0000
  H   H516      1.0  0.03057  0.66331  0.09218  1.0000
  H   H517      1.0  0.10040  0.49310  0.03784  1.0000
  C   C425      1.0  0.01958  0.66654  0.47747  1.0000
  C   C426      1.0  0.03161  0.52147  0.04151  1.0000
  H   H518      1.0  0.06390  0.55410  0.21930  1.0000
  C   C427      1.0  0.05280  0.56471  0.20760  1.0000
  H   H519      1.0  0.05791  0.56438  0.18153  1.0000
  C   C428      1.0  0.02188  0.71346  0.13216  1.0000
  S   S123      1.0  0.18320  0.54717  0.02156  1.0000
  C   C429      1.0  0.10717  0.49743  0.01437  1.0000
  H   H520      1.0  0.08834  0.53588  0.01287  1.0000
  Fe  Fe63      1.0  0.32006  0.58675  0.74635  1.0000
  S   S124      1.0  0.35783  0.56958  0.76270  1.0000
  S   S125      1.0  0.28411  0.58323  0.70939  1.0000
  Fe  Fe64      1.0  0.33845  0.61041  0.79202  1.0000
  S   S126      1.0  0.37768  0.59486  0.81224  1.0000
  S   S127      1.0  0.32936  0.63363  0.81273  1.0000
  Fe  Fe65      1.0  0.38772  0.58930  0.76127  1.0000
  S   S128      1.0  0.43358  0.58826  0.73484  1.0000
  Fe  Fe66      1.0  0.34448  0.57661  0.81224  1.0000
  S   S129      1.0  0.34219  0.55752  0.85039  1.0000
  S   S130      1.0  0.35064  0.60609  0.74091  1.0000
  S   S131      1.0  0.30447  0.59259  0.79607  1.0000
  S   S132      1.0  0.23470  0.71635  0.80975  1.0000
  S   S133      1.0  0.17304  0.71108  0.76804  1.0000
  Fe  Fe67      1.0  0.22420  0.70732  0.76219  1.0000
  S   S134      1.0  0.24101  0.68483  0.74149  1.0000
  H   H521      1.0  0.10467  0.58316  0.01244  1.0000
  H   H522      1.0  0.43031  0.64353  0.78191  1.0000
  Fe  Fe68      1.0  0.26024  0.53273  0.56455  1.0000
  S   S135      1.0  0.29001  0.53109  0.60885  1.0000
  S   S136      1.0  0.20886  0.53307  0.56667  1.0000
  H   H523      1.0  0.27271  0.49478  0.65248  1.0000
  C   C430      1.0  0.50271  0.62984  0.76193  1.0000
  C   C431      1.0  0.24170  0.54733  0.82069  1.0000
  S   S137      1.0  0.23506  0.55849  0.95458  1.0000
  Fe  Fe69      1.0  0.23151  0.54538  0.00240  1.0000
  H   H524      1.0  0.25136  0.50666  0.62263  1.0000
  C   C432      1.0  0.46861  0.58804  0.75551  1.0000
  C   C433      1.0  0.46931  0.58889  0.78872  1.0000
  N   N29       1.0  0.25019  0.55441  0.78932  1.0000
  H   H525      1.0  0.29618  0.54309  0.78737  1.0000
  C   C434      1.0  0.49637  0.58735  0.73808  1.0000
  H   H526      1.0  0.44812  0.58946  0.80240  1.0000
  H   H527      1.0  0.49604  0.58668  0.71239  1.0000
  C   C435      1.0  0.30600  0.64804  0.79194  1.0000
  C   C436      1.0  0.29230  0.64528  0.76308  1.0000
  C   C437      1.0  0.27272  0.65675  0.74774  1.0000
  C   C438      1.0  0.26678  0.67105  0.76101  1.0000
  C   C439      1.0  0.28078  0.67388  0.78966  1.0000
  C   C440      1.0  0.30024  0.66238  0.80514  1.0000
  H   H528      1.0  0.29658  0.63428  0.75273  1.0000
  H   H529      1.0  0.26202  0.65451  0.72552  1.0000
  H   H530      1.0  0.27677  0.68495  0.79974  1.0000
  H   H531      1.0  0.31085  0.66457  0.82743  1.0000
  C   C441      1.0  0.31211  0.55779  0.87899  1.0000
  C   C442      1.0  0.31009  0.54525  0.90080  1.0000
  C   C443      1.0  0.28675  0.54530  0.92432  1.0000
  C   C444      1.0  0.26551  0.55798  0.92637  1.0000
  C   C445      1.0  0.26730  0.57041  0.90426  1.0000
  C   C446      1.0  0.29050  0.57033  0.88066  1.0000
  H   H532      1.0  0.32662  0.53547  0.89943  1.0000
  H   H533      1.0  0.28471  0.53541  0.94027  1.0000
  H   H534      1.0  0.25067  0.58017  0.90547  1.0000
  H   H535      1.0  0.29190  0.58006  0.86410  1.0000
  C   C447      1.0  0.28543  0.56825  0.68256  1.0000
  C   C448      1.0  0.26420  0.56910  0.65758  1.0000
  C   C449      1.0  0.26526  0.55778  0.63488  1.0000
  C   C450      1.0  0.28750  0.54544  0.63714  1.0000
  C   C451      1.0  0.30816  0.54436  0.66269  1.0000
  C   C452      1.0  0.30708  0.55568  0.68540  1.0000
  H   H536      1.0  0.24720  0.57873  0.65535  1.0000
  H   H537      1.0  0.24910  0.55869  0.61544  1.0000
  H   H538      1.0  0.32526  0.53477  0.66474  1.0000
  H   H539      1.0  0.32307  0.55469  0.70495  1.0000
  H   H540      1.0  0.11525  0.70250  0.90563  1.0000
  H   H541      1.0  0.37750  0.57451  0.90487  1.0000
  C   C453      1.0  0.07815  0.72188  0.65038  1.0000
  H   H542      1.0  0.09791  0.54952  0.96335  1.0000
  C   C454      1.0  0.13351  0.50537  0.01080  1.0000
  C   C455      1.0  0.06144  0.72137  0.74865  1.0000
  H   H543      1.0  0.04076  0.71482  0.75132  1.0000
  C   C456      1.0  0.11598  0.48621  0.60739  1.0000
  H   H544      1.0  0.07158  0.71539  0.93496  1.0000
  H   H545      1.0  0.39637  0.53892  0.97608  1.0000
  C   C457      1.0  0.12519  0.72253  0.87685  1.0000
  C   C458      1.0  0.15952  0.49140  0.55884  1.0000
  H   H546      1.0  0.08593  0.51427  0.55339  1.0000
  H   H547      1.0  0.13879  0.71459  0.70113  1.0000
  C   C459      1.0  0.03872  0.55453  0.98739  1.0000
  H   H548      1.0  0.14876  0.52499  0.53416  1.0000
  C   C460      1.0  0.08387  0.72173  0.91685  1.0000
  C   C461      1.0  0.49755  0.58906  0.80433  1.0000
  C   C462      1.0  0.18209  0.49143  0.68065  1.0000
  H   H549      1.0  0.41102  0.55289  0.92761  1.0000
  S   S138      1.0  0.26563  0.51324  0.53128  1.0000
  S   S139      1.0  0.26106  0.55082  0.52484  1.0000
  Fe  Fe70      1.0  0.18335  0.72164  0.81394  1.0000
  H   H550      1.0  0.10286  0.70126  0.66912  1.0000
  C   C463      1.0  0.21545  0.54817  0.87295  1.0000
  H   H551      1.0  0.24449  0.57792  0.80218  1.0000
  H   H552      1.0  0.20149  0.55446  0.89031  1.0000
  C   C464      1.0  0.23666  0.57036  0.78393  1.0000
  N   N30       1.0  0.38502  0.58209  0.65135  1.0000
  C   C465      1.0  0.37394  0.57398  0.68051  1.0000
  C   C466      1.0  0.41778  0.57669  0.64636  1.0000
  C   C467      1.0  0.38386  0.59867  0.65695  1.0000
  C   C468      1.0  0.36501  0.57928  0.62441  1.0000
  C   C469      1.0  0.33358  0.58482  0.62465  1.0000
  C   C470      1.0  0.37533  0.57032  0.59840  1.0000
  C   C471      1.0  0.31389  0.58177  0.60021  1.0000
  C   C472      1.0  0.35528  0.56718  0.57429  1.0000
  C   C473      1.0  0.32464  0.57287  0.57523  1.0000
  H   H553      1.0  0.37271  0.56162  0.67671  1.0000
  H   H554      1.0  0.38935  0.57490  0.70104  1.0000
  H   H555      1.0  0.35072  0.57870  0.68801  1.0000
  H   H556      1.0  0.42089  0.56407  0.64496  1.0000
  H   H557      1.0  0.43227  0.57946  0.66669  1.0000
  H   H558      1.0  0.42744  0.58219  0.62439  1.0000
  H   H559      1.0  0.36079  0.60338  0.66484  1.0000
  H   H560      1.0  0.39977  0.60110  0.67632  1.0000
  H   H561      1.0  0.39032  0.60530  0.63494  1.0000
  H   H562      1.0  0.32367  0.59116  0.64427  1.0000
  H   H563      1.0  0.39863  0.56537  0.59634  1.0000
  C   C474      1.0  0.12788  0.53307  0.53550  1.0000
  C   C475      1.0  0.50259  0.65549  0.78047  1.0000
  H   H564      1.0  0.11038  0.50447  0.52542  1.0000
  C   C476      1.0  0.10081  0.71360  0.66908  1.0000
  C   C477      1.0  0.35264  0.55253  0.98358  1.0000
  H   H565      1.0  0.11453  0.58437  0.51674  1.0000
  S   S140      1.0  0.08064  0.49426  0.92316  1.0000
  C   C478      1.0  0.06280  0.54503  0.54368  1.0000
  H   H566      1.0  0.22295  0.52836  0.90469  1.0000
  C   C479      1.0  0.22230  0.55511  0.84325  1.0000
  C   C480      1.0  0.09006  0.49464  0.98767  1.0000
  H   H567      1.0  0.10269  0.56964  0.96187  1.0000
  C   C481      1.0  0.33408  0.56508  0.96977  1.0000
  H   H568      1.0  0.51330  0.66559  0.78642  1.0000
  H   H569      1.0  0.13483  0.54464  0.52823  1.0000
  H   H570      1.0  0.10429  0.70632  0.78265  1.0000
  H   H571      1.0  0.13239  0.51199  0.93007  1.0000
  C   C482      1.0  0.04104  0.73080  0.83145  1.0000
  C   C483      1.0  0.08622  0.71237  0.79742  1.0000
  H   H572      1.0  0.22211  0.50217  0.66706  1.0000
  H   H573      1.0  0.11511  0.63268  0.54012  1.0000
  C   C484      1.0  0.21837  0.48173  0.63959  1.0000
  C   C485      1.0  0.38976  0.55639  0.93984  1.0000
  H   H574      1.0  0.21115  0.57099  0.78413  1.0000
  N   N31       1.0  0.20718  0.67029  0.85369  1.0000
  C   C486      1.0  0.18004  0.66950  0.87523  1.0000
  C   C487      1.0  0.22692  0.68175  0.86535  1.0000
  C   C488      1.0  0.19591  0.67594  0.82165  1.0000
  C   C489      1.0  0.22470  0.65516  0.85362  1.0000
  C   C490      1.0  0.23705  0.64825  0.88248  1.0000
  C   C491      1.0  0.23025  0.64693  0.82544  1.0000
  C   C492      1.0  0.25426  0.63413  0.88300  1.0000
  C   C493      1.0  0.24724  0.63275  0.82634  1.0000
  C   C494      1.0  0.25949  0.62644  0.85493  1.0000
  H   H575      1.0  0.16517  0.66062  0.86793  1.0000
  H   H576      1.0  0.18651  0.66682  0.90053  1.0000
  H   H577      1.0  0.16577  0.68059  0.87505  1.0000
  H   H578      1.0  0.23404  0.67925  0.89049  1.0000
  H   H579      1.0  0.21484  0.69342  0.86457  1.0000
  H   H580      1.0  0.24818  0.68226  0.85048  1.0000
  H   H581      1.0  0.18268  0.68725  0.82257  1.0000
  H   H582      1.0  0.21523  0.67754  0.80454  1.0000
  H   H583      1.0  0.18037  0.66807  0.81150  1.0000
  H   H584      1.0  0.23393  0.65384  0.90481  1.0000
  H   H585      1.0  0.22265  0.65138  0.80215  1.0000
  H   H586      1.0  0.26414  0.62924  0.90514  1.0000
  H   H587      1.0  0.25221  0.62693  0.80440  1.0000
  H   H588      1.0  0.27378  0.61578  0.85512  1.0000
  C   C495      1.0  0.22764  0.53343  0.88118  1.0000
  H   H589      1.0  0.04869  0.54365  0.97966  1.0000
  H   H590      1.0  0.21263  0.56669  0.83895  1.0000
  H   H591      1.0  0.02821  0.55979  0.56669  1.0000
  H   H592      1.0  0.21452  0.54453  0.76458  1.0000
  H   H593      1.0  0.51402  0.61947  0.75318  1.0000
  C   C496      1.0  0.31413  0.53624  0.00326  1.0000
  C   C497      1.0  0.14216  0.51105  0.98053  1.0000
  H   H594      1.0  0.24364  0.57541  0.76029  1.0000
  H   H595      1.0  0.17179  0.50977  0.58691  1.0000
  H   H596      1.0  0.37009  0.52276  0.00791  1.0000
  C   C498      1.0  0.12118  0.72114  0.68729  1.0000
  H   H597      1.0  0.12119  0.53314  0.56116  1.0000
  H   H598      1.0  0.28988  0.58594  0.60118  1.0000
  C   C499      1.0  0.10868  0.71445  0.90018  1.0000
  C   C500      1.0  0.25345  0.53224  0.82976  1.0000
  H   H599      1.0  0.29288  0.56058  0.80731  1.0000
  H   H600      1.0  0.25105  0.53362  0.76367  1.0000
  H   H601      1.0  0.29126  0.56066  0.76440  1.0000
  H   H602      1.0  0.09832  0.71530  0.81918  1.0000
  C   C501      1.0  0.09230  0.51401  0.52759  1.0000
  N   N32       1.0  0.07158  0.72617  0.78012  1.0000
  C   C502      1.0  0.03840  0.55635  0.54414  1.0000
  H   H603      1.0  0.49789  0.58976  0.83002  1.0000
  C   C503      1.0  0.37101  0.56866  0.92704  1.0000
  H   H604      1.0  0.24519  0.55073  0.73918  1.0000
  C   C504      1.0  0.09932  0.49963  0.95718  1.0000
  C   C505      1.0  0.04163  0.57872  0.01198  1.0000
  S   S141      1.0  0.05315  0.71167  0.62817  1.0000
  H   H605      1.0  0.45816  0.66588  0.79413  1.0000
  H   H606      1.0  0.32846  0.58237  0.93160  1.0000
  C   C506      1.0  0.15699  0.50067  0.58501  1.0000
  C   C507      1.0  0.24656  0.52546  0.85962  1.0000
  H   H607      1.0  0.17503  0.49995  0.69768  1.0000
  H   H608      1.0  0.36335  0.56007  0.55496  1.0000
  C   C508      1.0  0.38092  0.54841  0.96776  1.0000
  H   H609      1.0  0.26858  0.52568  0.81405  1.0000
  H   H610      1.0  0.16256  0.51721  0.97772  1.0000
  H   H611      1.0  0.13118  0.55625  0.98012  1.0000
  C   C509      1.0  0.12509  0.50811  0.95367  1.0000
  C   C510      1.0  0.23976  0.54540  0.76312  1.0000
  C   C511      1.0  0.26486  0.49550  0.62730  1.0000
  H   H612      1.0  0.28581  0.49598  0.61187  1.0000
  H   H613      1.0  0.45858  0.62053  0.76131  1.0000
  C   C512      1.0  0.34336  0.57307  0.94213  1.0000
  H   H614      1.0  0.07038  0.48815  0.99072  1.0000
  H   H615      1.0  0.07061  0.53986  0.56636  1.0000
  S   S142      1.0  0.15623  0.71271  0.85673  1.0000
  H   H616      1.0  0.30906  0.57016  0.55682  1.0000
  C   C513      1.0  0.13532  0.49807  0.60919  1.0000
  H   H617      1.0  0.06906  0.70411  0.80440  1.0000
  C   C514      1.0  0.20912  0.49258  0.66268  1.0000
  C   C515      1.0  0.28402  0.55467  0.78695  1.0000
  H   H618      1.0  0.25640  0.51407  0.86635  1.0000
  H   H619      1.0  0.13379  0.50514  0.62965  1.0000
  H   H620      1.0  0.05623  0.73116  0.73123  1.0000
  C   C516      1.0  0.47092  0.63032  0.76656  1.0000
  C   C517      1.0  0.10604  0.55890  0.97704  1.0000
  N   N33       1.0  0.08988  0.56048  0.00822  1.0000
  C   C518      1.0  0.05678  0.56465  0.00277  1.0000
  H   H621      1.0  0.31951  0.52837  0.98359  1.0000
  H   H622      1.0  0.29501  0.54456  0.99512  1.0000
  C   C519      1.0  0.47075  0.65583  0.78505  1.0000
  N   N34       1.0  0.34159  0.54384  0.01205  1.0000
  N   N35       1.0  0.24682  0.48251  0.62008  1.0000
  H   H623      1.0  0.07960  0.71404  0.73659  1.0000
  Fe  Fe71      1.0  0.20994  0.54963  0.52420  1.0000
  C   C520      1.0  0.45496  0.64327  0.77816  1.0000
  H   H624      1.0  0.31168  0.56850  0.97955  1.0000
  H   H625      1.0  0.22474  0.49511  0.58066  1.0000
  Fe  Fe72      1.0  0.21405  0.51514  0.53030  1.0000
  C   C521      1.0  0.12600  0.62619  0.52019  1.0000
  S   S143      1.0  0.18569  0.49487  0.52756  1.0000
  S   S144      1.0  0.22823  0.72969  0.73460  1.0000
  H   H626      1.0  0.06615  0.62765  0.52200  1.0000
  S   S145      1.0  0.17523  0.57003  0.52291  1.0000
  C   C522      1.0  0.02718  0.56335  0.51566  1.0000
  H   H627      1.0  0.13008  0.61408  0.52928  1.0000
  C   C523      1.0  0.23897  0.48424  0.58576  1.0000
  H   H628      1.0  0.02233  0.50992  0.99912  1.0000
  H   H629      1.0  0.05629  0.72300  0.84564  1.0000
  S   S146      1.0  0.09106  0.48273  0.63964  1.0000
  H   H630      1.0  0.25981  0.48442  0.57019  1.0000
  H   H631      1.0  0.14855  0.63090  0.51523  1.0000
  C   C524      1.0  0.07706  0.54056  0.51456  1.0000
  N   N36       1.0  0.10308  0.52868  0.51481  1.0000
  H   H632      1.0  0.07200  0.51094  0.51436  1.0000
  C   C525      1.0  0.41693  0.86884  0.31421  1.0000
  S   S147      1.0  0.44645  0.87356  0.49889  1.0000
  S   S148      1.0  0.14962  0.96644  0.22697  1.0000
  C   C526      1.0  0.04194  0.79218  0.06423  1.0000
  Fe  Fe73      1.0  0.22729  0.85964  0.25375  1.0000
  S   S149      1.0  0.23294  0.88305  0.23113  1.0000
  S   S150      1.0  0.18975  0.84560  0.23594  1.0000
  Fe  Fe74      1.0  0.28233  0.86127  0.29759  1.0000
  S   S151      1.0  0.29131  0.88477  0.27913  1.0000
  S   S152      1.0  0.31224  0.84730  0.33391  1.0000
  Fe  Fe75      1.0  0.24021  0.88976  0.28118  1.0000
  S   S153      1.0  0.21862  0.91062  0.30469  1.0000
  Fe  Fe76      1.0  0.28376  0.87611  0.23053  1.0000
  S   S154      1.0  0.31578  0.88449  0.19145  1.0000
  S   S155      1.0  0.23151  0.86681  0.30398  1.0000
  S   S156      1.0  0.27779  0.85212  0.24873  1.0000
  Fe  Fe77      1.0  0.49410  0.88041  0.48984  1.0000
  Fe  Fe78      1.0  0.44574  0.86950  0.44624  1.0000
  S   S157      1.0  0.46464  0.84501  0.45240  1.0000
  S   S158      1.0  0.40695  0.88060  0.41531  1.0000
  C   C527      1.0  0.14493  0.79905  0.31806  1.0000
  S   S159      1.0  0.49197  0.87849  0.43684  1.0000
  Fe  Fe79      1.0  0.44913  0.85481  0.07584  1.0000
  S   S160      1.0  0.49708  0.84353  0.07124  1.0000
  S   S161      1.0  0.41770  0.84492  0.11409  1.0000
  H   H633      1.0  0.42722  0.90915  0.44726  1.0000
  H   H634      1.0  0.15389  0.80092  0.26763  1.0000
  H   H635      1.0  0.20299  0.81133  0.27245  1.0000
  H   H636      1.0  0.12141  0.93627  0.30202  1.0000
  C   C528      1.0  0.45124  0.84197  0.29878  1.0000
  H   H637      1.0  0.06569  0.79577  0.10772  1.0000
  S   S162      1.0  0.46506  0.87823  0.07674  1.0000
  C   C529      1.0  0.16273  0.80243  0.29122  1.0000
  S   S163      1.0  0.06704  0.82303  0.30146  1.0000
  H   H638      1.0  0.50640  0.90108  0.06779  1.0000
  C   C530      1.0  0.15531  0.83989  0.25449  1.0000
  C   C531      1.0  0.14809  0.84242  0.28655  1.0000
  C   C532      1.0  0.12077  0.83740  0.30028  1.0000
  C   C533      1.0  0.10033  0.82977  0.28227  1.0000
  C   C534      1.0  0.10737  0.82743  0.25012  1.0000
  C   C535      1.0  0.13471  0.83245  0.23638  1.0000
  H   H639      1.0  0.16372  0.84799  0.30094  1.0000
  H   H640      1.0  0.11563  0.83918  0.32522  1.0000
  H   H641      1.0  0.09196  0.82156  0.23597  1.0000
  H   H642      1.0  0.14003  0.83041  0.21158  1.0000
  C   C536      1.0  0.34290  0.87311  0.16920  1.0000
  C   C537      1.0  0.36173  0.88035  0.14670  1.0000
  C   C538      1.0  0.38461  0.87188  0.12953  1.0000
  C   C539      1.0  0.38893  0.85604  0.13478  1.0000
  C   C540      1.0  0.37016  0.84879  0.15739  1.0000
  C   C541      1.0  0.34716  0.85726  0.17446  1.0000
  H   H643      1.0  0.35861  0.89261  0.14246  1.0000
  H   H644      1.0  0.39881  0.87758  0.11213  1.0000
  H   H645      1.0  0.37326  0.83653  0.16144  1.0000
  H   H646      1.0  0.33269  0.85152  0.19149  1.0000
  C   C542      1.0  0.33869  0.85657  0.35640  1.0000
  C   C543      1.0  0.33760  0.87250  0.35653  1.0000
  C   C544      1.0  0.35857  0.87961  0.37482  1.0000
  C   C545      1.0  0.38091  0.87093  0.39318  1.0000
  C   C546      1.0  0.38215  0.85499  0.39299  1.0000
  C   C547      1.0  0.36107  0.84786  0.37470  1.0000
  H   H647      1.0  0.32021  0.87937  0.34306  1.0000
  H   H648      1.0  0.35733  0.89194  0.37491  1.0000
  H   H649      1.0  0.39927  0.84816  0.40697  1.0000
  H   H650      1.0  0.36212  0.83553  0.37480  1.0000
  C   C548      1.0  0.17025  0.95128  0.24829  1.0000
  C   C549      1.0  0.18055  0.93808  0.23251  1.0000
  C   C550      1.0  0.19636  0.92569  0.24929  1.0000
  C   C551      1.0  0.20152  0.92638  0.28203  1.0000
  C   C552      1.0  0.19165  0.93968  0.29761  1.0000
  C   C553      1.0  0.17631  0.95216  0.28076  1.0000
  H   H651      1.0  0.17600  0.93738  0.20735  1.0000
  H   H652      1.0  0.20408  0.91554  0.23704  1.0000
  H   H653      1.0  0.19571  0.94029  0.32291  1.0000
  H   H654      1.0  0.16874  0.96233  0.29306  1.0000
  H   H655      1.0  0.14174  0.79866  0.36918  1.0000
  C   C554      1.0  0.15581  0.80126  0.34840  1.0000
  N   N37       1.0  0.13436  0.89018  0.24926  1.0000
  C   C555      1.0  0.10907  0.87991  0.25063  1.0000
  C   C556      1.0  0.15058  0.88880  0.21799  1.0000
  C   C557      1.0  0.15667  0.88468  0.27446  1.0000
  C   C558      1.0  0.12157  0.90613  0.25283  1.0000
  C   C559      1.0  0.12764  0.91467  0.27968  1.0000
  C   C560      1.0  0.10214  0.91358  0.22902  1.0000
  C   C561      1.0  0.11569  0.92982  0.28184  1.0000
  C   C562      1.0  0.09065  0.92880  0.23127  1.0000
  C   C563      1.0  0.09761  0.93693  0.25752  1.0000
  H   H656      1.0  0.09212  0.88279  0.23135  1.0000
  H   H657      1.0  0.11781  0.86778  0.24791  1.0000
  H   H658      1.0  0.09643  0.88049  0.27387  1.0000
  H   H659      1.0  0.16817  0.89725  0.21501  1.0000
  H   H660      1.0  0.13484  0.89059  0.19740  1.0000
  H   H661      1.0  0.16253  0.87721  0.21559  1.0000
  H   H662      1.0  0.14571  0.88420  0.29859  1.0000
  H   H663      1.0  0.16689  0.87294  0.27036  1.0000
  H   H664      1.0  0.17611  0.89210  0.27492  1.0000
  H   H665      1.0  0.14230  0.91012  0.29897  1.0000
  H   H666      1.0  0.09597  0.90774  0.20827  1.0000
  Fe  Fe80      1.0  0.49002  0.84674  0.01767  1.0000
  H   H667      1.0  0.03867  0.77097  0.43607  1.0000
  C   C564      1.0  0.50526  0.96307  0.02111  1.0000
  C   C565      1.0  0.36390  0.85895  0.25877  1.0000
  C   C566      1.0  0.37385  0.88440  0.27089  1.0000
  H   H668      1.0  0.37244  0.84790  0.24884  1.0000
  H   H669      1.0  0.34525  0.86398  0.24277  1.0000
  H   H670      1.0  0.35336  0.85637  0.28259  1.0000
  H   H671      1.0  0.35701  0.88943  0.25273  1.0000
  H   H672      1.0  0.36062  0.88323  0.29368  1.0000
  H   H673      1.0  0.40411  0.87899  0.32216  1.0000
  C   C567      1.0  0.47799  0.94579  0.06954  1.0000
  H   H674      1.0  0.48516  0.91371  0.04021  1.0000
  H   H675      1.0  0.43365  0.97385  0.49357  1.0000
  H   H676      1.0  0.19177  0.80857  0.37600  1.0000
  H   H677      1.0  0.44190  0.86673  0.35841  1.0000
  H   H678      1.0  0.46722  0.92481  0.46610  1.0000
  C   C568      1.0  0.37368  0.97196  0.48437  1.0000
  C   C569      1.0  0.25438  0.97419  0.16729  1.0000
  H   H679      1.0  0.07659  0.93442  0.21239  1.0000
  H   H680      1.0  0.04051  0.75991  0.13987  1.0000
  S   S164      1.0  0.51605  0.90036  0.50927  1.0000
  H   H681      1.0  0.40953  0.86107  0.21756  1.0000
  Fe  Fe81      1.0  0.46888  0.84961  0.50489  1.0000
  C   C570      1.0  0.40283  0.87191  0.22933  1.0000
  C   C571      1.0  0.04372  0.79641  0.09585  1.0000
  C   C572      1.0  0.43491  0.94227  0.48422  1.0000
  C   C573      1.0  0.49603  0.91295  0.06400  1.0000
  H   H682      1.0  0.12236  0.79501  0.31525  1.0000
  H   H683      1.0  0.04960  0.76978  0.02031  1.0000
  H   H684      1.0  0.25452  0.97805  0.14165  1.0000
  H   H685      1.0  0.38555  0.97469  0.46135  1.0000
  H   H686      1.0  0.42357  0.87836  0.23081  1.0000
  H   H687      1.0  0.37252  0.91740  0.45508  1.0000
  H   H688      1.0  0.04795  0.74132  0.38556  1.0000
  C   C574      1.0  0.44317  0.92867  0.46909  1.0000
  C   C575      1.0  0.19110  0.80846  0.29444  1.0000
  C   C576      1.0  0.20261  0.81118  0.32506  1.0000
  H   H689      1.0  0.38675  0.87853  0.21248  1.0000
  N   N38       1.0  0.38851  0.86944  0.26137  1.0000
  C   C577      1.0  0.43873  0.86186  0.33548  1.0000
  C   C578      1.0  0.41176  0.86256  0.28429  1.0000
  H   H690      1.0  0.42632  0.84326  0.25534  1.0000
  H   H691      1.0  0.46655  0.93951  0.08834  1.0000
  H   H692      1.0  0.26866  0.82825  0.30313  1.0000
  H   H693      1.0  0.24836  0.83775  0.35057  1.0000
  C   C579      1.0  0.45582  0.84846  0.32783  1.0000
  C   C580      1.0  0.42951  0.84886  0.27731  1.0000
  H   H694      1.0  0.35703  0.94107  0.48147  1.0000
  H   H695      1.0  0.27658  0.81134  0.34966  1.0000
  H   H696      1.0  0.47232  0.84301  0.34472  1.0000
  H   H697      1.0  0.46427  0.83142  0.29307  1.0000
  H   H698      1.0  0.25315  0.81312  0.28366  1.0000
  C   C581      1.0  0.24690  0.82290  0.29899  1.0000
  C   C582      1.0  0.22713  0.83158  0.34907  1.0000
  H   H699      1.0  0.23163  0.83151  0.28523  1.0000
  N   N39       1.0  0.23212  0.81795  0.32950  1.0000
  C   C583      1.0  0.25397  0.80663  0.34626  1.0000
  H   H700      1.0  0.20874  0.83976  0.33873  1.0000
  H   H701      1.0  0.25811  0.79614  0.33246  1.0000
  H   H702      1.0  0.24544  0.80308  0.37039  1.0000
  C   C584      1.0  0.50565  0.93959  0.05531  1.0000
  C   C585      1.0  0.18434  0.80708  0.35197  1.0000
  H   H703      1.0  0.22043  0.82867  0.37414  1.0000
  C   C586      1.0  0.38128  0.93804  0.47819  1.0000
  H   H704      1.0  0.39113  0.89285  0.27349  1.0000
  H   H705      1.0  0.08942  0.94886  0.25879  1.0000
  H   H706      1.0  0.35197  0.96698  0.47865  1.0000
  Fe  Fe82      1.0  0.51274  0.86729  0.06901  1.0000
  C   C587      1.0  0.46421  0.96007  0.05928  1.0000
  H   H707      1.0  0.25085  0.97534  0.23143  1.0000
  C   C588      1.0  0.22902  0.97498  0.21828  1.0000
  S   S165      1.0  0.02427  0.73224  0.02029  1.0000
  S   S166      1.0  0.02722  0.78502  0.28088  1.0000
  S   S167      1.0  0.51024  0.86962  0.01517  1.0000
  Fe  Fe83      1.0  0.02711  0.81061  0.28274  1.0000
  H   H708      1.0  0.50896  0.85425  0.15160  1.0000
  H   H709      1.0  0.02122  0.74387  0.33381  1.0000
  S   S168      1.0  0.44109  0.85644  0.02270  1.0000
  Fe  Fe84      1.0  0.46175  0.87909  0.02327  1.0000
  H   H710      1.0  0.20971  0.98001  0.23300  1.0000
  C   C589      1.0  0.02760  0.73530  0.38241  1.0000
  H   H711      1.0  0.50705  0.87740  0.18269  1.0000
  H   H712      1.0  0.25078  0.96179  0.16777  1.0000
  Fe  Fe85      1.0  0.51117  0.85438  0.44619  1.0000
  H   H713      1.0  0.46677  0.97964  0.02664  1.0000
  H   H714      1.0  0.44269  0.96443  0.06990  1.0000
  H   H715      1.0  0.22471  0.96273  0.21679  1.0000
  C   C590      1.0  0.38984  0.92445  0.46316  1.0000
  C   C591      1.0  0.42072  0.91978  0.45866  1.0000
  C   C592      1.0  0.47775  0.96868  0.03498  1.0000
  H   H716      1.0  0.47736  0.91438  0.08211  1.0000
  C   C593      1.0  0.40355  0.94741  0.48913  1.0000
  H   H717      1.0  0.45360  0.94833  0.49241  1.0000
  H   H718      1.0  0.50983  0.92745  0.11600  1.0000
  H   H719      1.0  0.19345  0.97015  0.17085  1.0000
  S   S169      1.0  0.51683  0.85680  0.49912  1.0000
  H   H720      1.0  0.27765  0.97538  0.17686  1.0000
  H   H721      1.0  0.06315  0.78843  0.05239  1.0000
  N   N40       1.0  0.39380  0.96160  0.50552  1.0000
  C   C594      1.0  0.02489  0.77131  0.01419  1.0000
  H   H722      1.0  0.11154  0.97988  0.41347  1.0000
  H   H723      1.0  0.02007  0.77812  0.38111  1.0000
  H   H724      1.0  0.50761  0.80150  0.94419  1.0000
  S   S170      1.0  0.45012  0.97898  0.92356  1.0000
  C   C595      1.0  0.48692  0.87109  0.57863  1.0000
  H   H725      1.0  0.41426  0.81502  0.87802  1.0000
  Fe  Fe86      1.0  0.46346  0.96867  0.60536  1.0000
  C   C596      1.0  0.46302  0.91197  0.53895  1.0000
  S   S171      1.0  0.26544  0.75902  0.78885  1.0000
  H   H726      1.0  0.41488  0.87824  0.60780  1.0000
  C   C597      1.0  0.51282  0.92225  0.96067  1.0000
  C   C598      1.0  0.31712  0.78119  0.88542  1.0000
  C   C599      1.0  0.51318  0.91364  0.79101  1.0000
  H   H727      1.0  0.08526  0.75728  0.88175  1.0000
  H   H728      1.0  0.37122  0.73822  0.76410  1.0000
  C   C600      1.0  0.21891  0.77374  0.72270  1.0000
  C   C601      1.0  0.37001  0.78480  0.86767  1.0000
  Fe  Fe87      1.0  0.48922  0.80081  0.72738  1.0000
  S   S172      1.0  0.48743  0.77529  0.73195  1.0000
  H   H729      1.0  0.29625  0.78533  0.89759  1.0000
  Fe  Fe88      1.0  0.47983  0.80365  0.80007  1.0000
  S   S173      1.0  0.47787  0.77840  0.80918  1.0000
  S   S174      1.0  0.47351  0.82196  0.83707  1.0000
  C   C602      1.0  0.34261  0.78987  0.88408  1.0000
  Fe  Fe89      1.0  0.44748  0.77961  0.76597  1.0000
  S   S175      1.0  0.40972  0.76299  0.76484  1.0000
  H   H730      1.0  0.05527  0.79593  0.00000  1.0000
  S   S176      1.0  0.44704  0.80524  0.75842  1.0000
  H   H731      1.0  0.42811  0.89385  0.64412  1.0000
  H   H732      1.0  0.40731  0.78781  0.81543  1.0000
  S   S177      1.0  0.45043  0.83475  0.54615  1.0000
  H   H733      1.0  0.50064  0.94762  0.56594  1.0000
  H   H734      1.0  0.20429  0.75219  0.68453  1.0000
  C   C603      1.0  0.30544  0.75998  0.78116  1.0000
  N   N41       1.0  0.39682  0.79403  0.86400  1.0000
  H   H735      1.0  0.05845  0.74433  0.63607  1.0000
  S   S178      1.0  0.43902  0.94823  0.59253  1.0000
  H   H736      1.0  0.42747  0.93610  0.83880  1.0000
  H   H737      1.0  0.42085  0.80552  0.82580  1.0000
  Fe  Fe90      1.0  0.23532  0.73921  0.78258  1.0000
  C   C604      1.0  0.40165  0.79804  0.82962  1.0000
  C   C605      1.0  0.31815  0.76729  0.87072  1.0000
  H   H738      1.0  0.38073  0.80425  0.81903  1.0000
  H   H739      1.0  0.42169  0.78156  0.90214  1.0000
  C   C606      1.0  0.42472  0.78511  0.87648  1.0000
  H   H740      1.0  0.46557  0.84665  0.87927  1.0000
  C   C607      1.0  0.46628  0.86448  0.63048  1.0000
  C   C608      1.0  0.43353  0.87693  0.58966  1.0000
  C   C609      1.0  0.41981  0.97029  0.51474  1.0000
  H   H741      1.0  0.44515  0.79190  0.87446  1.0000
  Fe  Fe91      1.0  0.17772  0.73416  0.74458  1.0000
  H   H742      1.0  0.47610  0.84898  0.93686  1.0000
  S   S179      1.0  0.04475  0.74689  0.93152  1.0000
  S   S180      1.0  0.50320  0.82686  0.98523  1.0000
  H   H743      1.0  0.31535  0.73614  0.77299  1.0000
  C   C610      1.0  0.02494  0.74491  0.78267  1.0000
  C   C611      1.0  0.49083  0.95092  0.86620  1.0000
  S   S181      1.0  0.50716  0.81352  0.68262  1.0000
  H   H744      1.0  0.28160  0.78265  0.71247  1.0000
  S   S182      1.0  0.44047  0.90066  0.99800  1.0000
  C   C612      1.0  0.36935  0.76242  0.77076  1.0000
  H   H745      1.0  0.43023  0.88661  0.57164  1.0000
  H   H746      1.0  0.25085  0.74373  0.66518  1.0000
  H   H747      1.0  0.19480  0.77879  0.72455  1.0000
  C   C613      1.0  0.31822  0.77413  0.78251  1.0000
  C   C614      1.0  0.34993  0.77539  0.77716  1.0000
  C   C615      1.0  0.49820  0.89832  0.60921  1.0000
  C   C616      1.0  0.37036  0.77047  0.85341  1.0000
  H   H748      1.0  0.30351  0.78418  0.78792  1.0000
  H   H749      1.0  0.35931  0.78633  0.77818  1.0000
  C   C617      1.0  0.48088  0.82274  0.87865  1.0000
  C   C618      1.0  0.49247  0.81000  0.89730  1.0000
  Fe  Fe92      1.0  0.51773  0.77593  0.77455  1.0000
  C   C619      1.0  0.49261  0.82543  0.94464  1.0000
  C   C620      1.0  0.48050  0.83807  0.92608  1.0000
  C   C621      1.0  0.47468  0.83671  0.89335  1.0000
  C   C622      1.0  0.47070  0.89113  0.61627  1.0000
  H   H750      1.0  0.45233  0.90225  0.53088  1.0000
  C   C623      1.0  0.50062  0.93748  0.95731  1.0000
  H   H751      1.0  0.39005  0.76598  0.83985  1.0000
  C   C624      1.0  0.49108  0.81874  0.64447  1.0000
  C   C625      1.0  0.46072  0.81648  0.63716  1.0000
  C   C626      1.0  0.44891  0.82120  0.60676  1.0000
  C   C627      1.0  0.46722  0.82820  0.58330  1.0000
  C   C628      1.0  0.49775  0.83023  0.59047  1.0000
  H   H752      1.0  0.51229  0.83537  0.57259  1.0000
  H   H753      1.0  0.44626  0.81121  0.65495  1.0000
  H   H754      1.0  0.42530  0.81952  0.60147  1.0000
  C   C629      1.0  0.07580  0.73783  0.65036  1.0000
  C   C630      1.0  0.39342  0.80851  0.88104  1.0000
  C   C631      1.0  0.11896  0.73707  0.68715  1.0000
  C   C632      1.0  0.47001  0.94115  0.96595  1.0000
  H   H755      1.0  0.33389  0.77079  0.71064  1.0000
  C   C633      1.0  0.46388  0.91449  0.98134  1.0000
  H   H756      1.0  0.46054  0.95285  0.96443  1.0000
  C   C634      1.0  0.49945  0.91806  0.81987  1.0000
  C   C635      1.0  0.45990  0.93540  0.56787  1.0000
  C   C636      1.0  0.49007  0.93770  0.55857  1.0000
  H   H757      1.0  0.45250  0.97703  0.72000  1.0000
  C   C637      1.0  0.47275  0.92647  0.87994  1.0000
  Fe  Fe93      1.0  0.50103  0.97510  0.92988  1.0000
  C   C638      1.0  0.34483  0.76187  0.85507  1.0000
  C   C639      1.0  0.45165  0.92968  0.97758  1.0000
  N   N42       1.0  0.46464  0.87621  0.60381  1.0000
  C   C640      1.0  0.49458  0.91079  0.97286  1.0000
  H   H758      1.0  0.46083  0.85316  0.62241  1.0000
  H   H759      1.0  0.20473  0.79326  0.67173  1.0000
  H   H760      1.0  0.49727  0.79915  0.88658  1.0000
  H   H761      1.0  0.43070  0.77464  0.86322  1.0000
  H   H762      1.0  0.35422  0.95302  0.52997  1.0000
  H   H763      1.0  0.45932  0.91697  0.87301  1.0000
  H   H764      1.0  0.34539  0.75118  0.84314  1.0000
  S   S183      1.0  0.51328  0.96802  0.61788  1.0000
  H   H765      1.0  0.21227  0.76232  0.64713  1.0000
  C   C641      1.0  0.49359  0.91398  0.53072  1.0000
  H   H766      1.0  0.46167  0.93085  0.90219  1.0000
  C   C642      1.0  0.22850  0.78766  0.67301  1.0000
  C   C643      1.0  0.32477  0.74709  0.77422  1.0000
  C   C644      1.0  0.35649  0.74832  0.76916  1.0000
  H   H767      1.0  0.48773  0.87984  0.55859  1.0000
  H   H768      1.0  0.42957  0.86627  0.57746  1.0000
  C   C645      1.0  0.09168  0.74529  0.88687  1.0000
  C   C646      1.0  0.44133  0.94488  0.84835  1.0000
  S   S184      1.0  0.18455  0.74513  0.79097  1.0000
  H   H769      1.0  0.09427  0.75772  0.66838  1.0000
  C   C647      1.0  0.32176  0.75091  0.68769  1.0000
  H   H770      1.0  0.48061  0.86046  0.56800  1.0000
  H   H771      1.0  0.34013  0.80057  0.89576  1.0000
  H   H772      1.0  0.12902  0.74436  0.85227  1.0000
  H   H773      1.0  0.34498  0.74555  0.68816  1.0000
  H   H774      1.0  0.43691  0.91886  0.66335  1.0000
  H   H775      1.0  0.37394  0.81629  0.87163  1.0000
  H   H776      1.0  0.39018  0.80635  0.90724  1.0000
  N   N43       1.0  0.47344  0.93866  0.85414  1.0000
  H   H777      1.0  0.44973  0.86742  0.65005  1.0000
  H   H778      1.0  0.37092  0.96783  0.54969  1.0000
  H   H779      1.0  0.08653  0.74740  0.75968  1.0000
  H   H780      1.0  0.49634  0.92185  0.88684  1.0000
  H   H781      1.0  0.02227  0.80931  0.99483  1.0000
  C   C648      1.0  0.48104  0.91981  0.64069  1.0000
  S   S185      1.0  0.51763  0.97983  0.70682  1.0000
  C   C649      1.0  0.50311  0.91244  0.62132  1.0000
  C   C650      1.0  0.20633  0.76368  0.67280  1.0000
  C   C651      1.0  0.26073  0.76473  0.68814  1.0000
  H   H782      1.0  0.50665  0.94775  0.74900  1.0000
  H   H783      1.0  0.42148  0.98044  0.76976  1.0000
  H   H784      1.0  0.42993  0.94898  0.87067  1.0000
  S   S186      1.0  0.14408  0.74693  0.70994  1.0000
  C   C652      1.0  0.48770  0.93341  0.82391  1.0000
  C   C653      1.0  0.31546  0.76516  0.70037  1.0000
  C   C654      1.0  0.45417  0.91295  0.64861  1.0000
  H   H785      1.0  0.38983  0.94897  0.55039  1.0000
  C   C655      1.0  0.09614  0.74538  0.66870  1.0000
  H   H786      1.0  0.51044  0.86845  0.58819  1.0000
  H   H787      1.0  0.48441  0.93105  0.64889  1.0000
  H   H788      1.0  0.42282  0.92086  0.56458  1.0000
  C   C656      1.0  0.50695  0.92693  0.54029  1.0000
  C   C657      1.0  0.28541  0.77191  0.70105  1.0000
  H   H789      1.0  0.02941  0.79378  0.96847  1.0000
  H   H790      1.0  0.51565  0.96964  0.00192  1.0000
  H   H791      1.0  0.23779  0.78706  0.64817  1.0000
  C   C658      1.0  0.49818  0.81135  0.93008  1.0000
  C   C659      1.0  0.11642  0.73798  0.87003  1.0000
  H   H792      1.0  0.23352  0.78093  0.73611  1.0000
  C   C660      1.0  0.07541  0.73723  0.91049  1.0000
  C   C661      1.0  0.44915  0.89875  0.63696  1.0000
  H   H793      1.0  0.24222  0.79547  0.68586  1.0000
  H   H794      1.0  0.21999  0.76243  0.73582  1.0000
  H   H795      1.0  0.49851  0.90928  0.83871  1.0000
  H   H796      1.0  0.29810  0.76077  0.87103  1.0000
  H   H797      1.0  0.48962  0.86303  0.64104  1.0000
  H   H798      1.0  0.18277  0.76954  0.67381  1.0000
  H   H799      1.0  0.10317  0.74128  0.79757  1.0000
  C   C662      1.0  0.44627  0.92260  0.55774  1.0000
  H   H800      1.0  0.48183  0.95458  0.88978  1.0000
  C   C663      1.0  0.49055  0.94389  0.79737  1.0000
  N   N44       1.0  0.22912  0.77221  0.68901  1.0000
  C   C664      1.0  0.29810  0.74346  0.67511  1.0000
  H   H801      1.0  0.11561  0.73196  0.76196  1.0000
  H   H802      1.0  0.50420  0.89910  0.97559  1.0000
  H   H803      1.0  0.42805  0.93266  0.98450  1.0000
  H   H804      1.0  0.43989  0.95488  0.83102  1.0000
  C   C665      1.0  0.26801  0.75024  0.67505  1.0000
  H   H805      1.0  0.48230  0.95573  0.79868  1.0000
  C   C666      1.0  0.50949  0.82560  0.62091  1.0000
  C   C667      1.0  0.37638  0.95770  0.53506  1.0000
  C   C668      1.0  0.50443  0.93939  0.76872  1.0000
  C   C669      1.0  0.04555  0.73365  0.79805  1.0000
  H   H806      1.0  0.48942  0.96134  0.85002  1.0000
  C   C670      1.0  0.03055  0.79703  0.99378  1.0000
  H   H807      1.0  0.51597  0.89350  0.59367  1.0000
  H   H808      1.0  0.43523  0.96350  0.53191  1.0000
  C   C671      1.0  0.09518  0.73719  0.77463  1.0000
  H   H809      1.0  0.02297  0.76676  0.98997  1.0000
  H   H810      1.0  0.51553  0.94705  0.86942  1.0000
  H   H811      1.0  0.02781  0.74828  0.75772  1.0000
  H   H812      1.0  0.41175  0.98088  0.52695  1.0000
  C   C672      1.0  0.51572  0.92429  0.76553  1.0000
  C   C673      1.0  0.46320  0.98026  0.74146  1.0000
  H   H813      1.0  0.30304  0.73225  0.66569  1.0000
  Fe  Fe94      1.0  0.86575  0.99909  0.24486  1.0000
  H   H814      1.0  0.86457  0.02627  0.36374  1.0000
  C   C674      1.0  0.00117  0.00417  0.28444  1.0000
  Fe  Fe95      1.0  0.80093  0.00537  0.21855  1.0000
  S   S187      1.0  0.77941  0.00134  0.26683  1.0000
  S   S188      1.0  0.76530  0.01046  0.18003  1.0000
  Fe  Fe96      1.0  0.81567  0.01494  0.28555  1.0000
  S   S189      1.0  0.80260  0.03456  0.31760  1.0000
  H   H815      1.0  0.62424  0.14904  0.07241  1.0000
  S   S190      1.0  0.83479  0.02065  0.23657  1.0000
  H   H816      1.0  0.61683  0.08055  0.49380  1.0000
  S   S191      1.0  0.69083  0.05573  0.04171  1.0000
  S   S192      1.0  0.91512  0.99763  0.22639  1.0000
  Fe  Fe97      1.0  0.73764  0.05955  0.02273  1.0000
  S   S193      1.0  0.77979  0.05032  0.05078  1.0000
  Fe  Fe98      1.0  0.67826  0.08017  0.02727  1.0000
  S   S194      1.0  0.65394  0.09451  0.06466  1.0000
  C   C675      1.0  0.54778  0.17041  0.12945  1.0000
  H   H817      1.0  0.61300  0.13417  0.04800  1.0000
  C   C676      1.0  0.73121  0.01760  0.01868  1.0000
  S   S195      1.0  0.66058  0.09382  0.45069  1.0000
  H   H818      1.0  0.63187  0.01346  0.35056  1.0000
  S   S196      1.0  0.74056  0.02391  0.45425  1.0000
  H   H819      1.0  0.77668  0.98286  0.13897  1.0000
  C   C677      1.0  0.77034  0.02168  0.14460  1.0000
  C   C678      1.0  0.74498  0.02513  0.12472  1.0000
  C   C679      1.0  0.74779  0.03376  0.09593  1.0000
  C   C680      1.0  0.77597  0.03909  0.08665  1.0000
  C   C681      1.0  0.80151  0.03555  0.10640  1.0000
  C   C682      1.0  0.79873  0.02687  0.13536  1.0000
  H   H820      1.0  0.72308  0.02097  0.13153  1.0000
  H   H821      1.0  0.72811  0.03616  0.08094  1.0000
  H   H822      1.0  0.82347  0.03957  0.09937  1.0000
  H   H823      1.0  0.81848  0.02415  0.15043  1.0000
  C   C683      1.0  0.78554  0.03147  0.35564  1.0000
  C   C684      1.0  0.79015  0.01744  0.37267  1.0000
  C   C685      1.0  0.77643  0.01532  0.40299  1.0000
  C   C686      1.0  0.75820  0.02724  0.41660  1.0000
  C   C687      1.0  0.75430  0.04142  0.40000  1.0000
  C   C688      1.0  0.76800  0.04353  0.36965  1.0000
  H   H824      1.0  0.80462  0.00829  0.36257  1.0000
  H   H825      1.0  0.78006  0.00443  0.41604  1.0000
  H   H826      1.0  0.74031  0.05069  0.41025  1.0000
  H   H827      1.0  0.76469  0.05449  0.35680  1.0000
  C   C689      1.0  0.84987  0.03034  0.44302  1.0000
  H   H828      1.0  0.60921  0.16703  0.02508  1.0000
  H   H829      1.0  0.94506  0.03883  0.14368  1.0000
  C   C690      1.0  0.94786  0.99967  0.24973  1.0000
  C   C691      1.0  0.94536  0.00375  0.28157  1.0000
  C   C692      1.0  0.97191  0.00603  0.29879  1.0000
  H   H830      1.0  0.84373  0.05310  0.36155  1.0000
  C   C693      1.0  0.97714  0.99776  0.23544  1.0000
  C   C694      1.0  0.85978  0.02345  0.41489  1.0000
  C   C695      1.0  0.60453  0.14268  0.06563  1.0000
  H   H831      1.0  0.80851  0.99715  0.10089  1.0000
  H   H832      1.0  0.92294  0.00531  0.29278  1.0000
  C   C696      1.0  0.78615  0.99414  0.09365  1.0000
  C   C697      1.0  0.55887  0.10664  0.46925  1.0000
  C   C698      1.0  0.57427  0.11418  0.44449  1.0000
  C   C699      1.0  0.60535  0.10985  0.43816  1.0000
  C   C700      1.0  0.62085  0.09783  0.45614  1.0000
  C   C701      1.0  0.68449  0.00493  0.40860  1.0000
  N   N45       1.0  0.72479  0.98286  0.34197  1.0000
  H   H833      1.0  0.56255  0.12362  0.43092  1.0000
  H   H834      1.0  0.61755  0.11599  0.41965  1.0000
  C   C702      1.0  0.55273  0.14423  0.04609  1.0000
  C   C703      1.0  0.56430  0.10648  0.08266  1.0000
  C   C704      1.0  0.59597  0.10286  0.08620  1.0000
  C   C705      1.0  0.61409  0.09805  0.06012  1.0000
  C   C706      1.0  0.60042  0.09678  0.03054  1.0000
  C   C707      1.0  0.56884  0.10058  0.02689  1.0000
  H   H835      1.0  0.75328  0.02265  0.02267  1.0000
  H   H836      1.0  0.60644  0.10381  0.10917  1.0000
  N   N46       1.0  0.70742  0.07233  0.13832  1.0000
  C   C708      1.0  0.69186  0.08684  0.14908  1.0000
  C   C709      1.0  0.72643  0.07615  0.10977  1.0000
  C   C710      1.0  0.68378  0.06246  0.12810  1.0000
  C   C711      1.0  0.72530  0.06446  0.16493  1.0000
  C   C712      1.0  0.75748  0.06057  0.16288  1.0000
  C   C713      1.0  0.71040  0.06032  0.19408  1.0000
  C   C714      1.0  0.77350  0.05309  0.18854  1.0000
  C   C715      1.0  0.72666  0.05279  0.21950  1.0000
  C   C716      1.0  0.75814  0.04916  0.21672  1.0000
  H   H837      1.0  0.70876  0.09431  0.15829  1.0000
  H   H838      1.0  0.67919  0.09334  0.12920  1.0000
  H   H839      1.0  0.67458  0.08497  0.16827  1.0000
  H   H840      1.0  0.74443  0.08379  0.11552  1.0000
  H   H841      1.0  0.71240  0.08218  0.09034  1.0000
  H   H842      1.0  0.73765  0.06574  0.09926  1.0000
  H   H843      1.0  0.66674  0.06018  0.14729  1.0000
  H   H844      1.0  0.67047  0.06781  0.10741  1.0000
  H   H845      1.0  0.69449  0.05123  0.12084  1.0000
  H   H846      1.0  0.77078  0.06285  0.14151  1.0000
  H   H847      1.0  0.68597  0.06275  0.19733  1.0000
  H   H848      1.0  0.79789  0.04991  0.18629  1.0000
  H   H849      1.0  0.71483  0.04957  0.24142  1.0000
  H   H850      1.0  0.77062  0.04309  0.23629  1.0000
  C   C717      1.0  0.00370  0.99996  0.25271  1.0000
  H   H851      1.0  0.93596  0.03345  0.24529  1.0000
  H   H852      1.0  0.76395  0.98902  0.36801  1.0000
  C   C718      1.0  0.70122  0.99237  0.35945  1.0000
  H   H853      1.0  0.87178  0.05722  0.48703  1.0000
  C   C719      1.0  0.56915  0.16469  0.07637  1.0000
  C   C720      1.0  0.00073  0.03969  0.20053  1.0000
  H   H854      1.0  0.71575  0.99290  0.29468  1.0000
  H   H855      1.0  0.98995  0.03641  0.25183  1.0000
  C   C721      1.0  0.74526  0.99559  0.05376  1.0000
  H   H856      1.0  0.82663  0.06561  0.40956  1.0000
  H   H857      1.0  0.55267  0.20319  0.08427  1.0000
  C   C722      1.0  0.93718  0.03605  0.19420  1.0000
  H   H858      1.0  0.56238  0.08858  0.50599  1.0000
  H   H859      1.0  0.77267  0.98352  0.32882  1.0000
  S   S197      1.0  0.52132  0.11287  0.48077  1.0000
  C   C723      1.0  0.83619  0.05395  0.41251  1.0000
  H   H860      1.0  0.75260  0.00181  0.33469  1.0000
  H   H861      1.0  0.79539  0.07063  0.45197  1.0000
  H   H862      1.0  0.85900  0.03962  0.50393  1.0000
  H   H863      1.0  0.55877  0.13558  0.02801  1.0000
  H   H864      1.0  0.71419  0.02240  0.03626  1.0000
  H   H865      1.0  0.53538  0.19404  0.13778  1.0000
  C   C724      1.0  0.70574  0.99550  0.39191  1.0000
  H   H866      1.0  0.91316  0.03405  0.19188  1.0000
  H   H867      1.0  0.66817  0.99726  0.32053  1.0000
  C   C725      1.0  0.84621  0.04693  0.38456  1.0000
  N   N47       1.0  0.57894  0.15323  0.05274  1.0000
  H   H868      1.0  0.96973  0.00930  0.32331  1.0000
  Fe  Fe99      1.0  0.68204  0.07455  0.48235  1.0000
  C   C726      1.0  0.55079  0.10550  0.05287  1.0000
  H   H869      1.0  0.52268  0.03864  0.02812  1.0000
  C   C727      1.0  0.55962  0.15992  0.10755  1.0000
  C   C728      1.0  0.85792  0.03174  0.38572  1.0000
  H   H870      1.0  0.97923  0.99467  0.21080  1.0000
  N   N48       1.0  0.73399  0.00071  0.02153  1.0000
  H   H871      1.0  0.85105  0.02333  0.46492  1.0000
  C   C729      1.0  0.95527  0.03860  0.16713  1.0000
  H   H872      1.0  0.53966  0.16641  0.15273  1.0000
  C   C730      1.0  0.65799  0.01138  0.39370  1.0000
  H   H873      1.0  0.59761  0.13579  0.08706  1.0000
  H   H874      1.0  0.55044  0.11025  0.10283  1.0000
  H   H875      1.0  0.72606  0.99096  0.40459  1.0000
  S   S198      1.0  0.66758  0.05060  0.48379  1.0000
  S   S199      1.0  0.73223  0.06769  0.47593  1.0000
  H   H876      1.0  0.78924  0.00569  0.04819  1.0000
  C   C731      1.0  0.83776  0.04582  0.44274  1.0000
  N   N49       1.0  0.82652  0.05268  0.47278  1.0000
  C   C732      1.0  0.60503  0.08990  0.47999  1.0000
  C   C733      1.0  0.55532  0.19110  0.09104  1.0000
  H   H877      1.0  0.57317  0.18553  0.04570  1.0000
  Fe  Fe100     1.0  0.71832  0.04372  0.48138  1.0000
  C   C734      1.0  0.58949  0.16004  0.02176  1.0000
  H   H878      1.0  0.64298  0.12862  0.50627  1.0000
  H   H879      1.0  0.86822  0.01151  0.41552  1.0000
  C   C735      1.0  0.98142  0.03740  0.22771  1.0000
  C   C736      1.0  0.56711  0.18069  0.06890  1.0000
  H   H880      1.0  0.56031  0.14796  0.11495  1.0000
  S   S200      1.0  0.84911  0.99449  0.29528  1.0000
  H   H881      1.0  0.78210  0.04453  0.46838  1.0000
  H   H882      1.0  0.54479  0.13786  0.06779  1.0000
  C   C737      1.0  0.98653  0.04052  0.17016  1.0000
  H   H883      1.0  0.64180  0.01883  0.40671  1.0000
  C   C738      1.0  0.57422  0.09444  0.48682  1.0000
  C   C739      1.0  0.77485  0.99896  0.06350  1.0000
  C   C740      1.0  0.95012  0.03570  0.22437  1.0000
  H   H884      1.0  0.53261  0.15165  0.03714  1.0000
  C   C741      1.0  0.54541  0.18597  0.12111  1.0000
  S   S201      1.0  0.83295  0.98408  0.22285  1.0000
  C   C742      1.0  0.67371  0.99898  0.34502  1.0000
  C   C743      1.0  0.65252  0.00835  0.36205  1.0000
  C   C744      1.0  0.81521  0.06904  0.46850  1.0000
  H   H885      1.0  0.83362  0.07614  0.45924  1.0000
  H   H886      1.0  0.70379  0.98280  0.01574  1.0000
  C   C745      1.0  0.70349  0.99547  0.01421  1.0000
  C   C746      1.0  0.80080  0.04429  0.48605  1.0000
  C   C747      1.0  0.72744  0.98742  0.07640  1.0000
  H   H887      1.0  0.68520  0.00038  0.03039  1.0000
  C   C748      1.0  0.73891  0.98279  0.10665  1.0000
  C   C749      1.0  0.75467  0.98961  0.34348  1.0000
  H   H888      1.0  0.68889  0.00746  0.43315  1.0000
  H   H889      1.0  0.99964  0.04237  0.14845  1.0000
  H   H890      1.0  0.80681  0.07384  0.49148  1.0000
  C   C750      1.0  0.76821  0.98610  0.11519  1.0000
  H   H891      1.0  0.70445  0.98462  0.07155  1.0000
  H   H892      1.0  0.53715  0.05619  0.01315  1.0000
  C   C751      1.0  0.85141  0.05162  0.49664  1.0000
  H   H893      1.0  0.80758  0.03207  0.49223  1.0000
  H   H894      1.0  0.59332  0.00895  0.50975  1.0000
  H   H895      1.0  0.64612  0.10833  0.51064  1.0000
  H   H896      1.0  0.79094  0.04932  0.50821  1.0000
  H   H897      1.0  0.52116  0.06597  0.50806  1.0000
  C   C752      1.0  0.71776  0.98152  0.30767  1.0000
  C   C753      1.0  0.00325  0.15386  0.78351  1.0000
  S   S202      1.0  0.53979  0.02843  0.90213  1.0000
  C   C754      1.0  0.82798  0.22692  0.72437  1.0000
  H   H898      1.0  0.64448  0.13530  0.59282  1.0000
  Fe  Fe101     1.0  0.71195  0.07785  0.96331  1.0000
  S   S203      1.0  0.71805  0.09349  0.91914  1.0000
  C   C755      1.0  0.73176  0.14438  0.88635  1.0000
  N   N50       1.0  0.64862  0.11942  0.55500  1.0000
  Fe  Fe102     1.0  0.67446  0.05138  0.53676  1.0000
  S   S204      1.0  0.64312  0.04391  0.57688  1.0000
  Fe  Fe103     1.0  0.73425  0.06693  0.52957  1.0000
  S   S205      1.0  0.77631  0.07396  0.55446  1.0000
  S   S206      1.0  0.68527  0.07596  0.53549  1.0000
  S   S207      1.0  0.72390  0.04240  0.53475  1.0000
  Fe  Fe104     1.0  0.82237  0.10399  0.77087  1.0000
  S   S208      1.0  0.78517  0.12214  0.75806  1.0000
  S   S209      1.0  0.81458  0.08396  0.80541  1.0000
  Fe  Fe105     1.0  0.86897  0.11818  0.72549  1.0000
  S   S210      1.0  0.83451  0.13719  0.70866  1.0000
  S   S211      1.0  0.91644  0.11956  0.70344  1.0000
  Fe  Fe106     1.0  0.82166  0.13854  0.76041  1.0000
  S   S212      1.0  0.81743  0.16014  0.78786  1.0000
  Fe  Fe107     1.0  0.80143  0.11894  0.70738  1.0000
  S   S213      1.0  0.76363  0.11757  0.67141  1.0000
  S   S214      1.0  0.85801  0.12060  0.77752  1.0000
  S   S215      1.0  0.83677  0.09974  0.71998  1.0000
  C   C756      1.0  0.94965  0.11764  0.72717  1.0000
  C   C757      1.0  0.95039  0.10937  0.75652  1.0000
  C   C758      1.0  0.97750  0.10778  0.77446  1.0000
  C   C759      1.0  0.82581  0.10585  0.89186  1.0000
  C   C760      1.0  0.99553  0.17937  0.75990  1.0000
  C   C761      1.0  0.97585  0.12465  0.71633  1.0000
  H   H899      1.0  0.93030  0.10393  0.76510  1.0000
  H   H900      1.0  0.97812  0.10114  0.79691  1.0000
  H   H901      1.0  0.01365  0.09325  0.64524  1.0000
  H   H902      1.0  0.97518  0.13133  0.69394  1.0000
  C   C762      1.0  0.79473  0.17582  0.77074  1.0000
  C   C763      1.0  0.78480  0.17580  0.73923  1.0000
  C   C764      1.0  0.76771  0.18864  0.72562  1.0000
  C   C765      1.0  0.76953  0.20143  0.77527  1.0000
  C   C766      1.0  0.78712  0.18867  0.78874  1.0000
  H   H903      1.0  0.79052  0.16597  0.72515  1.0000
  C   C767      1.0  0.00275  0.12330  0.73457  1.0000
  H   H904      1.0  0.79480  0.18877  0.81313  1.0000
  C   C768      1.0  0.77243  0.08592  0.58726  1.0000
  C   C769      1.0  0.74393  0.09294  0.59613  1.0000
  C   C770      1.0  0.74172  0.10256  0.62204  1.0000
  C   C771      1.0  0.76778  0.10516  0.63945  1.0000
  C   C772      1.0  0.79620  0.09792  0.63103  1.0000
  C   C773      1.0  0.79852  0.08840  0.60489  1.0000
  H   H905      1.0  0.72364  0.09094  0.58309  1.0000
  H   H906      1.0  0.71978  0.10801  0.62882  1.0000
  H   H907      1.0  0.81648  0.09988  0.64423  1.0000
  H   H908      1.0  0.82064  0.08300  0.59822  1.0000
  C   C774      1.0  0.74335  0.08946  0.88673  1.0000
  C   C775      1.0  0.76637  0.07744  0.88826  1.0000
  C   C776      1.0  0.78780  0.07568  0.86294  1.0000
  C   C777      1.0  0.78658  0.08600  0.83621  1.0000
  C   C778      1.0  0.76296  0.09768  0.83431  1.0000
  C   C779      1.0  0.74135  0.09931  0.85934  1.0000
  H   H909      1.0  0.76811  0.06976  0.90922  1.0000
  H   H910      1.0  0.80585  0.06651  0.86446  1.0000
  H   H911      1.0  0.76137  0.10545  0.81361  1.0000
  H   H912      1.0  0.72324  0.10842  0.85782  1.0000
  C   C780      1.0  0.57194  0.02858  0.92673  1.0000
  C   C781      1.0  0.58823  0.04166  0.92662  1.0000
  C   C782      1.0  0.61421  0.04196  0.94584  1.0000
  C   C783      1.0  0.62404  0.02911  0.96507  1.0000
  C   C784      1.0  0.60752  0.01610  0.96545  1.0000
  C   C785      1.0  0.58144  0.01584  0.94641  1.0000
  H   H913      1.0  0.58098  0.05153  0.91136  1.0000
  H   H914      1.0  0.62694  0.05200  0.94528  1.0000
  C   C786      1.0  0.57434  0.00889  0.55750  1.0000
  C   C787      1.0  0.57567  0.01502  0.58756  1.0000
  C   C788      1.0  0.59673  0.02582  0.59314  1.0000
  C   C789      1.0  0.61668  0.03052  0.56876  1.0000
  C   C790      1.0  0.61529  0.02446  0.53863  1.0000
  C   C791      1.0  0.59416  0.01368  0.53303  1.0000
  H   H915      1.0  0.56093  0.01125  0.60672  1.0000
  H   H916      1.0  0.69372  0.10949  0.54299  1.0000
  C   C792      1.0  0.78243  0.13069  0.87546  1.0000
  H   H917      1.0  0.90189  0.18708  0.77447  1.0000
  S   S216      1.0  0.66284  0.07496  0.97845  1.0000
  H   H918      1.0  0.80728  0.22034  0.72700  1.0000
  S   S217      1.0  0.65721  0.02879  0.98837  1.0000
  H   H919      1.0  0.63885  0.14385  0.55350  1.0000
  H   H920      1.0  0.72002  0.13359  0.88602  1.0000
  H   H921      1.0  0.96356  0.14184  0.79263  1.0000
  H   H922      1.0  0.61103  0.11924  0.52185  1.0000
  H   H923      1.0  0.84170  0.09601  0.89743  1.0000
  C   C793      1.0  0.52610  0.04594  0.00610  1.0000
  C   C794      1.0  0.65478  0.10395  0.60701  1.0000
  H   H924      1.0  0.84374  0.05725  0.51903  1.0000
  H   H925      1.0  0.76917  0.14332  0.81499  1.0000
  H   H926      1.0  0.60953  0.13313  0.57216  1.0000
  H   H927      1.0  0.84998  0.11244  0.84917  1.0000
  H   H928      1.0  0.61507  0.00612  0.98025  1.0000
  N   N51       1.0  0.75522  0.06945  0.72864  1.0000
  C   C795      1.0  0.73995  0.06769  0.76041  1.0000
  C   C796      1.0  0.78546  0.06049  0.73040  1.0000
  C   C797      1.0  0.76049  0.08580  0.72321  1.0000
  C   C798      1.0  0.73731  0.06441  0.70186  1.0000
  C   C799      1.0  0.74890  0.06549  0.67003  1.0000
  C   C800      1.0  0.70824  0.05834  0.70628  1.0000
  C   C801      1.0  0.73262  0.06068  0.64437  1.0000
  C   C802      1.0  0.69208  0.05366  0.68035  1.0000
  C   C803      1.0  0.70424  0.05482  0.64948  1.0000
  H   H929      1.0  0.75418  0.07158  0.77990  1.0000
  H   H930      1.0  0.71760  0.07468  0.76133  1.0000
  H   H931      1.0  0.73626  0.05554  0.76675  1.0000
  H   H932      1.0  0.78264  0.04804  0.73345  1.0000
  H   H933      1.0  0.79921  0.06375  0.75088  1.0000
  H   H934      1.0  0.79979  0.06235  0.70863  1.0000
  H   H935      1.0  0.73853  0.09296  0.71946  1.0000
  H   H936      1.0  0.77233  0.09022  0.74375  1.0000
  H   H937      1.0  0.77524  0.08786  0.70188  1.0000
  H   H938      1.0  0.77068  0.07011  0.66465  1.0000
  H   H939      1.0  0.69750  0.05704  0.72950  1.0000
  H   H940      1.0  0.74208  0.06149  0.62029  1.0000
  H   H941      1.0  0.67006  0.04896  0.68416  1.0000
  H   H942      1.0  0.69171  0.05110  0.62944  1.0000
  C   C804      1.0  0.80032  0.10899  0.91145  1.0000
  H   H943      1.0  0.81387  0.13430  0.83526  1.0000
  H   H944      1.0  0.54001  0.04073  0.53008  1.0000
  Fe  Fe108     1.0  0.68001  0.05075  0.99146  1.0000
  H   H945      1.0  0.75916  0.12251  0.91931  1.0000
  H   H946      1.0  0.00510  0.18969  0.75051  1.0000
  C   C805      1.0  0.75010  0.14231  0.83253  1.0000
  C   C806      1.0  0.63481  0.13354  0.56901  1.0000
  H   H947      1.0  0.53260  0.98792  0.76941  1.0000
  H   H948      1.0  0.73697  0.14653  0.91157  1.0000
  N   N52       1.0  0.91723  0.16319  0.77312  1.0000
  C   C807      1.0  0.89853  0.17695  0.76041  1.0000
  C   C808      1.0  0.91025  0.15026  0.75380  1.0000
  C   C809      1.0  0.90699  0.16004  0.80656  1.0000
  C   C810      1.0  0.63655  0.11885  0.52216  1.0000
  H   H949      1.0  0.94992  0.18814  0.75074  1.0000
  H   H950      1.0  0.59573  0.22841  0.88636  1.0000
  H   H951      1.0  0.01329  0.09541  0.68768  1.0000
  H   H952      1.0  0.68831  0.12970  0.53467  1.0000
  H   H953      1.0  0.75843  0.16818  0.86120  1.0000
  H   H954      1.0  0.87346  0.17532  0.76165  1.0000
  H   H955      1.0  0.90404  0.17953  0.73479  1.0000
  H   H956      1.0  0.92008  0.15136  0.72918  1.0000
  H   H957      1.0  0.88510  0.14946  0.75152  1.0000
  H   H958      1.0  0.91956  0.13909  0.76455  1.0000
  C   C811      1.0  0.95074  0.16479  0.77223  1.0000
  H   H959      1.0  0.91278  0.16924  0.82219  1.0000
  H   H960      1.0  0.74734  0.99787  0.97220  1.0000
  H   H961      1.0  0.88171  0.15916  0.80819  1.0000
  H   H962      1.0  0.55849  0.09990  0.00376  1.0000
  H   H963      1.0  0.66849  0.11235  0.61628  1.0000
  H   H964      1.0  0.52482  0.03817  0.78153  1.0000
  H   H965      1.0  0.56915  0.00567  0.94643  1.0000
  H   H966      1.0  0.76043  0.18862  0.70105  1.0000
  H   H967      1.0  0.59781  0.03038  0.61656  1.0000
  S   S218      1.0  0.54826  0.99525  0.54977  1.0000
  H   H968      1.0  0.69336  0.12247  0.57475  1.0000
  C   C812      1.0  0.61801  0.08194  0.58663  1.0000
  H   H969      1.0  0.78233  0.15956  0.89300  1.0000
  C   C813      1.0  0.96373  0.17828  0.76020  1.0000
  C   C814      1.0  0.77448  0.15814  0.86826  1.0000
  H   H970      1.0  0.63067  0.02794  0.51973  1.0000
  C   C815      1.0  0.65067  0.09084  0.62637  1.0000
  C   C816      1.0  0.77888  0.12121  0.90356  1.0000
  C   C817      1.0  0.68237  0.12031  0.55186  1.0000
  H   H971      1.0  0.60413  0.07322  0.57857  1.0000
  C   C818      1.0  0.75989  0.20146  0.74357  1.0000
  C   C819      1.0  0.97156  0.15258  0.78367  1.0000
  H   H972      1.0  0.76379  0.21130  0.78923  1.0000
  H   H973      1.0  0.71482  0.15383  0.87802  1.0000
  H   H974      1.0  0.01241  0.11185  0.66147  1.0000
  H   H975      1.0  0.79637  0.10150  0.93221  1.0000
  C   C820      1.0  0.64182  0.10607  0.57610  1.0000
  H   H976      1.0  0.61065  0.09569  0.54442  1.0000
  H   H977      1.0  0.66185  0.08918  0.64933  1.0000
  H   H978      1.0  0.74052  0.13117  0.82933  1.0000
  H   H979      1.0  0.73229  0.15153  0.82515  1.0000
  S   S219      1.0  0.72801  0.05310  0.97269  1.0000
  C   C821      1.0  0.63261  0.07977  0.61597  1.0000
  H   H980      1.0  0.91775  0.14906  0.81697  1.0000
  H   H981      1.0  0.72316  0.02183  0.99455  1.0000
  C   C822      1.0  0.62226  0.09492  0.56698  1.0000
  H   H982      1.0  0.54317  0.03958  0.99058  1.0000
  C   C823      1.0  0.80922  0.12745  0.85661  1.0000
  H   H983      1.0  0.79489  0.15870  0.85221  1.0000
  C   C824      1.0  0.83034  0.11511  0.86459  1.0000
  H   H984      1.0  0.84299  0.22310  0.74491  1.0000
  C   C825      1.0  0.00383  0.11464  0.76347  1.0000
  N   N53       1.0  0.75994  0.14359  0.86601  1.0000
  H   H985      1.0  0.63000  0.06939  0.63045  1.0000
  S   S220      1.0  0.74021  0.21765  0.72465  1.0000
  H   H986      1.0  0.77850  0.99990  0.99795  1.0000
  H   H987      1.0  0.83938  0.22344  0.70167  1.0000
  H   H988      1.0  0.57067  0.16732  0.00961  1.0000
  H   H989      1.0  0.01868  0.14437  0.79245  1.0000
  C   C826      1.0  0.01524  0.16720  0.77157  1.0000
  H   H990      1.0  0.76026  0.98227  0.99943  1.0000
  C   C827      1.0  0.75601  0.99491  0.99679  1.0000
  H   H991      1.0  0.69593  0.99935  0.98962  1.0000
  H   H992      1.0  0.61426  0.09324  0.01026  1.0000
  S   S221      1.0  0.72617  0.08464  0.01176  1.0000
  H   H993      1.0  0.59728  0.15109  0.00485  1.0000
  H   H994      1.0  0.59722  0.30016  0.23286  1.0000
  H   H995      1.0  0.84405  0.43302  0.49958  1.0000
  N   N54       1.0  0.76133  0.46886  0.35045  1.0000
  S   S222      1.0  0.58390  0.27869  0.28573  1.0000
  H   H996      1.0  0.80768  0.45323  0.13039  1.0000
  H   H997      1.0  0.74606  0.35066  0.14606  1.0000
  C   C828      1.0  0.81298  0.47625  0.09199  1.0000
  C   C829      1.0  0.53356  0.47331  0.26885  1.0000
  H   H998      1.0  0.94164  0.40741  0.01738  1.0000
  H   H999      1.0  0.54888  0.32968  0.32068  1.0000
  C   C830      1.0  0.73873  0.46243  0.40551  1.0000
  S   S223      1.0  0.63927  0.45693  0.24657  1.0000
  C   C831      1.0  0.57039  0.28379  0.02037  1.0000
  H   H1000     1.0  0.98014  0.33873  0.19283  1.0000
  H   H1001     1.0  0.58313  0.28480  0.07905  1.0000
  H   H1002     1.0  0.56031  0.29688  0.34627  1.0000
  Fe  Fe109     1.0  0.01011  0.35782  0.50034  1.0000
  S   S224      1.0  0.95913  0.37845  0.04825  1.0000
  Fe  Fe110     1.0  0.68296  0.45700  0.27397  1.0000
  S   S225      1.0  0.72373  0.43963  0.26971  1.0000
  S   S226      1.0  0.98556  0.31675  0.48889  1.0000
  S   S227      1.0  0.65972  0.46533  0.31874  1.0000
  Fe  Fe111     1.0  0.74244  0.32377  0.27537  1.0000
  S   S228      1.0  0.74682  0.32933  0.32687  1.0000
  S   S229      1.0  0.70129  0.31563  0.24931  1.0000
  Fe  Fe112     1.0  0.79860  0.34170  0.25527  1.0000
  S   S230      1.0  0.80509  0.34950  0.30485  1.0000
  S   S231      1.0  0.82862  0.35076  0.21503  1.0000
  Fe  Fe113     1.0  0.79814  0.32520  0.31993  1.0000
  S   S232      1.0  0.83316  0.31184  0.35230  1.0000
  Fe  Fe114     1.0  0.75361  0.35315  0.30755  1.0000
  S   S233      1.0  0.72207  0.37188  0.32844  1.0000
  S   S234      1.0  0.79349  0.31720  0.26988  1.0000
  S   S235      1.0  0.74777  0.34783  0.25659  1.0000
  Fe  Fe115     1.0  0.96217  0.33916  0.47044  1.0000
  S   S236      1.0  0.91584  0.34516  0.44686  1.0000
  Fe  Fe116     1.0  0.96230  0.32604  0.09644  1.0000
  S   S237      1.0  0.92733  0.31442  0.12806  1.0000
  S   S238      1.0  0.95336  0.33684  0.04738  1.0000
  C   C832      1.0  0.85718  0.34030  0.19273  1.0000
  C   C833      1.0  0.87693  0.34835  0.17264  1.0000
  C   C834      1.0  0.89918  0.34057  0.15346  1.0000
  C   C835      1.0  0.90164  0.32463  0.15392  1.0000
  C   C836      1.0  0.88235  0.31655  0.17456  1.0000
  C   C837      1.0  0.86034  0.32433  0.19405  1.0000
  H   H1003     1.0  0.87472  0.36070  0.17148  1.0000
  H   H1004     1.0  0.91381  0.34693  0.13760  1.0000
  H   H1005     1.0  0.88417  0.30421  0.17507  1.0000
  H   H1006     1.0  0.84572  0.31794  0.20975  1.0000
  C   C838      1.0  0.85669  0.32123  0.37784  1.0000
  C   C839      1.0  0.84987  0.33653  0.38463  1.0000
  C   C840      1.0  0.86841  0.34361  0.40567  1.0000
  C   C841      1.0  0.89424  0.33559  0.41978  1.0000
  C   C842      1.0  0.90150  0.32035  0.41257  1.0000
  C   C843      1.0  0.88264  0.31319  0.39183  1.0000
  H   H1007     1.0  0.82989  0.34284  0.37424  1.0000
  H   H1008     1.0  0.86257  0.35539  0.41115  1.0000
  H   H1009     1.0  0.92143  0.31406  0.42309  1.0000
  H   H1010     1.0  0.88814  0.30135  0.38662  1.0000
  C   C844      1.0  0.78871  0.45991  0.33783  1.0000
  Fe  Fe117     1.0  0.98150  0.35523  0.06343  1.0000
  H   H1011     1.0  0.74658  0.47242  0.41585  1.0000
  C   C845      1.0  0.71586  0.43627  0.38299  1.0000
  S   S239      1.0  0.69302  0.48045  0.25539  1.0000
  C   C846      1.0  0.72195  0.42071  0.28509  1.0000
  C   C847      1.0  0.74522  0.40961  0.27683  1.0000
  C   C848      1.0  0.74514  0.39452  0.28950  1.0000
  C   C849      1.0  0.72209  0.39053  0.31105  1.0000
  C   C850      1.0  0.69878  0.40163  0.31934  1.0000
  C   C851      1.0  0.69854  0.41666  0.30616  1.0000
  H   H1012     1.0  0.76343  0.41269  0.26060  1.0000
  H   H1013     1.0  0.76323  0.38606  0.28306  1.0000
  H   H1014     1.0  0.68094  0.39862  0.33607  1.0000
  H   H1015     1.0  0.68056  0.42517  0.31271  1.0000
  C   C852      1.0  0.55123  0.43245  0.25830  1.0000
  H   H1016     1.0  0.94002  0.35006  0.38095  1.0000
  H   H1017     1.0  0.89166  0.35562  0.28613  1.0000
  S   S240      1.0  0.00513  0.31254  0.07969  1.0000
  C   C853      1.0  0.56556  0.27206  0.42671  1.0000
  H   H1018     1.0  0.73741  0.44575  0.19979  1.0000
  H   H1019     1.0  0.55873  0.26893  0.34575  1.0000
  C   C854      1.0  0.98093  0.39374  0.03639  1.0000
  H   H1020     1.0  0.88892  0.34800  0.24804  1.0000
  H   H1021     1.0  0.71047  0.47080  0.18462  1.0000
  C   C855      1.0  0.93381  0.33291  0.30961  1.0000
  C   C856      1.0  0.75305  0.34349  0.16773  1.0000
  H   H1022     1.0  0.84894  0.31123  0.49409  1.0000
  C   C857      1.0  0.55117  0.30319  0.05849  1.0000
  C   C858      1.0  0.61516  0.29022  0.27730  1.0000
  C   C859      1.0  0.64050  0.28928  0.29790  1.0000
  C   C860      1.0  0.66662  0.29736  0.29045  1.0000
  C   C861      1.0  0.66816  0.30609  0.26168  1.0000
  C   C862      1.0  0.64276  0.30706  0.24120  1.0000
  C   C863      1.0  0.61627  0.29945  0.24919  1.0000
  H   H1023     1.0  0.64009  0.28209  0.31957  1.0000
  H   H1024     1.0  0.68597  0.29636  0.30642  1.0000
  H   H1025     1.0  0.64362  0.31366  0.21880  1.0000
  C   C864      1.0  0.83348  0.34155  0.10906  1.0000
  H   H1026     1.0  0.80270  0.46708  0.32165  1.0000
  H   H1027     1.0  0.87135  0.33349  0.31336  1.0000
  C   C865      1.0  0.84744  0.32772  0.09942  1.0000
  H   H1028     1.0  0.84656  0.30338  0.10210  1.0000
  H   H1029     1.0  0.76981  0.34950  0.18130  1.0000
  Fe  Fe118     1.0  0.64789  0.48108  0.23089  1.0000
  C   C866      1.0  0.90836  0.30891  0.50865  1.0000
  H   H1030     1.0  0.58224  0.29402  0.13260  1.0000
  C   C867      1.0  0.77417  0.44826  0.16551  1.0000
  H   H1031     1.0  0.73234  0.34292  0.18346  1.0000
  S   S241      1.0  0.98709  0.34529  0.11381  1.0000
  H   H1032     1.0  0.73552  0.44234  0.33797  1.0000
  H   H1033     1.0  0.94536  0.32692  0.24601  1.0000
  C   C868      1.0  0.98277  0.32502  0.33618  1.0000
  C   C869      1.0  0.74408  0.47660  0.14880  1.0000
  C   C870      1.0  0.90425  0.34805  0.26903  1.0000
  C   C871      1.0  0.56900  0.30043  0.11403  1.0000
  N   N55       1.0  0.91195  0.33240  0.28306  1.0000
  H   H1034     1.0  0.83187  0.47397  0.10950  1.0000
  S   S242      1.0  0.57333  0.45965  0.31444  1.0000
  H   H1035     1.0  0.53300  0.24816  0.44234  1.0000
  H   H1036     1.0  0.92834  0.31059  0.26510  1.0000
  C   C872      1.0  0.92397  0.32277  0.25677  1.0000
  H   H1037     1.0  0.90729  0.32291  0.23697  1.0000
  H   H1038     1.0  0.56134  0.25324  0.39529  1.0000
  H   H1039     1.0  0.86650  0.32521  0.27603  1.0000
  C   C873      1.0  0.92616  0.34215  0.33587  1.0000
  H   H1040     1.0  0.73554  0.46489  0.30836  1.0000
  H   H1041     1.0  0.97052  0.31672  0.29202  1.0000
  N   N56       1.0  0.56826  0.26230  0.45652  1.0000
  H   H1042     1.0  0.54274  0.43853  0.20885  1.0000
  H   H1043     1.0  0.90418  0.34867  0.33741  1.0000
  N   N57       1.0  0.64273  0.35143  0.30157  1.0000
  C   C874      1.0  0.64679  0.36798  0.30313  1.0000
  C   C875      1.0  0.67092  0.34262  0.31342  1.0000
  C   C876      1.0  0.63953  0.34825  0.26735  1.0000
  C   C877      1.0  0.61630  0.34726  0.32175  1.0000
  C   C878      1.0  0.59208  0.33922  0.31019  1.0000
  C   C879      1.0  0.61463  0.35091  0.35442  1.0000
  C   C880      1.0  0.56730  0.33568  0.32992  1.0000
  C   C881      1.0  0.58970  0.34731  0.37389  1.0000
  C   C882      1.0  0.56595  0.33983  0.36155  1.0000
  H   H1044     1.0  0.62536  0.37505  0.29654  1.0000
  H   H1045     1.0  0.65366  0.37111  0.32722  1.0000
  H   H1046     1.0  0.66557  0.37158  0.28684  1.0000
  H   H1047     1.0  0.67659  0.34539  0.33815  1.0000
  H   H1048     1.0  0.69118  0.34515  0.29830  1.0000
  H   H1049     1.0  0.66871  0.33009  0.31323  1.0000
  H   H1050     1.0  0.61856  0.35447  0.25692  1.0000
  H   H1051     1.0  0.65960  0.35169  0.25279  1.0000
  H   H1052     1.0  0.63872  0.33584  0.26407  1.0000
  H   H1053     1.0  0.59170  0.33546  0.28606  1.0000
  H   H1054     1.0  0.63275  0.35650  0.36518  1.0000
  H   H1055     1.0  0.58900  0.24188  0.43527  1.0000
  C   C883      1.0  0.53308  0.43424  0.23118  1.0000
  H   H1056     1.0  0.84399  0.35204  0.10260  1.0000
  C   C884      1.0  0.59370  0.25018  0.45335  1.0000
  H   H1057     1.0  0.78577  0.43723  0.17227  1.0000
  H   H1058     1.0  0.56639  0.29445  0.44777  1.0000
  C   C885      1.0  0.53881  0.42722  0.28719  1.0000
  Fe  Fe119     1.0  0.99830  0.32513  0.03185  1.0000
  H   H1059     1.0  0.79830  0.35296  0.13598  1.0000
  H   H1060     1.0  0.00455  0.31817  0.33686  1.0000
  H   H1061     1.0  0.88802  0.31464  0.30732  1.0000
  C   C886      1.0  0.88332  0.32618  0.29540  1.0000
  C   C887      1.0  0.00396  0.31759  0.18027  1.0000
  C   C888      1.0  0.56170  0.29005  0.36855  1.0000
  C   C889      1.0  0.53347  0.32172  0.09814  1.0000
  H   H1062     1.0  0.70700  0.42610  0.37422  1.0000
  H   H1063     1.0  0.80940  0.46557  0.07984  1.0000
  H   H1064     1.0  0.86872  0.32747  0.08570  1.0000
  C   C890      1.0  0.53924  0.25497  0.46254  1.0000
  H   H1065     1.0  0.78241  0.45030  0.32356  1.0000
  Fe  Fe120     1.0  0.61634  0.46738  0.28963  1.0000
  H   H1066     1.0  0.92528  0.35351  0.26093  1.0000
  C   C891      1.0  0.00022  0.33087  0.19714  1.0000
  S   S243      1.0  0.00558  0.34863  0.45169  1.0000
  C   C892      1.0  0.94645  0.34295  0.36109  1.0000
  C   C893      1.0  0.96284  0.32428  0.31054  1.0000
  H   H1067     1.0  0.69769  0.43272  0.43052  1.0000
  C   C894      1.0  0.72206  0.45301  0.42587  1.0000
  N   N58       1.0  0.76605  0.32803  0.15936  1.0000
  C   C895      1.0  0.77405  0.31936  0.18967  1.0000
  C   C896      1.0  0.74154  0.32052  0.14359  1.0000
  C   C897      1.0  0.79361  0.32821  0.13834  1.0000
  C   C898      1.0  0.80707  0.34189  0.12837  1.0000
  C   C899      1.0  0.80838  0.31432  0.12788  1.0000
  C   C900      1.0  0.77175  0.47217  0.13236  1.0000
  C   C901      1.0  0.83494  0.31413  0.10883  1.0000
  H   H1068     1.0  0.56370  0.30932  0.39763  1.0000
  H   H1069     1.0  0.79261  0.32465  0.20188  1.0000
  H   H1070     1.0  0.75404  0.31914  0.20644  1.0000
  H   H1071     1.0  0.78215  0.30727  0.18608  1.0000
  H   H1072     1.0  0.73567  0.32635  0.12005  1.0000
  H   H1073     1.0  0.74826  0.30832  0.13947  1.0000
  H   H1074     1.0  0.72019  0.32062  0.15855  1.0000
  C   C902      1.0  0.74690  0.45300  0.18107  1.0000
  H   H1075     1.0  0.79996  0.30345  0.13503  1.0000
  H   H1076     1.0  0.55372  0.47666  0.25590  1.0000
  C   C903      1.0  0.71065  0.43996  0.41466  1.0000
  H   H1077     1.0  0.78798  0.47930  0.38516  1.0000
  N   N59       1.0  0.54982  0.29776  0.02566  1.0000
  H   H1078     1.0  0.80363  0.45496  0.35764  1.0000
  H   H1079     1.0  0.71777  0.45598  0.45047  1.0000
  C   C904      1.0  0.73234  0.44565  0.36239  1.0000
  H   H1080     1.0  0.91505  0.31538  0.48643  1.0000
  C   C905      1.0  0.56562  0.28824  0.42624  1.0000
  H   H1081     1.0  0.61556  0.25521  0.44644  1.0000
  C   C906      1.0  0.97460  0.33434  0.36136  1.0000
  C   C907      1.0  0.53674  0.46502  0.29807  1.0000
  C   C908      1.0  0.56393  0.29701  0.39746  1.0000
  H   H1082     1.0  0.57478  0.43552  0.25722  1.0000
  H   H1083     1.0  0.86579  0.32845  0.48232  1.0000
  C   C909      1.0  0.56916  0.29522  0.08300  1.0000
  H   H1084     1.0  0.54089  0.24693  0.48393  1.0000
  Fe  Fe121     1.0  0.53426  0.28705  0.27415  1.0000
  C   C910      1.0  0.53329  0.31659  0.06709  1.0000
  C   C911      1.0  0.55120  0.31363  0.12156  1.0000
  H   H1085     1.0  0.98690  0.31514  0.16310  1.0000
  H   H1086     1.0  0.55038  0.31737  0.14588  1.0000
  C   C912      1.0  0.56073  0.27429  0.36831  1.0000
  H   H1087     1.0  0.55291  0.42632  0.30839  1.0000
  C   C913      1.0  0.74425  0.45905  0.37296  1.0000
  C   C914      1.0  0.78654  0.45763  0.14143  1.0000
  C   C915      1.0  0.56245  0.26540  0.39687  1.0000
  H   H1088     1.0  0.58877  0.35033  0.39869  1.0000
  H   H1089     1.0  0.59486  0.28573  0.02422  1.0000
  H   H1090     1.0  0.55524  0.27931  0.49080  1.0000
  S   S244      1.0  0.52857  0.31235  0.26622  1.0000
  C   C916      1.0  0.57464  0.27083  0.48511  1.0000
  H   H1091     1.0  0.59763  0.24326  0.47615  1.0000
  H   H1092     1.0  0.59593  0.27689  0.48184  1.0000
  C   C917      1.0  0.96615  0.40681  0.02116  1.0000
  H   H1093     1.0  0.51979  0.26366  0.46674  1.0000
  C   C918      1.0  0.73182  0.46713  0.17261  1.0000
  C   C919      1.0  0.85800  0.32156  0.50355  1.0000
  H   H1094     1.0  0.98990  0.33476  0.38138  1.0000
  H   H1095     1.0  0.75496  0.47554  0.07099  1.0000
  H   H1096     1.0  0.57787  0.26313  0.50689  1.0000
  H   H1097     1.0  0.90120  0.29770  0.50162  1.0000
  C   C920      1.0  0.74134  0.47431  0.32330  1.0000
  H   H1098     1.0  0.54646  0.33715  0.37649  1.0000
  C   C921      1.0  0.01259  0.39301  0.04127  1.0000
  H   H1099     1.0  0.56404  0.27399  0.03620  1.0000
  H   H1100     1.0  0.71938  0.47996  0.33203  1.0000
  H   H1101     1.0  0.57765  0.48004  0.37376  1.0000
  C   C922      1.0  0.01448  0.41846  0.01587  1.0000
  S   S245      1.0  0.96506  0.35018  0.51740  1.0000
  C   C923      1.0  0.80316  0.24697  0.75429  1.0000
  H   H1102     1.0  0.60530  0.25622  0.79980  1.0000
  C   C924      1.0  0.98143  0.29327  0.95984  1.0000
  S   S246      1.0  0.96888  0.45383  0.63799  1.0000
  H   H1103     1.0  0.81881  0.24535  0.77510  1.0000
  S   S247      1.0  0.97150  0.45448  0.94246  1.0000
  C   C925      1.0  0.90174  0.25559  0.71348  1.0000
  H   H1104     1.0  0.89331  0.32303  0.00494  1.0000
  Fe  Fe122     1.0  0.99106  0.32832  0.53512  1.0000
  S   S248      1.0  0.72471  0.26089  0.73378  1.0000
  H   H1105     1.0  0.78855  0.25956  0.69671  1.0000
  Fe  Fe123     1.0  0.67419  0.24820  0.80610  1.0000
  S   S249      1.0  0.67895  0.27286  0.79203  1.0000
  S   S250      1.0  0.64319  0.23838  0.84469  1.0000
  Fe  Fe124     1.0  0.67363  0.26545  0.74156  1.0000
  S   S251      1.0  0.64231  0.27921  0.70570  1.0000
  Fe  Fe125     1.0  0.72975  0.26599  0.78540  1.0000
  S   S252      1.0  0.77079  0.27572  0.80847  1.0000
  S   S253      1.0  0.66638  0.24120  0.75612  1.0000
  S   S254      1.0  0.72504  0.24169  0.80346  1.0000
  C   C926      1.0  0.00894  0.30769  0.91997  1.0000
  H   H1106     1.0  0.84331  0.32009  0.97993  1.0000
  H   H1107     1.0  0.81954  0.27492  0.72264  1.0000
  S   S255      1.0  0.97346  0.32177  0.58510  1.0000
  C   C927      1.0  0.95974  0.29665  0.66692  1.0000
  Fe  Fe126     1.0  0.93747  0.30283  0.78019  1.0000
  S   S256      1.0  0.94221  0.27746  0.78475  1.0000
  S   S257      1.0  0.88771  0.31256  0.77408  1.0000
  Fe  Fe127     1.0  0.97980  0.27944  0.74765  1.0000
  S   S258      1.0  0.98469  0.27002  0.69786  1.0000
  Fe  Fe128     1.0  0.97725  0.28088  0.82244  1.0000
  S   S259      1.0  0.97501  0.27254  0.87484  1.0000
  S   S260      1.0  0.97447  0.30481  0.74260  1.0000
  S   S261      1.0  0.97172  0.30634  0.81840  1.0000
  C   C928      1.0  0.84640  0.25294  0.72026  1.0000
  H   H1108     1.0  0.96598  0.40896  0.55230  1.0000
  C   C929      1.0  0.98478  0.28519  0.90446  1.0000
  C   C930      1.0  0.97461  0.28307  0.93631  1.0000
  H   H1109     1.0  0.84855  0.46308  0.57636  1.0000
  H   H1110     1.0  0.91591  0.27842  0.71107  1.0000
  H   H1111     1.0  0.01100  0.29913  0.87254  1.0000
  C   C931      1.0  0.97640  0.30648  0.61449  1.0000
  C   C932      1.0  0.98038  0.28371  0.66508  1.0000
  C   C933      1.0  0.99812  0.28190  0.63695  1.0000
  C   C934      1.0  0.99625  0.29327  0.61176  1.0000
  H   H1112     1.0  0.97131  0.42917  0.99908  1.0000
  H   H1113     1.0  0.56170  0.29459  0.79447  1.0000
  C   C935      1.0  0.80366  0.28447  0.79315  1.0000
  C   C936      1.0  0.80113  0.29798  0.77391  1.0000
  C   C937      1.0  0.82715  0.30624  0.76751  1.0000
  C   C938      1.0  0.85616  0.30095  0.77959  1.0000
  C   C939      1.0  0.85882  0.28710  0.79769  1.0000
  C   C940      1.0  0.83272  0.27909  0.80481  1.0000
  H   H1114     1.0  0.77881  0.30253  0.76549  1.0000
  H   H1115     1.0  0.82461  0.31699  0.75375  1.0000
  H   H1116     1.0  0.88066  0.28284  0.80751  1.0000
  H   H1117     1.0  0.83492  0.26885  0.82027  1.0000
  C   C941      1.0  0.61612  0.24874  0.86892  1.0000
  C   C942      1.0  0.61523  0.26462  0.87055  1.0000
  C   C943      1.0  0.59369  0.27230  0.89077  1.0000
  C   C944      1.0  0.57280  0.26419  0.90936  1.0000
  C   C945      1.0  0.57356  0.24835  0.90748  1.0000
  C   C946      1.0  0.59516  0.24069  0.88743  1.0000
  H   H1118     1.0  0.63153  0.27091  0.85672  1.0000
  H   H1119     1.0  0.59334  0.28455  0.89215  1.0000
  H   H1120     1.0  0.84943  0.46860  0.87482  1.0000
  H   H1121     1.0  0.90566  0.46809  0.74400  1.0000
  C   C947      1.0  0.61208  0.27156  0.68528  1.0000
  C   C948      1.0  0.60330  0.25686  0.69282  1.0000
  C   C949      1.0  0.57713  0.25178  0.67877  1.0000
  C   C950      1.0  0.55995  0.26110  0.65619  1.0000
  C   C951      1.0  0.56931  0.27560  0.64774  1.0000
  C   C952      1.0  0.59507  0.28085  0.66246  1.0000
  H   H1122     1.0  0.61632  0.24947  0.70988  1.0000
  C   C953      1.0  0.89961  0.46772  0.83757  1.0000
  H   H1123     1.0  0.55610  0.28298  0.63072  1.0000
  H   H1124     1.0  0.60157  0.29225  0.65647  1.0000
  H   H1125     1.0  0.86648  0.47455  0.91052  1.0000
  Fe  Fe129     1.0  0.97398  0.47966  0.94808  1.0000
  C   C954      1.0  0.98290  0.41912  0.01071  1.0000
  H   H1126     1.0  0.00784  0.35221  0.90191  1.0000
  H   H1127     1.0  0.01147  0.41813  0.94400  1.0000
  H   H1128     1.0  0.92001  0.30591  0.57597  1.0000
  H   H1129     1.0  0.94927  0.44869  0.57464  1.0000
  H   H1130     1.0  0.00297  0.38505  0.61714  1.0000
  N   N60       1.0  0.89870  0.46813  0.87289  1.0000
  H   H1131     1.0  0.56892  0.28002  0.99547  1.0000
  S   S262      1.0  0.01574  0.27837  0.78613  1.0000
  H   H1132     1.0  0.90663  0.47107  0.97104  1.0000
  Fe  Fe130     1.0  0.99071  0.46748  0.67399  1.0000
  H   H1133     1.0  0.59725  0.28985  0.77415  1.0000
  H   H1134     1.0  0.54747  0.26473  0.73710  1.0000
  H   H1135     1.0  0.01330  0.23964  0.86794  1.0000
  C   C955      1.0  0.98261  0.47029  0.81309  1.0000
  H   H1136     1.0  0.01388  0.27184  0.63497  1.0000
  C   C956      1.0  0.01715  0.37983  0.92964  1.0000
  S   S263      1.0  0.52518  0.25475  0.64234  1.0000
  H   H1137     1.0  0.91597  0.32990  0.55095  1.0000
  N   N61       1.0  0.56808  0.27122  0.78068  1.0000
  H   H1138     1.0  0.94575  0.47288  0.87515  1.0000
  H   H1139     1.0  0.94489  0.29801  0.68754  1.0000
  C   C957      1.0  0.00214  0.29755  0.89658  1.0000
  H   H1140     1.0  0.58837  0.24946  0.76511  1.0000
  C   C958      1.0  0.58029  0.28533  0.79163  1.0000
  H   H1141     1.0  0.97360  0.37213  0.97391  1.0000
  H   H1142     1.0  0.59269  0.28312  0.81461  1.0000
  C   C959      1.0  0.54558  0.26467  0.80312  1.0000
  Fe  Fe131     1.0  0.00966  0.30375  0.78125  1.0000
  Fe  Fe132     1.0  0.71757  0.23702  0.75235  1.0000
  C   C960      1.0  0.88502  0.42961  0.52798  1.0000
  H   H1143     1.0  0.82553  0.30734  0.54406  1.0000
  N   N62       1.0  0.88903  0.31368  0.87854  1.0000
  C   C961      1.0  0.90656  0.29902  0.87190  1.0000
  C   C962      1.0  0.85761  0.31313  0.86583  1.0000
  C   C963      1.0  0.90351  0.32621  0.86049  1.0000
  C   C964      1.0  0.88960  0.31614  0.91325  1.0000
  C   C965      1.0  0.91785  0.31767  0.92861  1.0000
  C   C966      1.0  0.86264  0.31701  0.93277  1.0000
  C   C967      1.0  0.91895  0.32026  0.96122  1.0000
  C   C968      1.0  0.86408  0.31951  0.96544  1.0000
  C   C969      1.0  0.89217  0.32117  0.97960  1.0000
  H   H1144     1.0  0.89714  0.28925  0.88559  1.0000
  H   H1145     1.0  0.90632  0.29662  0.84607  1.0000
  H   H1146     1.0  0.93107  0.29898  0.87837  1.0000
  H   H1147     1.0  0.84609  0.30319  0.87636  1.0000
  H   H1148     1.0  0.85803  0.31184  0.83955  1.0000
  H   H1149     1.0  0.84309  0.32385  0.86990  1.0000
  H   H1150     1.0  0.90223  0.32506  0.83417  1.0000
  H   H1151     1.0  0.89198  0.33753  0.86601  1.0000
  H   H1152     1.0  0.92832  0.32633  0.86574  1.0000
  H   H1153     1.0  0.93942  0.31667  0.91560  1.0000
  H   H1154     1.0  0.84017  0.31571  0.92346  1.0000
  C   C970      1.0  0.55359  0.27502  0.74917  1.0000
  H   H1155     1.0  0.85216  0.46793  0.98698  1.0000
  C   C971      1.0  0.79832  0.24750  0.69698  1.0000
  H   H1156     1.0  0.55894  0.30569  0.97716  1.0000
  N   N63       1.0  0.88343  0.31746  0.52633  1.0000
  C   C972      1.0  0.98859  0.45445  0.81682  1.0000
  C   C973      1.0  0.84211  0.26912  0.71975  1.0000
  Fe  Fe133     1.0  0.00021  0.45844  0.89820  1.0000
  C   C974      1.0  0.86692  0.27817  0.71611  1.0000
  C   C975      1.0  0.98578  0.45264  0.75901  1.0000
  C   C976      1.0  0.88758  0.44670  0.57130  1.0000
  H   H1157     1.0  0.97336  0.29152  0.98417  1.0000
  H   H1158     1.0  0.57012  0.24054  0.68547  1.0000
  N   N64       1.0  0.93222  0.42726  0.56351  1.0000
  N   N65       1.0  0.01280  0.36458  0.94492  1.0000
  C   C977      1.0  0.86836  0.47487  0.88393  1.0000
  C   C978      1.0  0.53194  0.25116  0.79586  1.0000
  H   H1159     1.0  0.94226  0.31801  0.64429  1.0000
  H   H1160     1.0  0.86321  0.29051  0.71623  1.0000
  C   C979      1.0  0.95801  0.30797  0.64205  1.0000
  H   H1161     1.0  0.77829  0.24040  0.69840  1.0000
  C   C980      1.0  0.01169  0.39356  0.94609  1.0000
  C   C981      1.0  0.93148  0.42162  0.59748  1.0000
  H   H1162     1.0  0.91353  0.41346  0.60172  1.0000
  C   C982      1.0  0.01331  0.38318  0.56688  1.0000
  H   H1163     1.0  0.53234  0.28275  0.75158  1.0000
  H   H1164     1.0  0.98919  0.34457  0.93593  1.0000
  H   H1165     1.0  0.89897  0.45119  0.59112  1.0000
  H   H1166     1.0  0.00840  0.31454  0.68475  1.0000
  H   H1167     1.0  0.97840  0.43402  0.56695  1.0000
  H   H1168     1.0  0.98160  0.47722  0.83366  1.0000
  C   C983      1.0  0.90421  0.45283  0.88940  1.0000
  C   C984      1.0  0.86015  0.47923  0.98361  1.0000
  H   H1169     1.0  0.92322  0.47823  0.90967  1.0000
  H   H1170     1.0  0.00974  0.37022  0.99463  1.0000
  H   H1171     1.0  0.91568  0.44351  0.83361  1.0000
  H   H1172     1.0  0.90260  0.45347  0.91587  1.0000
  H   H1173     1.0  0.99126  0.35374  0.98599  1.0000
  C   C985      1.0  0.90159  0.43439  0.55419  1.0000
  Fe  Fe134     1.0  0.98761  0.46999  0.60104  1.0000
  N   N66       1.0  0.81966  0.24364  0.72391  1.0000
  C   C986      1.0  0.92277  0.47765  0.88322  1.0000
  C   C987      1.0  0.95505  0.43879  0.55972  1.0000
  S   S264      1.0  0.99157  0.44510  0.85504  1.0000
  H   H1174     1.0  0.95641  0.44342  0.53457  1.0000
  C   C988      1.0  0.59465  0.25990  0.77645  1.0000
  H   H1175     1.0  0.56933  0.28084  0.73228  1.0000
  C   C989      1.0  0.89478  0.33189  0.53647  1.0000
  S   S265      1.0  0.54596  0.27419  0.93451  1.0000
  H   H1176     1.0  0.54626  0.28131  0.84059  1.0000
  C   C990      1.0  0.99863  0.30569  0.95173  1.0000
  C   C991      1.0  0.53676  0.27123  0.83256  1.0000
  H   H1177     1.0  0.92618  0.48050  0.61610  1.0000
  C   C992      1.0  0.97840  0.46839  0.75545  1.0000
  H   H1178     1.0  0.92693  0.43098  0.61416  1.0000
  H   H1179     1.0  0.95388  0.41565  0.60497  1.0000
  C   C993      1.0  0.87710  0.24640  0.71690  1.0000
  H   H1180     1.0  0.92512  0.25050  0.71121  1.0000
  H   H1181     1.0  0.97302  0.36203  0.91667  1.0000
  H   H1182     1.0  0.83892  0.32867  0.51471  1.0000
  H   H1183     1.0  0.55770  0.24196  0.92165  1.0000
  S   S266      1.0  0.01503  0.41526  0.63299  1.0000
  H   H1184     1.0  0.92733  0.40486  0.54630  1.0000
  C   C994      1.0  0.90311  0.46791  0.76982  1.0000
  C   C995      1.0  0.01121  0.39081  0.59567  1.0000
  C   C996      1.0  0.89643  0.30316  0.57847  1.0000
  H   H1185     1.0  0.79261  0.25888  0.75433  1.0000
  H   H1186     1.0  0.92775  0.44758  0.88424  1.0000
  H   H1187     1.0  0.91806  0.44415  0.77589  1.0000
  C   C997      1.0  0.99611  0.36529  0.97606  1.0000
  S   S267      1.0  0.96756  0.47708  0.71807  1.0000
  H   H1188     1.0  0.81003  0.24560  0.67359  1.0000
  C   C998      1.0  0.87439  0.30820  0.55491  1.0000
  C   C999      1.0  0.84390  0.30406  0.56053  1.0000
  S   S268      1.0  0.52246  0.25853  0.54542  1.0000
  C   C1000     1.0  0.83625  0.29548  0.58811  1.0000
  C   C1001     1.0  0.88857  0.29457  0.60587  1.0000
  C   C1002     1.0  0.85852  0.29076  0.61073  1.0000
  H   H1189     1.0  0.87727  0.33834  0.55118  1.0000
  C   C1003     1.0  0.99039  0.44567  0.78967  1.0000
  H   H1190     1.0  0.81285  0.29249  0.59201  1.0000
  H   H1191     1.0  0.90596  0.29090  0.62346  1.0000
  H   H1192     1.0  0.85252  0.28416  0.63212  1.0000
  H   H1193     1.0  0.01039  0.29188  0.59054  1.0000
  S   S269      1.0  0.96148  0.47895  0.55721  1.0000
  H   H1194     1.0  0.96127  0.27354  0.94281  1.0000
  C   C1004     1.0  0.89085  0.48098  0.97448  1.0000
  H   H1195     1.0  0.00674  0.37161  0.56625  1.0000
  C   C1005     1.0  0.85627  0.43677  0.51971  1.0000
  S   S270      1.0  0.00731  0.31945  0.97941  1.0000
  H   H1196     1.0  0.53789  0.24544  0.77409  1.0000
  H   H1197     1.0  0.98674  0.44577  0.73825  1.0000
  C   C1006     1.0  0.89665  0.27141  0.71319  1.0000
  H   H1198     1.0  0.94080  0.32135  0.97247  1.0000
  H   H1199     1.0  0.61276  0.26468  0.76092  1.0000
  H   H1200     1.0  0.00412  0.39363  0.97068  1.0000
  H   H1201     1.0  0.88714  0.44495  0.88228  1.0000
  C   C1007     1.0  0.91006  0.45440  0.78788  1.0000
  C   C1008     1.0  0.90857  0.45423  0.82125  1.0000
  C   C1009     1.0  0.94318  0.41414  0.54420  1.0000
  C   C1010     1.0  0.97698  0.47719  0.78255  1.0000
  H   H1202     1.0  0.92960  0.30666  0.52296  1.0000
  C   C1011     1.0  0.99496  0.35556  0.92384  1.0000
  H   H1203     1.0  0.99506  0.43342  0.79235  1.0000
  Fe  Fe135     1.0  0.01523  0.44099  0.63378  1.0000
  C   C1012     1.0  0.85878  0.45368  0.56293  1.0000
  H   H1204     1.0  0.78397  0.23951  0.75882  1.0000
  Fe  Fe136     1.0  0.01672  0.45188  0.96782  1.0000
  C   C1013     1.0  0.01588  0.40778  0.93099  1.0000
  C   C1014     1.0  0.55868  0.30977  0.00200  1.0000
  H   H1205     1.0  0.54241  0.32014  0.00188  1.0000
  H   H1206     1.0  0.88277  0.23424  0.71703  1.0000
  C   C1015     1.0  0.84320  0.44878  0.53713  1.0000
  H   H1207     1.0  0.82102  0.45440  0.53061  1.0000
  H   H1208     1.0  0.90063  0.33948  0.51556  1.0000
  S   S271      1.0  0.01626  0.47672  0.97788  1.0000
  H   H1209     1.0  0.94628  0.41767  0.51856  1.0000
  H   H1210     1.0  0.58198  0.31326  0.00696  1.0000
  H   H1211     1.0  0.89383  0.42044  0.51338  1.0000
  Fe  Fe137     1.0  0.93883  0.59112  0.12280  1.0000
  S   S272      1.0  0.97047  0.58629  0.08150  1.0000
  S   S273      1.0  0.89334  0.58097  0.12782  1.0000
  Fe  Fe138     1.0  0.98352  0.60986  0.15527  1.0000
  Fe  Fe139     1.0  0.97915  0.61104  0.08291  1.0000
  S   S274      1.0  0.97976  0.62490  0.03629  1.0000
  S   S275      1.0  0.94445  0.61628  0.12172  1.0000
  S   S276      1.0  0.97492  0.58508  0.15989  1.0000
  Fe  Fe140     1.0  0.97959  0.60091  0.37797  1.0000
  C   C1016     1.0  0.98812  0.53581  0.06530  1.0000
  Fe  Fe141     1.0  0.97434  0.59279  0.44876  1.0000
  Fe  Fe142     1.0  0.00746  0.62052  0.42575  1.0000
  S   S277      1.0  0.94737  0.58254  0.48960  1.0000
  H   H1212     1.0  0.00857  0.57714  0.25348  1.0000
  H   H1213     1.0  0.99798  0.68481  0.11418  1.0000
  S   S278      1.0  0.95930  0.61400  0.41918  1.0000
  S   S279      1.0  0.99119  0.57922  0.40737  1.0000
  H   H1214     1.0  0.99587  0.72476  0.18440  1.0000
  H   H1215     1.0  0.76724  0.61158  0.46435  1.0000
  S   S280      1.0  0.71648  0.50229  0.47222  1.0000
  Fe  Fe143     1.0  0.80456  0.53573  0.48822  1.0000
  S   S281      1.0  0.83644  0.54540  0.45095  1.0000
  H   H1216     1.0  0.92644  0.64626  0.02515  1.0000
  S   S282      1.0  0.75391  0.54240  0.48564  1.0000
  S   S283      1.0  0.79768  0.52640  0.04691  1.0000
  C   C1017     1.0  0.88248  0.65936  0.03223  1.0000
  Fe  Fe144     1.0  0.74819  0.53245  0.05917  1.0000
  S   S284      1.0  0.73434  0.53235  0.11132  1.0000
  C   C1018     1.0  0.68730  0.50847  0.17812  1.0000
  C   C1019     1.0  0.70723  0.51835  0.16283  1.0000
  C   C1020     1.0  0.70935  0.51961  0.12937  1.0000
  H   H1217     1.0  0.68565  0.50771  0.20392  1.0000
  H   H1218     1.0  0.72097  0.52510  0.17704  1.0000
  H   H1219     1.0  0.73023  0.52478  0.42149  1.0000
  C   C1021     1.0  0.91600  0.57270  0.47859  1.0000
  N   N67       1.0  0.97449  0.71060  0.43198  1.0000
  C   C1022     1.0  0.87095  0.55939  0.49407  1.0000
  C   C1023     1.0  0.86628  0.55629  0.46214  1.0000
  C   C1024     1.0  0.88644  0.56153  0.43849  1.0000
  C   C1025     1.0  0.91126  0.56969  0.44667  1.0000
  H   H1220     1.0  0.79606  0.57294  0.43806  1.0000
  H   H1221     1.0  0.88297  0.55920  0.41374  1.0000
  H   H1222     1.0  0.92657  0.57372  0.42821  1.0000
  H   H1223     1.0  0.59095  0.50842  0.41292  1.0000
  H   H1224     1.0  0.01333  0.70777  0.46374  1.0000
  H   H1225     1.0  0.01496  0.68551  0.50846  1.0000
  H   H1226     1.0  0.93644  0.67197  0.03131  1.0000
  H   H1227     1.0  0.01089  0.63796  0.08750  1.0000
  C   C1026     1.0  0.97530  0.65188  0.47460  1.0000
  C   C1027     1.0  0.98883  0.61518  0.29294  1.0000
  C   C1028     1.0  0.59333  0.52276  0.11671  1.0000
  H   H1228     1.0  0.96411  0.64257  0.46511  1.0000
  C   C1029     1.0  0.87509  0.57682  0.09262  1.0000
  C   C1030     1.0  0.88596  0.58165  0.06252  1.0000
  C   C1031     1.0  0.84660  0.56854  0.03706  1.0000
  C   C1032     1.0  0.83550  0.56391  0.06712  1.0000
  C   C1033     1.0  0.84966  0.56809  0.09482  1.0000
  H   H1229     1.0  0.81596  0.55713  0.06912  1.0000
  H   H1230     1.0  0.84108  0.56441  0.11807  1.0000
  C   C1034     1.0  0.99366  0.64293  0.03997  1.0000
  C   C1035     1.0  0.90392  0.64643  0.03614  1.0000
  C   C1036     1.0  0.98526  0.69720  0.15687  1.0000
  C   C1037     1.0  0.66895  0.49996  0.15999  1.0000
  C   C1038     1.0  0.97003  0.71511  0.11288  1.0000
  C   C1039     1.0  0.71721  0.51624  0.41149  1.0000
  H   H1231     1.0  0.76738  0.57276  0.50362  1.0000
  Fe  Fe145     1.0  0.00647  0.70912  0.01784  1.0000
  Fe  Fe146     1.0  0.74862  0.51739  0.49576  1.0000
  C   C1040     1.0  0.96539  0.60526  0.29582  1.0000
  C   C1041     1.0  0.01434  0.67208  0.04606  1.0000
  H   H1232     1.0  0.90201  0.61146  0.46435  1.0000
  H   H1233     1.0  0.82129  0.48433  0.07301  1.0000
  C   C1042     1.0  0.69068  0.49321  0.41785  1.0000
  N   N68       1.0  0.93435  0.53501  0.04277  1.0000
  C   C1043     1.0  0.70768  0.50418  0.43113  1.0000
  H   H1234     1.0  0.53063  0.52167  0.26906  1.0000
  H   H1235     1.0  0.78439  0.48976  0.34754  1.0000
  H   H1236     1.0  0.98334  0.53937  0.48154  1.0000
  H   H1237     1.0  0.92956  0.53859  0.09339  1.0000
  C   C1044     1.0  0.84727  0.64562  0.06735  1.0000
  H   H1238     1.0  0.80709  0.56761  0.49541  1.0000
  H   H1239     1.0  0.89282  0.52325  0.04662  1.0000
  H   H1240     1.0  0.96665  0.67859  0.22784  1.0000
  H   H1241     1.0  0.59302  0.54800  0.03292  1.0000
  C   C1045     1.0  0.98071  0.72520  0.16321  1.0000
  H   H1242     1.0  0.55914  0.52013  0.39573  1.0000
  H   H1243     1.0  0.60267  0.48458  0.34140  1.0000
  H   H1244     1.0  0.73995  0.49227  0.09059  1.0000
  H   H1245     1.0  0.64393  0.53844  0.16323  1.0000
  C   C1046     1.0  0.96094  0.60622  0.23781  1.0000
  H   H1246     1.0  0.92310  0.69002  0.01312  1.0000
  H   H1247     1.0  0.68657  0.54300  0.06287  1.0000
  S   S285      1.0  0.64249  0.48810  0.17839  1.0000
  C   C1047     1.0  0.69285  0.50631  0.36558  1.0000
  H   H1248     1.0  0.94984  0.60282  0.21672  1.0000
  C   C1048     1.0  0.61485  0.55340  0.03600  1.0000
  N   N69       1.0  0.63884  0.54262  0.05104  1.0000
  H   H1249     1.0  0.69297  0.51175  0.08549  1.0000
  C   C1049     1.0  0.62823  0.53746  0.08324  1.0000
  H   H1250     1.0  0.93123  0.70979  0.45765  1.0000
  H   H1251     1.0  0.95874  0.54876  0.51037  1.0000
  S   S286      1.0  0.68376  0.50814  0.32456  1.0000
  N   N70       1.0  0.79024  0.58939  0.47463  1.0000
  H   H1252     1.0  0.59069  0.52519  0.06612  1.0000
  H   H1253     1.0  0.95347  0.71518  0.37038  1.0000
  C   C1050     1.0  0.97325  0.68018  0.20292  1.0000
  H   H1254     1.0  0.94548  0.71366  0.11864  1.0000
  H   H1255     1.0  0.66069  0.52041  0.04218  1.0000
  C   C1051     1.0  0.64222  0.54134  0.11188  1.0000
  C   C1052     1.0  0.52815  0.49816  0.34951  1.0000
  C   C1053     1.0  0.52987  0.51532  0.29184  1.0000
  H   H1256     1.0  0.60128  0.52167  0.16736  1.0000
  S   S287      1.0  0.79926  0.51055  0.49415  1.0000
  C   C1054     1.0  0.00527  0.65444  0.46503  1.0000
  H   H1257     1.0  0.01580  0.62861  0.26041  1.0000
  C   C1055     1.0  0.95155  0.60079  0.26818  1.0000
  H   H1258     1.0  0.62342  0.52403  0.02479  1.0000
  C   C1056     1.0  0.92384  0.54448  0.06987  1.0000
  C   C1057     1.0  0.86353  0.60725  0.49515  1.0000
  H   H1259     1.0  0.82542  0.64529  0.07987  1.0000
  C   C1058     1.0  0.59464  0.48815  0.36540  1.0000
  H   H1260     1.0  0.91502  0.51764  0.48142  1.0000
  H   H1261     1.0  0.95635  0.72518  0.17131  1.0000
  H   H1262     1.0  0.80102  0.50506  0.10424  1.0000
  H   H1263     1.0  0.96725  0.69176  0.40248  1.0000
  H   H1264     1.0  0.99173  0.65937  0.13843  1.0000
  C   C1059     1.0  0.95933  0.66173  0.49562  1.0000
  H   H1265     1.0  0.00284  0.69000  0.42351  1.0000
  C   C1060     1.0  0.93123  0.52679  0.48060  1.0000
  C   C1061     1.0  0.68371  0.49412  0.38512  1.0000
  H   H1266     1.0  0.86380  0.62303  0.08496  1.0000
  C   C1062     1.0  0.60806  0.52643  0.14419  1.0000
  Fe  Fe147     1.0  0.00730  0.58247  0.11829  1.0000
  C   C1063     1.0  0.99996  0.66866  0.01799  1.0000
  H   H1267     1.0  0.76978  0.50331  0.13135  1.0000
  H   H1268     1.0  0.61455  0.48644  0.38178  1.0000
  C   C1064     1.0  0.82101  0.59526  0.47129  1.0000
  H   H1269     1.0  0.61701  0.51070  0.33064  1.0000
  C   C1065     1.0  0.83787  0.59543  0.44195  1.0000
  C   C1066     1.0  0.97651  0.69486  0.18951  1.0000
  C   C1067     1.0  0.97336  0.67404  0.50754  1.0000
  H   H1270     1.0  0.62554  0.51297  0.37123  1.0000
  H   H1271     1.0  0.89848  0.54705  0.06994  1.0000
  C   C1068     1.0  0.87170  0.57752  0.03476  1.0000
  C   C1069     1.0  0.99791  0.62081  0.26253  1.0000
  C   C1070     1.0  0.69144  0.51088  0.11121  1.0000
  C   C1071     1.0  0.70950  0.51739  0.37891  1.0000
  H   H1272     1.0  0.77028  0.49361  0.06223  1.0000
  C   C1072     1.0  0.91823  0.52079  0.04564  1.0000
  N   N71       1.0  0.58142  0.50421  0.36378  1.0000
  H   H1273     1.0  0.97624  0.65610  0.19502  1.0000
  C   C1073     1.0  0.57123  0.50848  0.39634  1.0000
  S   S288      1.0  0.62129  0.49158  0.27184  1.0000
  H   H1274     1.0  0.93398  0.55571  0.06862  1.0000
  H   H1275     1.0  0.87934  0.60119  0.41715  1.0000
  H   H1276     1.0  0.95885  0.50047  0.50455  1.0000
  C   C1074     1.0  0.98736  0.66935  0.15256  1.0000
  C   C1075     1.0  0.55524  0.51424  0.31203  1.0000
  C   C1076     1.0  0.85384  0.65862  0.04863  1.0000
  Fe  Fe148     1.0  0.66617  0.48883  0.29801  1.0000
  H   H1277     1.0  0.60962  0.56348  0.05078  1.0000
  C   C1077     1.0  0.60637  0.51401  0.35383  1.0000
  H   H1278     1.0  0.96747  0.68707  0.44443  1.0000
  S   S289      1.0  0.95767  0.71732  0.02736  1.0000
  C   C1078     1.0  0.86880  0.63307  0.07029  1.0000
  H   H1279     1.0  0.66171  0.54813  0.11195  1.0000
  H   H1280     1.0  0.97216  0.70415  0.20526  1.0000
  C   C1079     1.0  0.00789  0.64642  0.06802  1.0000
  C   C1080     1.0  0.89703  0.63348  0.05463  1.0000
  C   C1081     1.0  0.91574  0.68003  0.02784  1.0000
  H   H1281     1.0  0.92531  0.51383  0.06759  1.0000
  H   H1282     1.0  0.90865  0.68404  0.05182  1.0000
  C   C1082     1.0  0.86652  0.60145  0.43954  1.0000
  C   C1083     1.0  0.79028  0.57733  0.50061  1.0000
  C   C1084     1.0  0.00381  0.67621  0.49901  1.0000
  H   H1283     1.0  0.57469  0.51534  0.11878  1.0000
  H   H1284     1.0  0.66455  0.56125  0.06454  1.0000
  C   C1085     1.0  0.63215  0.53585  0.14180  1.0000
  C   C1086     1.0  0.94121  0.71524  0.43567  1.0000
  N   N72       1.0  0.98928  0.71252  0.14181  1.0000
  C   C1087     1.0  0.97402  0.72074  0.37472  1.0000
  C   C1088     1.0  0.76132  0.48613  0.08182  1.0000
  C   C1089     1.0  0.66762  0.55050  0.05154  1.0000
  C   C1090     1.0  0.87936  0.60727  0.46609  1.0000
  H   H1285     1.0  0.91392  0.62377  0.05709  1.0000
  C   C1091     1.0  0.98395  0.61635  0.23492  1.0000
  C   C1092     1.0  0.83470  0.60145  0.49777  1.0000
  C   C1093     1.0  0.97816  0.69417  0.42527  1.0000
  S   S290      1.0  0.99594  0.62334  0.19701  1.0000
  H   H1286     1.0  0.59794  0.52628  0.35178  1.0000
  H   H1287     1.0  0.90528  0.58858  0.06067  1.0000
  H   H1288     1.0  0.71665  0.52687  0.36394  1.0000
  C   C1094     1.0  0.67112  0.50118  0.12648  1.0000
  H   H1289     1.0  0.98040  0.54314  0.08426  1.0000
  H   H1290     1.0  0.83620  0.66794  0.04757  1.0000
  C   C1095     1.0  0.98804  0.71951  0.40519  1.0000
  C   C1096     1.0  0.89580  0.56753  0.50226  1.0000
  H   H1291     1.0  0.85694  0.68975  0.03087  1.0000
  H   H1292     1.0  0.65687  0.49466  0.11236  1.0000
  H   H1293     1.0  0.85586  0.55532  0.51258  1.0000
  H   H1294     1.0  0.82980  0.59074  0.42061  1.0000
  H   H1295     1.0  0.55546  0.50044  0.40758  1.0000
  H   H1296     1.0  0.98405  0.51064  0.47870  1.0000
  H   H1297     1.0  0.80700  0.49481  0.14216  1.0000
  H   H1298     1.0  0.97740  0.70720  0.09384  1.0000
  C   C1097     1.0  0.97864  0.66747  0.18449  1.0000
  H   H1299     1.0  0.93716  0.72781  0.43744  1.0000
  H   H1300     1.0  0.75232  0.49000  0.37419  1.0000
  C   C1098     1.0  0.79081  0.49702  0.12191  1.0000
  C   C1099     1.0  0.60296  0.52831  0.08667  1.0000
  C   C1100     1.0  0.01564  0.72685  0.40812  1.0000
  H   H1301     1.0  0.74369  0.59811  0.48457  1.0000
  C   C1101     1.0  0.55500  0.50571  0.34178  1.0000
  S   S291      1.0  0.95276  0.59812  0.33337  1.0000
  C   C1102     1.0  0.76732  0.60201  0.48275  1.0000
  H   H1302     1.0  0.77739  0.59127  0.42491  1.0000
  H   H1303     1.0  0.57487  0.52001  0.30357  1.0000
  C   C1103     1.0  0.96798  0.53110  0.04199  1.0000
  H   H1304     1.0  0.93338  0.59314  0.27028  1.0000
  C   C1104     1.0  0.77983  0.58265  0.44522  1.0000
  C   C1105     1.0  0.97255  0.53786  0.50561  1.0000
  H   H1305     1.0  0.97718  0.70662  0.48319  1.0000
  C   C1106     1.0  0.99074  0.68396  0.13891  1.0000
  H   H1306     1.0  0.92742  0.71186  0.41557  1.0000
  H   H1307     1.0  0.75707  0.57793  0.44880  1.0000
  H   H1308     1.0  0.77195  0.60668  0.50622  1.0000
  H   H1309     1.0  0.91774  0.53799  0.48076  1.0000
  H   H1310     1.0  0.99962  0.61868  0.31412  1.0000
  S   S292      1.0  0.74559  0.55405  0.02809  1.0000
  C   C1107     1.0  0.98902  0.71258  0.46316  1.0000
  H   H1311     1.0  0.93580  0.65999  0.50222  1.0000
  H   H1312     1.0  0.98813  0.72483  0.46891  1.0000
  H   H1313     1.0  0.68317  0.48387  0.43296  1.0000
  H   H1314     1.0  0.92307  0.51345  0.02500  1.0000
  H   H1315     1.0  0.94314  0.52659  0.45694  1.0000
  C   C1108     1.0  0.64468  0.52938  0.03050  1.0000
  C   C1109     1.0  0.77198  0.48252  0.36511  1.0000
  H   H1316     1.0  0.99918  0.57560  0.31094  1.0000
  C   C1110     1.0  0.01277  0.51716  0.01763  1.0000
  H   H1317     1.0  0.67555  0.55384  0.02698  1.0000
  C   C1111     1.0  0.97271  0.51053  0.50265  1.0000
  H   H1318     1.0  0.73172  0.48750  0.14346  1.0000
  H   H1319     1.0  0.52671  0.49090  0.37093  1.0000
  N   N73       1.0  0.95309  0.52482  0.50756  1.0000
  H   H1320     1.0  0.67112  0.48545  0.37512  1.0000
  S   S293      1.0  0.72951  0.51833  0.02213  1.0000
  H   H1321     1.0  0.75220  0.48273  0.30698  1.0000
  H   H1322     1.0  0.97419  0.73078  0.32667  1.0000
  C   C1112     1.0  0.98599  0.72940  0.34931  1.0000
  N   N74       1.0  0.78421  0.48259  0.10745  1.0000
  H   H1323     1.0  0.97136  0.72684  0.10184  1.0000
  C   C1113     1.0  0.98146  0.52188  0.01780  1.0000
  C   C1114     1.0  0.99011  0.65399  0.01475  1.0000
  S   S294      1.0  0.01891  0.60683  0.11613  1.0000
  C   C1115     1.0  0.01879  0.66085  0.07076  1.0000
  H   H1324     1.0  0.99951  0.59324  0.01297  1.0000
  H   H1325     1.0  0.89939  0.54688  0.01288  1.0000
  H   H1326     1.0  0.86752  0.52929  0.57690  1.0000
  H   H1327     1.0  0.76187  0.53853  0.62399  1.0000
  H   H1328     1.0  0.80357  0.58310  0.90105  1.0000
  S   S295      1.0  0.97049  0.71201  0.60088  1.0000
  Fe  Fe149     1.0  0.97100  0.70818  0.54836  1.0000
  Fe  Fe150     1.0  0.67433  0.58293  0.78726  1.0000
  S   S296      1.0  0.68502  0.59434  0.73947  1.0000
  S   S297      1.0  0.71333  0.57013  0.81468  1.0000
  Fe  Fe151     1.0  0.60523  0.59024  0.78039  1.0000
  S   S298      1.0  0.61033  0.60184  0.73203  1.0000
  S   S299      1.0  0.56019  0.58892  0.80745  1.0000
  Fe  Fe152     1.0  0.64537  0.58246  0.72200  1.0000
  S   S300      1.0  0.64466  0.56756  0.67951  1.0000
  Fe  Fe153     1.0  0.64947  0.61275  0.75384  1.0000
  S   S301      1.0  0.65061  0.63828  0.74383  1.0000
  S   S302      1.0  0.63699  0.56989  0.76893  1.0000
  S   S303      1.0  0.64216  0.60239  0.80310  1.0000
  Fe  Fe154     1.0  0.75810  0.70031  0.79161  1.0000
  S   S304      1.0  0.74047  0.71173  0.74562  1.0000
  S   S305      1.0  0.74879  0.67617  0.80871  1.0000
  S   S306      1.0  0.01869  0.71541  0.54060  1.0000
  S   S307      1.0  0.80768  0.70335  0.77995  1.0000
  S   S308      1.0  0.74673  0.51952  0.54938  1.0000
  S   S309      1.0  0.80756  0.53894  0.54058  1.0000
  Fe  Fe155     1.0  0.79783  0.51442  0.54666  1.0000
  H   H1329     1.0  0.65903  0.73047  0.78541  1.0000
  S   S310      1.0  0.74177  0.56549  0.56504  1.0000
  H   H1330     1.0  0.91957  0.48963  0.87338  1.0000
  H   H1331     1.0  0.90212  0.71532  0.61782  1.0000
  Fe  Fe156     1.0  0.73085  0.53946  0.98953  1.0000
  H   H1332     1.0  0.99133  0.50840  0.52039  1.0000
  S   S311      1.0  0.69051  0.54918  0.95977  1.0000
  H   H1333     1.0  0.95522  0.70228  0.75822  1.0000
  S   S312      1.0  0.77854  0.53349  0.97138  1.0000
  C   C1116     1.0  0.56770  0.65548  0.77218  1.0000
  C   C1117     1.0  0.67819  0.64861  0.76192  1.0000
  C   C1118     1.0  0.70076  0.64133  0.78191  1.0000
  C   C1119     1.0  0.72234  0.64992  0.79594  1.0000
  C   C1120     1.0  0.72164  0.66580  0.79000  1.0000
  C   C1121     1.0  0.69927  0.67303  0.76972  1.0000
  C   C1122     1.0  0.67763  0.66446  0.75576  1.0000
  H   H1334     1.0  0.70161  0.62910  0.78649  1.0000
  H   H1335     1.0  0.73974  0.64424  0.81140  1.0000
  H   H1336     1.0  0.69830  0.68527  0.76526  1.0000
  H   H1337     1.0  0.66025  0.67017  0.74031  1.0000
  C   C1123     1.0  0.70586  0.56350  0.85423  1.0000
  C   C1124     1.0  0.72937  0.55517  0.87155  1.0000
  C   C1125     1.0  0.72474  0.55052  0.90374  1.0000
  C   C1126     1.0  0.69653  0.55415  0.91886  1.0000
  C   C1127     1.0  0.67282  0.56224  0.90134  1.0000
  C   C1128     1.0  0.67744  0.56689  0.86912  1.0000
  H   H1338     1.0  0.75136  0.55246  0.86013  1.0000
  H   H1339     1.0  0.74301  0.54413  0.91674  1.0000
  H   H1340     1.0  0.65087  0.56504  0.91276  1.0000
  H   H1341     1.0  0.65910  0.57326  0.85595  1.0000
  C   C1129     1.0  0.67171  0.56731  0.64776  1.0000
  C   C1130     1.0  0.67269  0.55533  0.62671  1.0000
  C   C1131     1.0  0.69452  0.55442  0.60170  1.0000
  C   C1132     1.0  0.71507  0.56572  0.59713  1.0000
  C   C1133     1.0  0.71399  0.57775  0.61808  1.0000
  C   C1134     1.0  0.69261  0.57848  0.64354  1.0000
  H   H1342     1.0  0.65658  0.54665  0.62984  1.0000
  H   H1343     1.0  0.69503  0.54516  0.58561  1.0000
  H   H1344     1.0  0.72976  0.58656  0.61458  1.0000
  H   H1345     1.0  0.69197  0.58778  0.65954  1.0000
  H   H1346     1.0  0.73507  0.57670  0.95080  1.0000
  H   H1347     1.0  0.79576  0.58141  0.52435  1.0000
  H   H1348     1.0  0.91150  0.48903  0.51544  1.0000
  Fe  Fe157     1.0  0.95373  0.72037  0.97396  1.0000
  C   C1135     1.0  0.92460  0.54360  0.01280  1.0000
  C   C1136     1.0  0.88066  0.50842  0.97514  1.0000
  H   H1349     1.0  0.59332  0.62804  0.78219  1.0000
  Fe  Fe158     1.0  0.80053  0.72550  0.80411  1.0000
  H   H1350     1.0  0.81182  0.60373  0.93756  1.0000
  C   C1137     1.0  0.93785  0.52422  0.53940  1.0000
  H   H1351     1.0  0.99682  0.67722  0.99867  1.0000
  H   H1352     1.0  0.00844  0.57222  0.51602  1.0000
  Fe  Fe159     1.0  0.78984  0.71620  0.73576  1.0000
  H   H1353     1.0  0.89925  0.52265  0.62451  1.0000
  H   H1354     1.0  0.88383  0.66176  0.96874  1.0000
  H   H1355     1.0  0.87120  0.69460  0.99218  1.0000
  C   C1138     1.0  0.85280  0.71468  0.87913  1.0000
  S   S313      1.0  0.80160  0.49026  0.00037  1.0000
  C   C1139     1.0  0.79410  0.59930  0.95408  1.0000
  N   N75       1.0  0.77772  0.66662  0.69883  1.0000
  C   C1140     1.0  0.79906  0.66803  0.67112  1.0000
  C   C1141     1.0  0.75206  0.67862  0.69408  1.0000
  C   C1142     1.0  0.79387  0.66988  0.72829  1.0000
  C   C1143     1.0  0.76768  0.65093  0.70180  1.0000
  C   C1144     1.0  0.73632  0.64775  0.70118  1.0000
  C   C1145     1.0  0.78970  0.63820  0.70557  1.0000
  C   C1146     1.0  0.72781  0.63274  0.70371  1.0000
  C   C1147     1.0  0.78090  0.62326  0.70824  1.0000
  C   C1148     1.0  0.75001  0.62054  0.70726  1.0000
  H   H1356     1.0  0.78827  0.66488  0.64875  1.0000
  H   H1357     1.0  0.80584  0.67992  0.66716  1.0000
  H   H1358     1.0  0.82083  0.66075  0.67436  1.0000
  H   H1359     1.0  0.73905  0.67702  0.67206  1.0000
  H   H1360     1.0  0.76053  0.69024  0.69142  1.0000
  H   H1361     1.0  0.73601  0.67884  0.71496  1.0000
  H   H1362     1.0  0.81515  0.66232  0.73225  1.0000
  H   H1363     1.0  0.80080  0.68179  0.72745  1.0000
  H   H1364     1.0  0.77886  0.66846  0.74976  1.0000
  H   H1365     1.0  0.71778  0.65661  0.69916  1.0000
  H   H1366     1.0  0.81392  0.63975  0.70665  1.0000
  H   H1367     1.0  0.70373  0.63058  0.70334  1.0000
  H   H1368     1.0  0.79811  0.61373  0.71120  1.0000
  H   H1369     1.0  0.74317  0.60896  0.70945  1.0000
  C   C1149     1.0  0.97793  0.70866  0.71531  1.0000
  H   H1370     1.0  0.80243  0.57095  0.93689  1.0000
  C   C1150     1.0  0.85973  0.72832  0.86315  1.0000
  H   H1371     1.0  0.83510  0.51666  0.98857  1.0000
  C   C1151     1.0  0.86352  0.71269  0.64989  1.0000
  H   H1372     1.0  0.78284  0.60886  0.96753  1.0000
  C   C1152     1.0  0.91003  0.52343  0.60110  1.0000
  C   C1153     1.0  0.89345  0.71714  0.91770  1.0000
  H   H1373     1.0  0.93645  0.55428  0.00955  1.0000
  H   H1374     1.0  0.87393  0.71723  0.73085  1.0000
  S   S314      1.0  0.75210  0.72163  0.81999  1.0000
  C   C1154     1.0  0.56076  0.63884  0.72973  1.0000
  C   C1155     1.0  0.52463  0.58747  0.75371  1.0000
  C   C1156     1.0  0.85035  0.50666  0.98459  1.0000
  H   H1375     1.0  0.56411  0.65779  0.79791  1.0000
  S   S315      1.0  0.95136  0.68708  0.53089  1.0000
  H   H1376     1.0  0.99131  0.53644  0.52335  1.0000
  C   C1157     1.0  0.95493  0.71074  0.73871  1.0000
  H   H1377     1.0  0.55871  0.66562  0.75726  1.0000
  H   H1378     1.0  0.70524  0.62672  0.84917  1.0000
  C   C1158     1.0  0.88559  0.72102  0.63357  1.0000
  C   C1159     1.0  0.74174  0.62585  0.88330  1.0000
  C   C1160     1.0  0.89283  0.48130  0.81838  1.0000
  H   H1379     1.0  0.74641  0.63766  0.87811  1.0000
  H   H1380     1.0  0.99465  0.69887  0.71710  1.0000
  H   H1381     1.0  0.56098  0.62940  0.80933  1.0000
  N   N76       1.0  0.72047  0.54020  0.72733  1.0000
  C   C1161     1.0  0.72627  0.53429  0.76072  1.0000
  C   C1162     1.0  0.72007  0.55709  0.72726  1.0000
  C   C1163     1.0  0.68965  0.53605  0.71838  1.0000
  C   C1164     1.0  0.74344  0.53413  0.70386  1.0000
  C   C1165     1.0  0.76629  0.52213  0.71169  1.0000
  C   C1166     1.0  0.74264  0.53985  0.67158  1.0000
  C   C1167     1.0  0.78687  0.51635  0.68846  1.0000
  C   C1168     1.0  0.76325  0.53401  0.64859  1.0000
  C   C1169     1.0  0.78531  0.52226  0.65700  1.0000
  H   H1382     1.0  0.74919  0.53707  0.76890  1.0000
  H   H1383     1.0  0.70912  0.53954  0.77781  1.0000
  H   H1384     1.0  0.72448  0.52176  0.76346  1.0000
  H   H1385     1.0  0.74342  0.56079  0.73109  1.0000
  H   H1386     1.0  0.70487  0.56182  0.74652  1.0000
  H   H1387     1.0  0.71103  0.56277  0.70470  1.0000
  H   H1388     1.0  0.68329  0.54043  0.69383  1.0000
  H   H1389     1.0  0.68857  0.52346  0.71893  1.0000
  H   H1390     1.0  0.67134  0.54094  0.73459  1.0000
  H   H1391     1.0  0.76862  0.51695  0.73548  1.0000
  H   H1392     1.0  0.72573  0.54878  0.66372  1.0000
  H   H1393     1.0  0.80403  0.50713  0.69470  1.0000
  S   S316      1.0  0.82986  0.56287  0.00219  1.0000
  H   H1394     1.0  0.65505  0.53272  0.00697  1.0000
  C   C1170     1.0  0.90111  0.66828  0.98018  1.0000
  C   C1171     1.0  0.52530  0.58835  0.78693  1.0000
  H   H1395     1.0  0.90520  0.67834  0.96393  1.0000
  C   C1172     1.0  0.75044  0.58464  0.96104  1.0000
  C   C1173     1.0  0.75899  0.61685  0.90614  1.0000
  Fe  Fe160     1.0  0.77896  0.51375  0.00751  1.0000
  H   H1396     1.0  0.89039  0.49190  0.77079  1.0000
  H   H1397     1.0  0.72380  0.58390  0.89998  1.0000
  S   S317      1.0  0.81456  0.70895  0.69035  1.0000
  C   C1174     1.0  0.90294  0.48903  0.53976  1.0000
  C   C1175     1.0  0.99347  0.57218  0.99076  1.0000
  H   H1398     1.0  0.80684  0.59150  0.97198  1.0000
  C   C1176     1.0  0.86956  0.70915  0.90634  1.0000
  C   C1177     1.0  0.86074  0.49375  0.57718  1.0000
  N   N77       1.0  0.55332  0.64149  0.76378  1.0000
  H   H1399     1.0  0.59306  0.65434  0.76810  1.0000
  S   S318      1.0  0.82228  0.49973  0.58546  1.0000
  N   N78       1.0  0.77124  0.59129  0.93674  1.0000
  C   C1178     1.0  0.78814  0.57865  0.92005  1.0000
  H   H1400     1.0  0.77241  0.57135  0.90842  1.0000
  C   C1179     1.0  0.72939  0.59555  0.89603  1.0000
  C   C1180     1.0  0.51960  0.64240  0.76876  1.0000
  H   H1401     1.0  0.77670  0.62232  0.91778  1.0000
  C   C1181     1.0  0.71853  0.61973  0.86686  1.0000
  S   S319      1.0  0.93884  0.49878  0.95926  1.0000
  H   H1402     1.0  0.97126  0.48937  0.77989  1.0000
  H   H1403     1.0  0.86380  0.69869  0.91877  1.0000
  H   H1404     1.0  0.95536  0.51711  0.61873  1.0000
  C   C1182     1.0  0.83990  0.49211  0.98869  1.0000
  H   H1405     1.0  0.76358  0.57781  0.98012  1.0000
  C   C1183     1.0  0.75322  0.60134  0.91324  1.0000
  H   H1406     1.0  0.56120  0.61740  0.77617  1.0000
  C   C1184     1.0  0.56780  0.62857  0.78373  1.0000
  C   C1185     1.0  0.92260  0.48430  0.56508  1.0000
  C   C1186     1.0  0.71245  0.60458  0.87313  1.0000
  H   H1407     1.0  0.84477  0.68016  0.99636  1.0000
  H   H1408     1.0  0.54586  0.58682  0.74008  1.0000
  C   C1187     1.0  0.95543  0.52083  0.56748  1.0000
  S   S320      1.0  0.99928  0.48377  0.90189  1.0000
  H   H1409     1.0  0.83429  0.70851  0.87077  1.0000
  H   H1410     1.0  0.97952  0.65126  0.99283  1.0000
  H   H1411     1.0  0.96776  0.51800  0.99906  1.0000
  H   H1412     1.0  0.62222  0.55764  0.01177  1.0000
  C   C1188     1.0  0.86458  0.68478  0.00790  1.0000
  C   C1189     1.0  0.90571  0.52759  0.54374  1.0000
  C   C1190     1.0  0.89219  0.52719  0.57420  1.0000
  S   S321      1.0  0.00179  0.71027  0.96442  1.0000
  H   H1413     1.0  0.69466  0.59974  0.86000  1.0000
  H   H1414     1.0  0.73566  0.59372  0.97266  1.0000
  H   H1415     1.0  0.54931  0.64798  0.71375  1.0000
  H   H1416     1.0  0.88703  0.49210  0.82904  1.0000
  H   H1417     1.0  0.86338  0.70058  0.64664  1.0000
  H   H1418     1.0  0.92851  0.71258  0.80034  1.0000
  H   H1419     1.0  0.92329  0.66117  0.98078  1.0000
  C   C1191     1.0  0.90099  0.49564  0.97022  1.0000
  H   H1420     1.0  0.97999  0.51836  0.56632  1.0000
  H   H1421     1.0  0.88796  0.71582  0.80339  1.0000
  H   H1422     1.0  0.80108  0.51765  0.63900  1.0000
  S   S322      1.0  0.91332  0.70987  0.95246  1.0000
  H   H1423     1.0  0.85801  0.72828  0.76301  1.0000
  H   H1424     1.0  0.96938  0.57517  0.98604  1.0000
  H   H1425     1.0  0.99429  0.55032  0.96979  1.0000
  C   C1192     1.0  0.84178  0.71992  0.67030  1.0000
  C   C1193     1.0  0.87212  0.49390  0.54581  1.0000
  H   H1426     1.0  0.88834  0.51977  0.97167  1.0000
  C   C1194     1.0  0.94160  0.52028  0.59777  1.0000
  Fe  Fe161     1.0  0.75645  0.54397  0.53914  1.0000
  H   H1427     1.0  0.86403  0.48709  0.87613  1.0000
  H   H1428     1.0  0.58596  0.63857  0.72490  1.0000
  H   H1429     1.0  0.92936  0.53681  0.99133  1.0000
  C   C1195     1.0  0.01049  0.58238  0.00587  1.0000
  H   H1430     1.0  0.88024  0.58121  0.01152  1.0000
  H   H1431     1.0  0.55356  0.62772  0.72229  1.0000
  C   C1196     1.0  0.91113  0.48400  0.59641  1.0000
  H   H1432     1.0  0.90371  0.70243  0.77579  1.0000
  C   C1197     1.0  0.00752  0.55826  0.98161  1.0000
  C   C1198     1.0  0.88017  0.48858  0.60240  1.0000
  H   H1433     1.0  0.87394  0.61157  0.51583  1.0000
  C   C1199     1.0  0.90718  0.71360  0.78600  1.0000
  C   C1200     1.0  0.87713  0.72732  0.74516  1.0000
  H   H1434     1.0  0.87142  0.48841  0.62670  1.0000
  H   H1435     1.0  0.89940  0.56981  0.52701  1.0000
  C   C1201     1.0  0.97920  0.71897  0.68911  1.0000
  H   H1436     1.0  0.89032  0.53026  0.52400  1.0000
  S   S323      1.0  0.00504  0.48492  0.63709  1.0000
  C   C1202     1.0  0.93222  0.72329  0.73624  1.0000
  H   H1437     1.0  0.85716  0.49770  0.52623  1.0000
  N   N79       1.0  0.89055  0.67291  0.01243  1.0000
  Fe  Fe162     1.0  0.79334  0.54659  0.01221  1.0000
  H   H1438     1.0  0.99680  0.71722  0.67076  1.0000
  C   C1203     1.0  0.89460  0.48134  0.78502  1.0000
  N   N80       1.0  0.90764  0.72596  0.76057  1.0000
  Fe  Fe163     1.0  0.01662  0.72119  0.59253  1.0000
  H   H1439     1.0  0.82329  0.60177  0.52079  1.0000
  C   C1204     1.0  0.90069  0.73065  0.90141  1.0000
  S   S324      1.0  0.54975  0.84352  0.41538  1.0000
  S   S325      1.0  0.79917  0.95910  0.29671  1.0000
  Fe  Fe164     1.0  0.67653  0.87370  0.29221  1.0000
  S   S326      1.0  0.66750  0.88501  0.24360  1.0000
  S   S327      1.0  0.64055  0.88153  0.32907  1.0000
  Fe  Fe165     1.0  0.73581  0.85584  0.26909  1.0000
  S   S328      1.0  0.72992  0.86574  0.21893  1.0000
  S   S329      1.0  0.77335  0.83665  0.28048  1.0000
  Fe  Fe166     1.0  0.71802  0.88808  0.24225  1.0000
  S   S330      1.0  0.73552  0.90985  0.21990  1.0000
  Fe  Fe167     1.0  0.67984  0.86189  0.22488  1.0000
  S   S331      1.0  0.65220  0.84934  0.19044  1.0000
  S   S332      1.0  0.72669  0.87846  0.29230  1.0000
  S   S333      1.0  0.68616  0.85033  0.27367  1.0000
  C   C1205     1.0  0.00371  0.75819  0.10670  1.0000
  S   S334      1.0  0.95560  0.75701  0.06420  1.0000
  C   C1206     1.0  0.55713  0.85751  0.28580  1.0000
  H   H1440     1.0  0.62212  0.90584  0.48413  1.0000
  H   H1441     1.0  0.56158  0.87939  0.48630  1.0000
  H   H1442     1.0  0.85687  0.86368  0.20232  1.0000
  H   H1443     1.0  0.54280  0.86853  0.28404  1.0000
  Fe  Fe168     1.0  0.95762  0.81515  0.26760  1.0000
  S   S335      1.0  0.95367  0.78997  0.26363  1.0000
  S   S336      1.0  0.91959  0.83475  0.26601  1.0000
  Fe  Fe169     1.0  0.98251  0.78708  0.30826  1.0000
  C   C1207     1.0  0.99803  0.77053  0.15805  1.0000
  Fe  Fe170     1.0  0.99863  0.78987  0.23629  1.0000
  H   H1444     1.0  0.61493  0.83926  0.24411  1.0000
  S   S337      1.0  0.98413  0.81224  0.31334  1.0000
  S   S338      1.0  0.00084  0.81547  0.23707  1.0000
  C   C1208     1.0  0.99869  0.75950  0.45082  1.0000
  C   C1209     1.0  0.58164  0.87548  0.47141  1.0000
  C   C1210     1.0  0.72805  0.96721  0.35700  1.0000
  C   C1211     1.0  0.97765  0.76753  0.38791  1.0000
  H   H1445     1.0  0.54014  0.91814  0.02093  1.0000
  S   S339      1.0  0.96415  0.77142  0.34824  1.0000
  C   C1212     1.0  0.01333  0.79239  0.04851  1.0000
  C   C1213     1.0  0.59725  0.86836  0.25421  1.0000
  H   H1446     1.0  0.94616  0.87285  0.23076  1.0000
  C   C1214     1.0  0.97256  0.76175  0.10038  1.0000
  C   C1215     1.0  0.57917  0.89979  0.44276  1.0000
  H   H1447     1.0  0.57036  0.85757  0.30829  1.0000
  C   C1216     1.0  0.51908  0.94876  0.03090  1.0000
  C   C1217     1.0  0.96682  0.77395  0.15184  1.0000
  H   H1448     1.0  0.58534  0.83112  0.26874  1.0000
  H   H1449     1.0  0.59034  0.89879  0.50580  1.0000
  C   C1218     1.0  0.95962  0.75947  0.40998  1.0000
  C   C1219     1.0  0.98667  0.79725  0.06638  1.0000
  C   C1220     1.0  0.96988  0.75565  0.44137  1.0000
  C   C1221     1.0  0.81373  0.83651  0.27413  1.0000
  C   C1222     1.0  0.83081  0.82270  0.26779  1.0000
  C   C1223     1.0  0.86312  0.82195  0.26467  1.0000
  C   C1224     1.0  0.87882  0.83496  0.26863  1.0000
  C   C1225     1.0  0.86172  0.84872  0.27527  1.0000
  C   C1226     1.0  0.82942  0.84951  0.27786  1.0000
  H   H1450     1.0  0.81893  0.81253  0.26511  1.0000
  H   H1451     1.0  0.87580  0.81132  0.25915  1.0000
  H   H1452     1.0  0.87359  0.85882  0.27883  1.0000
  H   H1453     1.0  0.81663  0.86000  0.28389  1.0000
  C   C1227     1.0  0.62342  0.85787  0.16443  1.0000
  C   C1228     1.0  0.60811  0.84854  0.14468  1.0000
  C   C1229     1.0  0.58471  0.85482  0.12406  1.0000
  C   C1230     1.0  0.57644  0.87052  0.12304  1.0000
  C   C1231     1.0  0.59185  0.87985  0.14267  1.0000
  C   C1232     1.0  0.61521  0.87357  0.16330  1.0000
  H   H1454     1.0  0.61439  0.83639  0.14533  1.0000
  H   H1455     1.0  0.57315  0.84754  0.10895  1.0000
  H   H1456     1.0  0.58576  0.89202  0.14186  1.0000
  H   H1457     1.0  0.62700  0.88090  0.17811  1.0000
  C   C1233     1.0  0.78040  0.94585  0.27518  1.0000
  C   C1234     1.0  0.76931  0.93309  0.29166  1.0000
  C   C1235     1.0  0.75467  0.92219  0.27521  1.0000
  C   C1236     1.0  0.75132  0.92390  0.24204  1.0000
  C   C1237     1.0  0.76218  0.93673  0.22564  1.0000
  C   C1238     1.0  0.77655  0.94771  0.24213  1.0000
  H   H1458     1.0  0.77221  0.93158  0.31723  1.0000
  H   H1459     1.0  0.74633  0.91239  0.28812  1.0000
  H   H1460     1.0  0.75963  0.93816  0.20000  1.0000
  H   H1461     1.0  0.78492  0.95751  0.22921  1.0000
  C   C1239     1.0  0.57323  0.85394  0.38880  1.0000
  C   C1240     1.0  0.56764  0.86969  0.38317  1.0000
  C   C1241     1.0  0.58815  0.87787  0.36419  1.0000
  C   C1242     1.0  0.61410  0.87038  0.35000  1.0000
  C   C1243     1.0  0.61891  0.85449  0.35419  1.0000
  C   C1244     1.0  0.59863  0.84633  0.37369  1.0000
  H   H1462     1.0  0.54776  0.87561  0.39389  1.0000
  H   H1463     1.0  0.58410  0.89013  0.36073  1.0000
  H   H1464     1.0  0.63887  0.84859  0.34349  1.0000
  H   H1465     1.0  0.60306  0.83412  0.37774  1.0000
  H   H1466     1.0  0.64115  0.90670  0.43173  1.0000
  H   H1467     1.0  0.95246  0.78007  0.16900  1.0000
  H   H1468     1.0  0.93012  0.77247  0.11848  1.0000
  N   N81       1.0  0.89272  0.81221  0.36217  1.0000
  C   C1245     1.0  0.90396  0.80165  0.33731  1.0000
  C   C1246     1.0  0.85912  0.81553  0.35776  1.0000
  C   C1247     1.0  0.90717  0.82683  0.35674  1.0000
  C   C1248     1.0  0.90114  0.80530  0.39412  1.0000
  C   C1249     1.0  0.93249  0.80202  0.40223  1.0000
  C   C1250     1.0  0.87898  0.80145  0.41776  1.0000
  C   C1251     1.0  0.94111  0.79549  0.43215  1.0000
  C   C1252     1.0  0.88791  0.79477  0.44755  1.0000
  C   C1253     1.0  0.91890  0.79179  0.45470  1.0000
  H   H1469     1.0  0.89444  0.79033  0.34099  1.0000
  H   H1470     1.0  0.89798  0.80631  0.31287  1.0000
  H   H1471     1.0  0.92925  0.79948  0.33740  1.0000
  H   H1472     1.0  0.84686  0.80491  0.35947  1.0000
  H   H1473     1.0  0.85376  0.82097  0.33369  1.0000
  H   H1474     1.0  0.84911  0.82360  0.37546  1.0000
  H   H1475     1.0  0.90026  0.83270  0.33351  1.0000
  H   H1476     1.0  0.90066  0.83479  0.37597  1.0000
  H   H1477     1.0  0.93263  0.82520  0.35575  1.0000
  H   H1478     1.0  0.95069  0.80416  0.38521  1.0000
  H   H1479     1.0  0.85462  0.80336  0.41377  1.0000
  H   H1480     1.0  0.96522  0.79291  0.43761  1.0000
  C   C1254     1.0  0.55948  0.84162  0.21001  1.0000
  H   H1481     1.0  0.93754  0.75620  0.40275  1.0000
  H   H1482     1.0  0.53973  0.91299  0.10815  1.0000
  C   C1255     1.0  0.01646  0.76781  0.42894  1.0000
  S   S340      1.0  0.01557  0.77601  0.19334  1.0000
  H   H1483     1.0  0.98295  0.73656  0.15093  1.0000
  H   H1484     1.0  0.55547  0.90701  0.05460  1.0000
  H   H1485     1.0  0.59533  0.86669  0.48633  1.0000
  H   H1486     1.0  0.61183  0.86753  0.23227  1.0000
  H   H1487     1.0  0.66603  0.85240  0.40872  1.0000
  H   H1488     1.0  0.69743  0.87232  0.38541  1.0000
  C   C1256     1.0  0.55897  0.85476  0.22856  1.0000
  H   H1489     1.0  0.61287  0.86865  0.27487  1.0000
  H   H1490     1.0  0.57440  0.83147  0.21533  1.0000
  H   H1491     1.0  0.87073  0.79178  0.46518  1.0000
  C   C1257     1.0  0.64594  0.89473  0.42752  1.0000
  N   N82       1.0  0.57768  0.85536  0.25762  1.0000
  C   C1258     1.0  0.54117  0.84144  0.18294  1.0000
  N   N83       1.0  0.01207  0.78739  0.01531  1.0000
  C   C1259     1.0  0.52127  0.86734  0.19084  1.0000
  N   N84       1.0  0.59992  0.88836  0.46081  1.0000
  C   C1260     1.0  0.59840  0.84135  0.26426  1.0000
  C   C1261     1.0  0.67849  0.87540  0.40146  1.0000
  H   H1492     1.0  0.68473  0.89933  0.39710  1.0000
  H   H1493     1.0  0.54142  0.84819  0.28868  1.0000
  H   H1494     1.0  0.74554  0.95975  0.34414  1.0000
  H   H1495     1.0  0.58385  0.87962  0.25276  1.0000
  H   H1496     1.0  0.81384  0.87727  0.18229  1.0000
  H   H1497     1.0  0.96563  0.78067  0.01664  1.0000
  H   H1498     1.0  0.91087  0.85590  0.20802  1.0000
  H   H1499     1.0  0.69635  0.97576  0.30457  1.0000
  C   C1262     1.0  0.95423  0.76961  0.12314  1.0000
  H   H1500     1.0  0.57233  0.86992  0.45076  1.0000
  Fe  Fe171     1.0  0.97489  0.74063  0.02681  1.0000
  H   H1501     1.0  0.62625  0.88724  0.50389  1.0000
  C   C1263     1.0  0.66071  0.86420  0.41456  1.0000
  H   H1502     1.0  0.78213  0.88452  0.20561  1.0000
  H   H1503     1.0  0.92668  0.89853  0.24745  1.0000
  H   H1504     1.0  0.61256  0.84231  0.28586  1.0000
  H   H1505     1.0  0.87229  0.90712  0.24234  1.0000
  S   S341      1.0  0.54738  0.87911  0.09747  1.0000
  H   H1506     1.0  0.62181  0.85891  0.44203  1.0000
  H   H1507     1.0  0.95560  0.74974  0.45828  1.0000
  C   C1264     1.0  0.53911  0.86758  0.21823  1.0000
  H   H1508     1.0  0.55764  0.90283  0.45637  1.0000
  N   N85       1.0  0.82588  0.89157  0.21989  1.0000
  C   C1265     1.0  0.81412  0.89495  0.25244  1.0000
  C   C1266     1.0  0.82164  0.90565  0.19890  1.0000
  C   C1267     1.0  0.80674  0.88013  0.20703  1.0000
  C   C1268     1.0  0.85891  0.88642  0.22156  1.0000
  C   C1269     1.0  0.87105  0.87190  0.21161  1.0000
  C   C1270     1.0  0.87996  0.89595  0.23423  1.0000
  C   C1271     1.0  0.90225  0.86724  0.21469  1.0000
  C   C1272     1.0  0.91111  0.89115  0.23725  1.0000
  C   C1273     1.0  0.92218  0.87677  0.22769  1.0000
  H   H1509     1.0  0.82213  0.90569  0.26109  1.0000
  H   H1510     1.0  0.78863  0.89634  0.25336  1.0000
  H   H1511     1.0  0.82136  0.88557  0.27008  1.0000
  H   H1512     1.0  0.83243  0.91543  0.20864  1.0000
  H   H1513     1.0  0.79691  0.90949  0.19589  1.0000
  H   H1514     1.0  0.83158  0.90375  0.17468  1.0000
  H   H1515     1.0  0.80752  0.86945  0.22255  1.0000
  H   H1516     1.0  0.92581  0.78643  0.47762  1.0000
  C   C1274     1.0  0.00596  0.77190  0.39774  1.0000
  H   H1517     1.0  0.54247  0.83147  0.16861  1.0000
  C   C1275     1.0  0.62690  0.88365  0.44075  1.0000
  C   C1276     1.0  0.63515  0.86817  0.43378  1.0000
  C   C1277     1.0  0.54629  0.91875  0.04647  1.0000
  S   S342      1.0  0.01381  0.75399  0.48927  1.0000
  C   C1278     1.0  0.52927  0.92443  0.09952  1.0000
  C   C1279     1.0  0.67118  0.89064  0.40797  1.0000
  H   H1518     1.0  0.57246  0.89537  0.41975  1.0000
  H   H1519     1.0  0.01247  0.76395  0.03145  1.0000
  H   H1520     1.0  0.58975  0.91067  0.43725  1.0000
  H   H1521     1.0  0.96379  0.79735  0.05701  1.0000
  C   C1280     1.0  0.61017  0.89536  0.48988  1.0000
  C   C1281     1.0  0.98879  0.80159  0.09789  1.0000
  H   H1522     1.0  0.56558  0.92614  0.04822  1.0000
  H   H1523     1.0  0.73631  0.97453  0.29520  1.0000
  H   H1524     1.0  0.73561  0.96710  0.38222  1.0000
  H   H1525     1.0  0.72486  0.97682  0.12387  1.0000
  H   H1526     1.0  0.70592  0.96179  0.35680  1.0000
  H   H1527     1.0  0.96814  0.80481  0.11145  1.0000
  H   H1528     1.0  0.53979  0.94502  0.01820  1.0000
  C   C1282     1.0  0.01631  0.76255  0.13537  1.0000
  H   H1529     1.0  0.53758  0.87798  0.23100  1.0000
  C   C1283     1.0  0.52226  0.85428  0.17327  1.0000
  C   C1284     1.0  0.01719  0.80109  0.11265  1.0000
  H   H1530     1.0  0.54664  0.93285  0.10206  1.0000
  C   C1285     1.0  0.01264  0.73672  0.35320  1.0000
  H   H1531     1.0  0.01852  0.80389  0.13752  1.0000
  Fe  Fe172     1.0  0.81386  0.98113  0.27253  1.0000
  H   H1532     1.0  0.01820  0.75224  0.08942  1.0000
  N   N86       1.0  0.51926  0.92424  0.06592  1.0000
  H   H1533     1.0  0.58921  0.78660  0.96283  1.0000
  Fe  Fe173     1.0  0.73748  0.73333  0.77286  1.0000
  S   S343      1.0  0.55562  0.75687  0.78347  1.0000
  C   C1286     1.0  0.60662  0.76496  0.68124  1.0000
  H   H1534     1.0  0.53305  0.82735  0.62624  1.0000
  H   H1535     1.0  0.87367  0.73768  0.72906  1.0000
  S   S344      1.0  0.96642  0.74463  0.97388  1.0000
  C   C1287     1.0  0.57509  0.81127  0.82963  1.0000
  S   S345      1.0  0.99697  0.74527  0.58192  1.0000
  H   H1536     1.0  0.57812  0.80776  0.80453  1.0000
  H   H1537     1.0  0.62220  0.78178  0.86025  1.0000
  H   H1538     1.0  0.55933  0.83265  0.93426  1.0000
  H   H1539     1.0  0.91007  0.75043  0.75897  1.0000
  H   H1540     1.0  0.63164  0.80111  0.85253  1.0000
  H   H1541     1.0  0.96951  0.80010  0.00180  1.0000
  C   C1288     1.0  0.65133  0.74792  0.69822  1.0000
  S   S346      1.0  0.91310  0.74758  0.61688  1.0000
  H   H1542     1.0  0.66081  0.73726  0.70956  1.0000
  C   C1289     1.0  0.65906  0.77302  0.67548  1.0000
  S   S347      1.0  0.70143  0.75360  0.76657  1.0000
  H   H1543     1.0  0.97800  0.75498  0.84508  1.0000
  H   H1544     1.0  0.56115  0.74531  0.67364  1.0000
  H   H1545     1.0  0.57624  0.78326  0.63456  1.0000
  H   H1546     1.0  0.52661  0.92087  0.74331  1.0000
  H   H1547     1.0  0.98536  0.76099  0.78718  1.0000
  C   C1290     1.0  0.55468  0.75560  0.68742  1.0000
  H   H1548     1.0  0.88929  0.74680  0.86213  1.0000
  H   H1549     1.0  0.60221  0.73223  0.79129  1.0000
  H   H1550     1.0  0.52968  0.75855  0.68372  1.0000
  C   C1291     1.0  0.88386  0.73621  0.87428  1.0000
  C   C1292     1.0  0.56622  0.77257  0.64316  1.0000
  C   C1293     1.0  0.64592  0.74135  0.78147  1.0000
  H   H1551     1.0  0.93460  0.73994  0.78786  1.0000
  C   C1294     1.0  0.86402  0.74397  0.65756  1.0000
  C   C1295     1.0  0.61958  0.75081  0.69489  1.0000
  S   S348      1.0  0.52192  0.80111  0.76859  1.0000
  C   C1296     1.0  0.56260  0.78161  0.69651  1.0000
  C   C1297     1.0  0.59620  0.75640  0.77940  1.0000
  H   H1552     1.0  0.52212  0.90190  0.78845  1.0000
  C   C1298     1.0  0.56777  0.82126  0.92777  1.0000
  C   C1299     1.0  0.66107  0.75435  0.77284  1.0000
  C   C1300     1.0  0.64360  0.76841  0.76779  1.0000
  C   C1301     1.0  0.61136  0.76945  0.77110  1.0000
  C   C1302     1.0  0.99652  0.74905  0.83196  1.0000
  H   H1553     1.0  0.69548  0.75687  0.69261  1.0000
  H   H1554     1.0  0.65515  0.77850  0.76089  1.0000
  H   H1555     1.0  0.59838  0.78034  0.76721  1.0000
  H   H1556     1.0  0.56658  0.77892  0.72237  1.0000
  C   C1303     1.0  0.98048  0.78823  0.00235  1.0000
  H   H1557     1.0  0.55057  0.81571  0.83230  1.0000
  Fe  Fe174     1.0  0.95077  0.73561  0.58708  1.0000
  S   S349      1.0  0.78571  0.73865  0.75877  1.0000
  H   H1558     1.0  0.61922  0.78708  0.66158  1.0000
  C   C1304     1.0  0.57991  0.80261  0.88671  1.0000
  H   H1559     1.0  0.67449  0.78168  0.66860  1.0000
  N   N87       1.0  0.57315  0.76848  0.67723  1.0000
  H   H1560     1.0  0.60577  0.74190  0.70396  1.0000
  H   H1561     1.0  0.56878  0.77546  0.86153  1.0000
  H   H1562     1.0  0.56423  0.78287  0.82160  1.0000
  C   C1305     1.0  0.84203  0.73562  0.67404  1.0000
  H   H1563     1.0  0.98033  0.78433  0.97745  1.0000
  C   C1306     1.0  0.58420  0.79526  0.94394  1.0000
  C   C1307     1.0  0.57459  0.81009  0.95184  1.0000
  C   C1308     1.0  0.56278  0.78614  0.84693  1.0000
  H   H1564     1.0  0.89392  0.74274  0.79496  1.0000
  H   H1565     1.0  0.82512  0.74135  0.68935  1.0000
  H   H1566     1.0  0.01403  0.73613  0.87353  1.0000
  H   H1567     1.0  0.91894  0.73692  0.90997  1.0000
  H   H1568     1.0  0.53650  0.91931  0.95406  1.0000
  H   H1569     1.0  0.53839  0.78989  0.85217  1.0000
  Fe  Fe175     1.0  0.99524  0.73893  0.53023  1.0000
  C   C1309     1.0  0.61540  0.79261  0.84643  1.0000
  H   H1570     1.0  0.61925  0.79007  0.82085  1.0000
  H   H1571     1.0  0.86395  0.75613  0.66033  1.0000
  H   H1572     1.0  0.57158  0.81291  0.97669  1.0000
  C   C1310     1.0  0.88588  0.73671  0.63724  1.0000
  H   H1573     1.0  0.56329  0.82679  0.87847  1.0000
  H   H1574     1.0  0.91790  0.74334  0.70546  1.0000
  H   H1575     1.0  0.59446  0.77988  0.90698  1.0000
  H   H1576     1.0  0.54104  0.77468  0.63915  1.0000
  C   C1311     1.0  0.00066  0.75237  0.79940  1.0000
  C   C1312     1.0  0.61367  0.74239  0.78471  1.0000
  H   H1577     1.0  0.55730  0.75252  0.71343  1.0000
  C   C1313     1.0  0.58695  0.79154  0.91189  1.0000
  N   N88       1.0  0.58315  0.79836  0.85297  1.0000
  C   C1314     1.0  0.57006  0.81764  0.89565  1.0000
  C   C1315     1.0  0.91183  0.74039  0.77622  1.0000
  S   S350      1.0  0.52420  0.95166  0.94259  1.0000
  C   C1316     1.0  0.62738  0.77598  0.67167  1.0000
  H   H1578     1.0  0.57521  0.76331  0.62754  1.0000
  H   H1579     1.0  0.95827  0.73927  0.66541  1.0000
  H   H1580     1.0  0.58998  0.82079  0.83228  1.0000
  C   C1317     1.0  0.67099  0.75901  0.68874  1.0000
  Fe  Fe176     1.0  0.01504  0.73434  0.96739  1.0000
  H   H1581     1.0  0.57411  0.79211  0.68959  1.0000
  H   H1582     1.0  0.53767  0.78472  0.69347  1.0000
  H   H1583     1.0  0.52369  0.91800  0.61469  1.0000
  S   S351      1.0  0.83927  0.73592  0.82903  1.0000
  C   C1318     1.0  0.01675  0.73835  0.84795  1.0000
  C   C1319     1.0  0.93435  0.73358  0.70926  1.0000
  H   H1584     1.0  0.53052  0.92863  0.53379  1.0000
  C   C1320     1.0  0.95750  0.73140  0.68615  1.0000
  S   S352      1.0  0.94749  0.73127  0.53473  1.0000
