data_image0
_chemical_formula_structural       CSHFeCSFeHFeHCSHC3FeHC2S2HC2HC2HFeCFeHC3H2C3H2C3HSH5C2HSH2FeHNCHSC2NCH3CH3CH2C3HC2HCHSHC2H2C2H3FeHC3H5C3NC8H6CHC2HCSH6SCH8SHSCS2HCSCNHCFeSHFeS2FeSFeS3FeS2FeS2FeSFeS3H2FeS2FeH3FeCS2FeHSHSC3FeS2CHCSC3H2SHSHCH3CNH3C2SC6H4C6H5C6H6CHC7H6NC8H2CH7CHC2HCH4CNC5H3CH3CHSH4CHCHNCH2CHC4FeH5CHSH2C2HC2NH3CH5CNC9H16C2NH4C3HNH2C3H2CH3C2HCHCH5CH2CHCHCH2S2HFeC5HS2FeCSFeSH3SHCSHC2HFeS2H3CH2SHFeHCH8CHCH3CH2CHC2H3C2NHCHC6H2CS2C2HC3H3FeHSCH2C2SHCFeHSHFeH2CH2NC2HCNC9H4C2HC3NH2CFeH3C3HS2H3C2FeS2FeS2FeSFeS3FeS2FeS2FeSFeS3H2FeS2FeSFeCFeHS2Fe2SCSH3FeS2HS2HCH5CSHCHCHFeHC3HCHC6H4C6H4SC6H7C8H6CH8CHC2H2CNCFeH2SCHNC9H14CNC9H14NC9H12CHSN2H3CHC2NC9H10CHCHCHCSC3H4CH4CHCHC3HCH3CHCHCSH2FeS2FeS2FeSFeS3C3H2CHSFeS3H2CH4C6H4C6H4C2H3C4HSHC3H4CHFeNC7NHFeNH7C2H10C2SHCHCH2CH2CH4CH3NHCHNC4H9CSC2HCHC3HNC9H11CH2CSFeSH3C4HCHCSCHCHCFeS2FeS2FeSFeS3HS2FeS2HCHFeCH3C7H4C6H4CSH2C3HSC4H7C3H2NC3HC4H2CH9C2HCHCHSHNCH2CHC3H2C3HCNC5H11CH6C5H2C3HNC2H2C2H4SHCH2C2FeH4FeS2FeS2FeSFeS3H2SH3CSFeS3HCH2CH2C6H4C6H6CHC5H4CH4NC2FeHCH2C2HCHCH2CH2CHNHFeH4C2HCSCHCH2CH4C4H2C2HCNC9H3C2H5CHSHC4FeH2CH3CHC2H4C3HNC2HC2FeS2FeS2FeSFeS6FeS2CH4SH2C7H4C6H4C3HCH2CHC5H2C3NHCHCH2C3H2CHCFeHCH4CH5CHC2H2NH2C2HC2H3CH2CNH3CHSFeCHCHC3H9C2HCHCH6CFeH2C3HSCHCHSCHCFeNC4H2C2H3CH4C2HCHCHFeS2FeSCFeSFeS3FeS2FeS2FeSFeS3FeS2CSC2HFeS2HFeS2Fe2HCHS2H2FeCH2CHFeH4CHCSH2NC6H4C6H4CH4C6H4C3H3C2H3C7HCHCHCHCHCH3CH3CH3CH2C2HNHSFeCHCHNC9H16C3NC4HC2SC2HCHNHCHC3H9NHC6H7CHCH2C2H2NC9H5CH9CHCH3C2HCH5CHSH5CHC3H2CFeHSCSHCHFeHSHCHCH3FeHFeS2CHCHCNCH2CH2CHC2SHFeHCHCSHC6HCH4NSH3CHSCFeH3FeHNHSCHCSFeC4H3C4H2C3H5CS2CH2C3NC6HC2H12CHNHCSC4HCFeHCSHC2HC2H4C4HSHSH2CSFeS2FeSHFeSFeS3FeS2FeS2FeSFeS3FeCSCSH3FeS2Fe2S2CFeSFeCS2H2C3SH2FeH5C3H2C7H4C6H4CSCH2C6H4CH5C2SH3C6H3SCNHNC9H14NH4C2H2C2H8C2H2SC2HC2HC2NC9H16NH2C3HCHC2SCHCHCHC2HFeHSCH3C4NHC4HC2H2C2H9CH2CHCNSH3C2H2C4H2C5H2CH3CHFeCSCSCH2FeCSC2H5FeCFeS2CH2CH2CH2C2H3CHCHFeSC2HCSH2C2HNHC2NCHSC4HCH2CNHCHCH3CH2CH2C2H2C2SH2CHC3H2C2HCHCH3FeCSH2C2HSCSH2FeHSCH5CHCH3SCH3CH2SC3H4SHCNHC4HCH
_chemical_formula_sum              "C960 S256 H1152 Fe128 N64"
_cell_length_a       80.7649
_cell_length_b       45.934
_cell_length_c       36.4509
_cell_angle_alpha    89.8964
_cell_angle_beta     94.6921
_cell_angle_gamma    88.8542

_space_group_name_H-M_alt    "P 1"
_space_group_IT_number       1

loop_
  _space_group_symop_operation_xyz
  'x, y, z'

loop_
  _atom_site_type_symbol
  _atom_site_label
  _atom_site_symmetry_multiplicity
  _atom_site_fract_x
  _atom_site_fract_y
  _atom_site_fract_z
  _atom_site_occupancy
  C   C1        1.0  0.21693  0.49479  0.18583  1.0000
  S   S1        1.0  0.27344  0.46257  0.37291  1.0000
  H   H1        1.0  0.29820  0.29235  0.01957  1.0000
  Fe  Fe1       1.0  0.25092  0.03632  0.40078  1.0000
  C   C2        1.0  0.24049  0.23519  0.49134  1.0000
  S   S2        1.0  0.23953  0.08278  0.40384  1.0000
  Fe  Fe2       1.0  0.25366  0.46009  0.41360  1.0000
  H   H2        1.0  0.01232  0.14171  0.40012  1.0000
  Fe  Fe3       1.0  0.28478  0.00300  0.39337  1.0000
  H   H3        1.0  0.25210  0.44965  0.16822  1.0000
  C   C3        1.0  0.02246  0.19982  0.45319  1.0000
  S   S3        1.0  0.26824  0.03184  0.35596  1.0000
  H   H4        1.0  0.18069  0.05485  0.19898  1.0000
  C   C4        1.0  0.23979  0.39593  0.24278  1.0000
  C   C5        1.0  0.22781  0.35933  0.02323  1.0000
  C   C6        1.0  0.22694  0.38995  0.02104  1.0000
  Fe  Fe4       1.0  0.21854  0.47277  0.02156  1.0000
  H   H5        1.0  0.00058  0.14319  0.33855  1.0000
  C   C7        1.0  0.28131  0.40600  0.06726  1.0000
  C   C8        1.0  0.23247  0.39322  0.20685  1.0000
  S   S4        1.0  0.19730  0.45735  0.05167  1.0000
  S   S5        1.0  0.18023  0.02161  0.04424  1.0000
  H   H6        1.0  0.20184  0.09565  0.30572  1.0000
  C   C9        1.0  0.22074  0.10636  0.99463  1.0000
  C   C10       1.0  0.23260  0.38099  0.12503  1.0000
  H   H7        1.0  0.22907  0.36239  0.14208  1.0000
  C   C11       1.0  0.29438  0.35398  0.09825  1.0000
  C   C12       1.0  0.24855  0.43366  0.18767  1.0000
  H   H8        1.0  0.13755  0.01379  0.99678  1.0000
  Fe  Fe5       1.0  0.20205  0.49677  0.08748  1.0000
  C   C13       1.0  0.28077  0.40090  0.10482  1.0000
  Fe  Fe6       1.0  0.18084  0.48635  0.01349  1.0000
  H   H9        1.0  0.03191  0.15599  0.45064  1.0000
  C   C14       1.0  0.25598  0.43584  0.22357  1.0000
  C   C15       1.0  0.01141  0.16385  0.40968  1.0000
  C   C16       1.0  0.22455  0.15295  0.46312  1.0000
  H   H10       1.0  0.20481  0.39182  0.15592  1.0000
  H   H11       1.0  0.21822  0.34770  0.03585  1.0000
  C   C17       1.0  0.26471  0.20876  0.47374  1.0000
  C   C18       1.0  0.27450  0.15534  0.44190  1.0000
  C   C19       1.0  0.24094  0.34367  0.00902  1.0000
  H   H12       1.0  0.25826  0.28290  0.48385  1.0000
  H   H13       1.0  0.21729  0.11793  0.28739  1.0000
  C   C20       1.0  0.26261  0.26282  0.46993  1.0000
  C   C21       1.0  0.21377  0.48703  0.22195  1.0000
  C   C22       1.0  0.29300  0.30965  0.03685  1.0000
  H   H14       1.0  0.22685  0.14174  0.40615  1.0000
  S   S6        1.0  0.26824  0.00993  0.44007  1.0000
  H   H15       1.0  0.20300  0.41276  0.11463  1.0000
  H   H16       1.0  0.20071  0.48030  0.45074  1.0000
  H   H17       1.0  0.21988  0.17477  0.45696  1.0000
  H   H18       1.0  0.27590  0.42598  0.05503  1.0000
  H   H19       1.0  0.20172  0.47875  0.22710  1.0000
  C   C23       1.0  0.23959  0.38978  0.46186  1.0000
  C   C24       1.0  0.23468  0.10551  0.44155  1.0000
  H   H20       1.0  0.32036  0.31748  0.08040  1.0000
  S   S7        1.0  0.23927  0.41960  0.42989  1.0000
  H   H21       1.0  0.19952  0.05432  0.14902  1.0000
  H   H22       1.0  0.29968  0.49723  0.28265  1.0000
  Fe  Fe7       1.0  0.25724  0.49746  0.34362  1.0000
  H   H23       1.0  0.27788  0.13481  0.42954  1.0000
  N   N1        1.0  0.22806  0.40953  0.14076  1.0000
  C   C25       1.0  0.27670  0.18158  0.42386  1.0000
  H   H24       1.0  0.24602  0.43221  0.11088  1.0000
  S   S8        1.0  0.20375  0.08262  0.99682  1.0000
  C   C26       1.0  0.99930  0.21254  0.40942  1.0000
  C   C27       1.0  0.01083  0.22022  0.43829  1.0000
  N   N2        1.0  0.30315  0.33619  0.03738  1.0000
  C   C28       1.0  0.28866  0.38540  0.04511  1.0000
  H   H25       1.0  0.27996  0.31433  0.02568  1.0000
  H   H26       1.0  0.23914  0.07788  0.02240  1.0000
  H   H27       1.0  0.22342  0.37638  0.20177  1.0000
  C   C29       1.0  0.27191  0.20801  0.43939  1.0000
  H   H28       1.0  0.28198  0.18133  0.39746  1.0000
  H   H29       1.0  0.25678  0.42003  0.27922  1.0000
  H   H30       1.0  0.22340  0.48369  0.27910  1.0000
  C   C30       1.0  0.23642  0.41231  0.17827  1.0000
  H   H31       1.0  0.31910  0.45750  0.38024  1.0000
  H   H32       1.0  0.31872  0.23780  0.03841  1.0000
  C   C31       1.0  0.25295  0.38408  0.48803  1.0000
  C   C32       1.0  0.28720  0.37488  0.12026  1.0000
  C   C33       1.0  0.23691  0.09829  0.00795  1.0000
  H   H33       1.0  0.20603  0.43065  0.15822  1.0000
  C   C34       1.0  0.21332  0.48784  0.46043  1.0000
  C   C35       1.0  0.99918  0.18407  0.39423  1.0000
  H   H34       1.0  0.22884  0.45466  0.12441  1.0000
  C   C36       1.0  0.23256  0.43260  0.11489  1.0000
  H   H35       1.0  0.22625  0.42975  0.08692  1.0000
  S   S9        1.0  0.20103  0.49021  0.14954  1.0000
  H   H36       1.0  0.26481  0.45287  0.23048  1.0000
  C   C37       1.0  0.22578  0.37139  0.46111  1.0000
  C   C38       1.0  0.22853  0.13409  0.43429  1.0000
  H   H37       1.0  0.24142  0.07421  0.48440  1.0000
  H   H38       1.0  0.26366  0.39790  0.48919  1.0000
  C   C39       1.0  0.23943  0.40514  0.00528  1.0000
  C   C40       1.0  0.02283  0.17177  0.43878  1.0000
  H   H39       1.0  0.27531  0.41712  0.12195  1.0000
  H   H40       1.0  0.99912  0.19651  0.32231  1.0000
  H   H41       1.0  0.24113  0.06883  0.22572  1.0000
  Fe  Fe8       1.0  0.20278  0.03543  0.01628  1.0000
  H   H42       1.0  0.19139  0.06315  0.26270  1.0000
  C   C41       1.0  0.25024  0.11670  0.00244  1.0000
  C   C42       1.0  0.20975  0.41115  0.14248  1.0000
  C   C43       1.0  0.26767  0.15540  0.47571  1.0000
  H   H43       1.0  0.22620  0.37788  0.09717  1.0000
  H   H44       1.0  0.20648  0.04230  0.31173  1.0000
  H   H45       1.0  0.22430  0.04994  0.34185  1.0000
  H   H46       1.0  0.29244  0.29995  0.06465  1.0000
  H   H47       1.0  0.10393  0.45455  0.00539  1.0000
  C   C44       1.0  0.10001  0.47540  0.01600  1.0000
  C   C45       1.0  0.25145  0.41735  0.25115  1.0000
  C   C46       1.0  0.29551  0.35873  0.06003  1.0000
  N   N3        1.0  0.22365  0.07223  0.28978  1.0000
  C   C47       1.0  0.24188  0.07659  0.29473  1.0000
  C   C48       1.0  0.21542  0.09839  0.30454  1.0000
  C   C49       1.0  0.21996  0.04669  0.31238  1.0000
  C   C50       1.0  0.21732  0.06749  0.25098  1.0000
  C   C51       1.0  0.20010  0.06333  0.24175  1.0000
  C   C52       1.0  0.22782  0.06679  0.22146  1.0000
  C   C53       1.0  0.19381  0.05878  0.20536  1.0000
  C   C54       1.0  0.22134  0.06262  0.18511  1.0000
  H   H48       1.0  0.21666  0.40174  0.03165  1.0000
  H   H49       1.0  0.24616  0.08031  0.32420  1.0000
  H   H50       1.0  0.24891  0.05698  0.28600  1.0000
  H   H51       1.0  0.24561  0.09591  0.27920  1.0000
  H   H52       1.0  0.23620  0.38171  0.26443  1.0000
  H   H53       1.0  0.22043  0.10317  0.33333  1.0000
  C   C55       1.0  0.08420  0.48696  0.00516  1.0000
  H   H54       1.0  0.22627  0.02667  0.30278  1.0000
  C   C56       1.0  0.22602  0.48993  0.25157  1.0000
  C   C57       1.0  0.20440  0.05855  0.17710  1.0000
  H   H55       1.0  0.24621  0.37908  0.12236  1.0000
  C   C58       1.0  0.32022  0.32864  0.05332  1.0000
  S   S10       1.0  0.31153  0.01839  0.38970  1.0000
  H   H56       1.0  0.22956  0.06164  0.16306  1.0000
  H   H57       1.0  0.28658  0.37080  0.14943  1.0000
  H   H58       1.0  0.31203  0.36521  0.99698  1.0000
  H   H59       1.0  0.21532  0.37551  0.44117  1.0000
  H   H60       1.0  0.03102  0.20568  0.47640  1.0000
  H   H61       1.0  0.21457  0.33392  0.48482  1.0000
  S   S11       1.0  0.23973  0.44362  0.00455  1.0000
  C   C59       1.0  0.22530  0.34771  0.48594  1.0000
  H   H62       1.0  0.25618  0.26328  0.44174  1.0000
  H   H63       1.0  0.22232  0.47049  0.45352  1.0000
  H   H64       1.0  0.26277  0.10990  0.01184  1.0000
  H   H65       1.0  0.27380  0.22745  0.42377  1.0000
  H   H66       1.0  0.23422  0.23180  0.46338  1.0000
  H   H67       1.0  0.29895  0.33391  0.11129  1.0000
  H   H68       1.0  0.27622  0.26494  0.46817  1.0000
  H   H69       1.0  0.01033  0.24186  0.45012  1.0000
  S   S12       1.0  0.24206  0.30534  0.01398  1.0000
  H   H70       1.0  0.28865  0.39082  0.01629  1.0000
  S   S13       1.0  0.26533  0.49443  0.45133  1.0000
  C   C60       1.0  0.23676  0.09606  0.47820  1.0000
  S   S14       1.0  0.22094  0.00911  0.05384  1.0000
  S   S15       1.0  0.27633  0.24319  0.00309  1.0000
  H   H71       1.0  0.12362  0.48250  0.04601  1.0000
  C   C61       1.0  0.11115  0.49114  0.03896  1.0000
  S   S16       1.0  0.23684  0.49278  0.38136  1.0000
  C   C62       1.0  0.30447  0.34535  0.99859  1.0000
  N   N4        1.0  0.25878  0.23607  0.49035  1.0000
  H   H72       1.0  0.26571  0.13490  0.48941  1.0000
  C   C63       1.0  0.26275  0.18160  0.49137  1.0000
  Fe  Fe9       1.0  0.22107  0.27760  0.56285  1.0000
  S   S17       1.0  0.23360  0.23735  0.58946  1.0000
  H   H73       1.0  0.23945  0.00646  0.98502  1.0000
  Fe  Fe10      1.0  0.18644  0.25556  0.57740  1.0000
  S   S18       1.0  0.19682  0.21384  0.60268  1.0000
  S   S19       1.0  0.15955  0.27287  0.57796  1.0000
  Fe  Fe11      1.0  0.21588  0.24179  0.63364  1.0000
  S   S20       1.0  0.21992  0.22835  0.69450  1.0000
  Fe  Fe12      1.0  0.21394  0.21185  0.55683  1.0000
  S   S21       1.0  0.22241  0.16642  0.53774  1.0000
  S   S22       1.0  0.20486  0.28381  0.61008  1.0000
  S   S23       1.0  0.20201  0.25189  0.52825  1.0000
  Fe  Fe13      1.0  0.06635  0.23222  0.64057  1.0000
  S   S24       1.0  0.05927  0.24324  0.69775  1.0000
  S   S25       1.0  0.09331  0.21820  0.63274  1.0000
  Fe  Fe14      1.0  0.02940  0.22762  0.60892  1.0000
  S   S26       1.0  0.02044  0.23813  0.66439  1.0000
  S   S27       1.0  0.01144  0.20929  0.56179  1.0000
  Fe  Fe15      1.0  0.03982  0.27299  0.66914  1.0000
  S   S28       1.0  0.03026  0.31676  0.69085  1.0000
  Fe  Fe16      1.0  0.04051  0.20774  0.68935  1.0000
  S   S29       1.0  0.03417  0.17989  0.73846  1.0000
  S   S30       1.0  0.04787  0.26429  0.61169  1.0000
  S   S31       1.0  0.04848  0.19495  0.63411  1.0000
  H   H74       1.0  0.18815  0.48847  0.54608  1.0000
  H   H75       1.0  0.02615  0.43052  0.66673  1.0000
  Fe  Fe17      1.0  0.26289  0.26013  0.89937  1.0000
  S   S32       1.0  0.24487  0.24444  0.93888  1.0000
  S   S33       1.0  0.25533  0.28075  0.84287  1.0000
  Fe  Fe18      1.0  0.29257  0.25824  0.95996  1.0000
  H   H76       1.0  0.25691  0.18022  0.51699  1.0000
  H   H77       1.0  0.03237  0.47835  0.66745  1.0000
  H   H78       1.0  0.26179  0.40103  0.97720  1.0000
  Fe  Fe19      1.0  0.26535  0.21287  0.95944  1.0000
  C   C64       1.0  0.12962  0.00232  0.97654  1.0000
  S   S34       1.0  0.28269  0.22639  0.91698  1.0000
  S   S35       1.0  0.27427  0.29336  0.93890  1.0000
  Fe  Fe20      1.0  0.04766  0.45219  0.83929  1.0000
  H   H79       1.0  0.10455  0.08999  0.89576  1.0000
  S   S36       1.0  0.05512  0.40713  0.81709  1.0000
  H   H80       1.0  0.22901  0.43992  0.50261  1.0000
  S   S37       1.0  0.04009  0.02671  0.88131  1.0000
  C   C65       1.0  0.06504  0.46989  0.73122  1.0000
  C   C66       1.0  0.11281  0.01101  0.96926  1.0000
  C   C67       1.0  0.25230  0.38941  0.99016  1.0000
  Fe  Fe21      1.0  0.04160  0.01353  0.82237  1.0000
  S   S38       1.0  0.04466  0.04338  0.77268  1.0000
  S   S39       1.0  0.05028  0.46302  0.90036  1.0000
  C   C68       1.0  0.22664  0.14347  0.49979  1.0000
  H   H81       1.0  0.10275  0.46118  0.91563  1.0000
  C   C69       1.0  0.01939  0.31431  0.87347  1.0000
  S   S40       1.0  0.08118  0.00831  0.93530  1.0000
  C   C70       1.0  0.04464  0.30429  0.82689  1.0000
  C   C71       1.0  0.99503  0.46625  0.97543  1.0000
  C   C72       1.0  0.11169  0.47526  0.92994  1.0000
  H   H82       1.0  0.22895  0.17338  0.95949  1.0000
  H   H83       1.0  0.00319  0.45015  0.96432  1.0000
  S   S41       1.0  0.23918  0.31182  0.54350  1.0000
  H   H84       1.0  0.16920  0.24447  0.77590  1.0000
  S   S42       1.0  0.06470  0.48797  0.82484  1.0000
  H   H85       1.0  0.11839  0.06093  0.88217  1.0000
  C   C73       1.0  0.24161  0.02818  0.97307  1.0000
  H   H86       1.0  0.03215  0.35381  0.88866  1.0000
  H   H87       1.0  0.05872  0.25329  0.80311  1.0000
  H   H88       1.0  0.23444  0.10723  0.53517  1.0000
  C   C74       1.0  0.10515  0.11854  0.76089  1.0000
  N   N5        1.0  0.24636  0.02587  0.93482  1.0000
  H   H89       1.0  0.26544  0.00346  0.90712  1.0000
  H   H90       1.0  0.01231  0.17804  0.63203  1.0000
  H   H91       1.0  0.10772  0.13243  0.73801  1.0000
  C   C75       1.0  0.20954  0.46881  0.52102  1.0000
  C   C76       1.0  0.99894  0.11677  0.67120  1.0000
  S   S43       1.0  0.32006  0.27027  0.96907  1.0000
  C   C77       1.0  0.03772  0.14201  0.74788  1.0000
  C   C78       1.0  0.03300  0.13043  0.78120  1.0000
  C   C79       1.0  0.03515  0.10045  0.78952  1.0000
  C   C80       1.0  0.04186  0.08153  0.76431  1.0000
  C   C81       1.0  0.04657  0.09314  0.73099  1.0000
  C   C82       1.0  0.04466  0.12317  0.72291  1.0000
  H   H92       1.0  0.02761  0.14470  0.80079  1.0000
  H   H93       1.0  0.03143  0.09192  0.81523  1.0000
  H   H94       1.0  0.05183  0.07876  0.71132  1.0000
  H   H95       1.0  0.04855  0.13165  0.69734  1.0000
  C   C83       1.0  0.03741  0.34129  0.72646  1.0000
  C   C84       1.0  0.02666  0.36386  0.73669  1.0000
  C   C85       1.0  0.03181  0.38426  0.76407  1.0000
  C   C86       1.0  0.04791  0.38259  0.78144  1.0000
  C   C87       1.0  0.05867  0.36003  0.77116  1.0000
  C   C88       1.0  0.05347  0.33948  0.74399  1.0000
  H   H96       1.0  0.01420  0.36553  0.72336  1.0000
  H   H97       1.0  0.02321  0.40097  0.77206  1.0000
  H   H98       1.0  0.07115  0.35844  0.78435  1.0000
  H   H99       1.0  0.06199  0.32255  0.73621  1.0000
  H   H100      1.0  0.26294  0.34691  0.98014  1.0000
  C   C89       1.0  0.14104  0.25682  0.59155  1.0000
  C   C90       1.0  0.14022  0.22726  0.60042  1.0000
  C   C91       1.0  0.12546  0.21590  0.61252  1.0000
  C   C92       1.0  0.11126  0.23377  0.61565  1.0000
  C   C93       1.0  0.11203  0.26328  0.60646  1.0000
  C   C94       1.0  0.12681  0.27467  0.59450  1.0000
  H   H101      1.0  0.15094  0.21310  0.59793  1.0000
  H   H102      1.0  0.12505  0.19303  0.61947  1.0000
  H   H103      1.0  0.10126  0.27734  0.60869  1.0000
  H   H104      1.0  0.12724  0.29754  0.58756  1.0000
  H   H105      1.0  0.25744  0.13613  0.89266  1.0000
  H   H106      1.0  0.15774  0.28695  0.65823  1.0000
  C   C95       1.0  0.99552  0.22067  0.52694  1.0000
  H   H107      1.0  0.00892  0.27491  0.85393  1.0000
  C   C96       1.0  0.23920  0.10486  0.90489  1.0000
  C   C97       1.0  0.23030  0.24324  0.73499  1.0000
  C   C98       1.0  0.23167  0.22641  0.76747  1.0000
  C   C99       1.0  0.23946  0.23732  0.80058  1.0000
  C   C100      1.0  0.24584  0.26541  0.80170  1.0000
  C   C101      1.0  0.24425  0.28243  0.76934  1.0000
  C   C102      1.0  0.23661  0.27140  0.73612  1.0000
  H   H108      1.0  0.22682  0.20462  0.76695  1.0000
  H   H109      1.0  0.24054  0.22397  0.82517  1.0000
  H   H110      1.0  0.24916  0.30417  0.76984  1.0000
  H   H111      1.0  0.23564  0.28463  0.71144  1.0000
  H   H112      1.0  0.01869  0.22899  0.83695  1.0000
  H   H113      1.0  0.31059  0.32819  0.98253  1.0000
  N   N6        1.0  0.17138  0.26255  0.70246  1.0000
  C   C103      1.0  0.16700  0.29009  0.68214  1.0000
  C   C104      1.0  0.18611  0.26823  0.72849  1.0000
  C   C105      1.0  0.15689  0.25185  0.72054  1.0000
  C   C106      1.0  0.15784  0.24332  0.75821  1.0000
  C   C107      1.0  0.14139  0.24836  0.69990  1.0000
  C   C108      1.0  0.14397  0.23250  0.77404  1.0000
  C   C109      1.0  0.12764  0.23743  0.71589  1.0000
  C   C110      1.0  0.12891  0.22958  0.75292  1.0000
  H   H114      1.0  0.16188  0.30673  0.70045  1.0000
  H   H115      1.0  0.18734  0.24759  0.66201  1.0000
  C   C111      1.0  0.01254  0.15509  0.64169  1.0000
  H   H116      1.0  0.19657  0.27713  0.71404  1.0000
  H   H117      1.0  0.19129  0.24779  0.74185  1.0000
  H   H118      1.0  0.18313  0.28420  0.74996  1.0000
  H   H119      1.0  0.13982  0.25357  0.67093  1.0000
  H   H120      1.0  0.14497  0.22604  0.80278  1.0000
  H   H121      1.0  0.11600  0.23470  0.69918  1.0000
  H   H122      1.0  0.11822  0.22095  0.76510  1.0000
  C   C112      1.0  0.03038  0.26733  0.76426  1.0000
  H   H123      1.0  0.17477  0.37386  0.93382  1.0000
  C   C113      1.0  0.06746  0.38639  0.68158  1.0000
  C   C114      1.0  0.25253  0.36025  0.51262  1.0000
  H   H124      1.0  0.17797  0.29937  0.66997  1.0000
  C   C115      1.0  0.24955  0.05545  0.92113  1.0000
  H   H125      1.0  0.06877  0.45516  0.75496  1.0000
  H   H126      1.0  0.12966  0.44057  0.94332  1.0000
  H   H127      1.0  0.10794  0.02924  0.98408  1.0000
  H   H128      1.0  0.28026  0.23842  0.52920  1.0000
  C   C116      1.0  0.21795  0.13381  0.97778  1.0000
  N   N7        1.0  0.09431  0.06301  0.85140  1.0000
  C   C117      1.0  0.09609  0.03218  0.84016  1.0000
  C   C118      1.0  0.10523  0.06716  0.88577  1.0000
  C   C119      1.0  0.07691  0.06858  0.86034  1.0000
  C   C120      1.0  0.09828  0.08220  0.82074  1.0000
  C   C121      1.0  0.06618  0.41355  0.69856  1.0000
  H   H129      1.0  0.26277  0.22145  0.54706  1.0000
  H   H130      1.0  0.03987  0.44388  0.75945  1.0000
  H   H131      1.0  0.22386  0.07136  0.92209  1.0000
  C   C122      1.0  0.05411  0.37559  0.65951  1.0000
  H   H132      1.0  0.10892  0.02715  0.83265  1.0000
  H   H133      1.0  0.09350  0.01699  0.86278  1.0000
  H   H134      1.0  0.08735  0.02673  0.81608  1.0000
  C   C123      1.0  0.99278  0.16642  0.68603  1.0000
  H   H135      1.0  0.10153  0.05314  0.90858  1.0000
  S   S44       1.0  0.02440  0.48009  0.82790  1.0000
  H   H136      1.0  0.03439  0.48105  0.74892  1.0000
  H   H137      1.0  0.18513  0.42234  0.95247  1.0000
  H   H138      1.0  0.07463  0.09205  0.86591  1.0000
  H   H139      1.0  0.05399  0.48230  0.66034  1.0000
  C   C124      1.0  0.11227  0.10066  0.82292  1.0000
  H   H140      1.0  0.22116  0.39708  0.53608  1.0000
  C   C125      1.0  0.05137  0.43093  0.69341  1.0000
  H   H141      1.0  0.29206  0.34927  0.98374  1.0000
  N   N8        1.0  0.03193  0.25768  0.80323  1.0000
  C   C126      1.0  0.04777  0.24088  0.81038  1.0000
  H   H142      1.0  0.07872  0.37322  0.68637  1.0000
  H   H143      1.0  0.27662  0.05095  0.91883  1.0000
  C   C127      1.0  0.03188  0.28352  0.82750  1.0000
  H   H144      1.0  0.26261  0.25984  0.54140  1.0000
  C   C128      1.0  0.01920  0.28926  0.85160  1.0000
  C   C129      1.0  0.03211  0.33423  0.87207  1.0000
  C   C130      1.0  0.21853  0.44203  0.51914  1.0000
  C   C131      1.0  0.26575  0.06499  0.91493  1.0000
  Fe  Fe22      1.0  0.25740  0.27603  0.97891  1.0000
  H   H145      1.0  0.26301  0.35607  0.53249  1.0000
  H   H146      1.0  0.00198  0.16368  0.71031  1.0000
  H   H147      1.0  0.22996  0.04128  0.97479  1.0000
  H   H148      1.0  0.25151  0.03871  0.99115  1.0000
  H   H149      1.0  0.99310  0.18975  0.67798  1.0000
  C   C132      1.0  0.12699  0.46362  0.94570  1.0000
  H   H150      1.0  0.00254  0.10087  0.65010  1.0000
  S   S45       1.0  0.26489  0.16489  0.97567  1.0000
  H   H151      1.0  0.04123  0.28004  0.75703  1.0000
  H   H152      1.0  0.20545  0.14040  0.96774  1.0000
  C   C133      1.0  0.19578  0.46921  0.54305  1.0000
  C   C134      1.0  0.13879  0.48147  0.96470  1.0000
  H   H153      1.0  0.07391  0.05611  0.88511  1.0000
  C   C135      1.0  0.99129  0.24997  0.51966  1.0000
  C   C136      1.0  0.09148  0.10046  0.75776  1.0000
  N   N9        1.0  0.04959  0.45998  0.71043  1.0000
  H   H154      1.0  0.00957  0.31844  0.89147  1.0000
  H   H155      1.0  0.19709  0.39895  0.57368  1.0000
  H   H156      1.0  0.17990  0.21927  0.68968  1.0000
  C   C137      1.0  0.01816  0.23744  0.80823  1.0000
  H   H157      1.0  0.04960  0.48859  0.98991  1.0000
  H   H158      1.0  0.27135  0.01279  0.95472  1.0000
  H   H159      1.0  0.23523  0.01189  0.88231  1.0000
  H   H160      1.0  0.12090  0.10162  0.84711  1.0000
  H   H161      1.0  0.16642  0.23627  0.65380  1.0000
  C   C138      1.0  0.17639  0.24042  0.67588  1.0000
  N   N10       1.0  0.22524  0.34451  0.88948  1.0000
  C   C139      1.0  0.21807  0.33801  0.85169  1.0000
  C   C140      1.0  0.24250  0.35443  0.88665  1.0000
  C   C141      1.0  0.22630  0.31709  0.91119  1.0000
  C   C142      1.0  0.21449  0.36616  0.90685  1.0000
  C   C143      1.0  0.21998  0.39432  0.91784  1.0000
  C   C144      1.0  0.19782  0.35944  0.91285  1.0000
  C   C145      1.0  0.20941  0.41424  0.93388  1.0000
  C   C146      1.0  0.18741  0.37950  0.92913  1.0000
  C   C147      1.0  0.19320  0.40684  0.93966  1.0000
  H   H162      1.0  0.21670  0.35816  0.83460  1.0000
  H   H163      1.0  0.22612  0.32227  0.83753  1.0000
  H   H164      1.0  0.20566  0.32801  0.85156  1.0000
  H   H165      1.0  0.24279  0.37414  0.86897  1.0000
  H   H166      1.0  0.25032  0.33749  0.87405  1.0000
  H   H167      1.0  0.24877  0.35907  0.91424  1.0000
  H   H168      1.0  0.21419  0.30618  0.91159  1.0000
  H   H169      1.0  0.23493  0.30086  0.89984  1.0000
  H   H170      1.0  0.23091  0.32116  0.94021  1.0000
  H   H171      1.0  0.23245  0.40149  0.91495  1.0000
  H   H172      1.0  0.19274  0.33854  0.90517  1.0000
  H   H173      1.0  0.04985  0.23448  0.83989  1.0000
  H   H174      1.0  0.01915  0.28154  0.75801  1.0000
  H   H175      1.0  0.24084  0.48413  0.50651  1.0000
  H   H176      1.0  0.01562  0.14140  0.61791  1.0000
  H   H177      1.0  0.06763  0.06187  0.83788  1.0000
  C   C148      1.0  0.03795  0.41906  0.67103  1.0000
  C   C149      1.0  0.25521  0.11361  0.89949  1.0000
  N   N11       1.0  0.21449  0.49457  0.50033  1.0000
  H   H178      1.0  0.02950  0.24853  0.74503  1.0000
  H   H179      1.0  0.22901  0.12065  0.90217  1.0000
  H   H180      1.0  0.07755  0.06840  0.78299  1.0000
  H   H181      1.0  0.99769  0.26678  0.53563  1.0000
  C   C150      1.0  0.11557  0.11853  0.79332  1.0000
  C   C151      1.0  0.08814  0.08238  0.78703  1.0000
  C   C152      1.0  0.21410  0.41729  0.53811  1.0000
  H   H182      1.0  0.23543  0.25578  0.50247  1.0000
  N   N12       1.0  0.99657  0.14662  0.65556  1.0000
  H   H183      1.0  0.02425  0.45258  0.72317  1.0000
  H   H184      1.0  0.28092  0.10095  0.90090  1.0000
  C   C153      1.0  0.23257  0.01239  0.91177  1.0000
  C   C154      1.0  0.23123  0.15258  0.97310  1.0000
  C   C155      1.0  0.23872  0.34187  0.51190  1.0000
  H   H185      1.0  0.23663  0.21721  0.50899  1.0000
  H   H186      1.0  0.05495  0.35410  0.64740  1.0000
  C   C156      1.0  0.26647  0.23900  0.52855  1.0000
  H   H187      1.0  0.21392  0.43546  0.94254  1.0000
  H   H188      1.0  0.02881  0.38268  0.63835  1.0000
  H   H189      1.0  0.00581  0.24807  0.80097  1.0000
  C   C157      1.0  0.03643  0.45931  0.73645  1.0000
  C   C158      1.0  0.04474  0.32914  0.84899  1.0000
  H   H190      1.0  0.02301  0.15309  0.66343  1.0000
  C   C159      1.0  0.23275  0.11489  0.50700  1.0000
  H   H191      1.0  0.18082  0.44487  0.57828  1.0000
  C   C160      1.0  0.03935  0.39180  0.65442  1.0000
  H   H192      1.0  0.08341  0.10035  0.73245  1.0000
  H   H193      1.0  0.07550  0.47117  0.71327  1.0000
  H   H194      1.0  0.05452  0.34491  0.84780  1.0000
  H   H195      1.0  0.12632  0.13238  0.79547  1.0000
  H   H196      1.0  0.01877  0.21803  0.79002  1.0000
  C   C161      1.0  0.26845  0.09373  0.90440  1.0000
  H   H197      1.0  0.00912  0.11579  0.69384  1.0000
  H   H198      1.0  0.07686  0.42011  0.71609  1.0000
  C   C162      1.0  0.23638  0.07638  0.91599  1.0000
  H   H199      1.0  0.04789  0.22058  0.79365  1.0000
  C   C163      1.0  0.20054  0.41834  0.55933  1.0000
  H   H200      1.0  0.05452  0.30175  0.80880  1.0000
  C   C164      1.0  0.19141  0.44423  0.56182  1.0000
  H   H201      1.0  0.06335  0.49202  0.74305  1.0000
  H   H202      1.0  0.22050  0.02415  0.91357  1.0000
  S   S46       1.0  0.19998  0.00028  0.97345  1.0000
  S   S47       1.0  0.15757  0.46523  0.98531  1.0000
  H   H203      1.0  0.07652  0.47401  0.98615  1.0000
  Fe  Fe23      1.0  0.02805  0.49338  0.88817  1.0000
  C   C165      1.0  0.25300  0.35880  0.99181  1.0000
  C   C166      1.0  0.04484  0.48215  0.68158  1.0000
  C   C167      1.0  0.26097  0.00562  0.93507  1.0000
  C   C168      1.0  0.24750  0.14383  0.98476  1.0000
  C   C169      1.0  0.99483  0.49491  0.96212  1.0000
  H   H204      1.0  0.24529  0.67466  0.41911  1.0000
  S   S48       1.0  0.27210  0.96208  0.37265  1.0000
  S   S49       1.0  0.31136  0.51098  0.42011  1.0000
  Fe  Fe24      1.0  0.24938  0.52718  0.41757  1.0000
  C   C170      1.0  0.30888  0.55740  0.33400  1.0000
  S   S50       1.0  0.23178  0.56279  0.43806  1.0000
  Fe  Fe25      1.0  0.25435  0.97043  0.41696  1.0000
  S   S51       1.0  0.24271  0.93985  0.45796  1.0000
  H   H205      1.0  0.20655  0.88518  0.13389  1.0000
  H   H206      1.0  0.02852  0.83177  0.48038  1.0000
  H   H207      1.0  0.25949  0.81755  0.05382  1.0000
  S   S52       1.0  0.26856  0.53413  0.37734  1.0000
  H   H208      1.0  0.99111  0.86343  0.40003  1.0000
  C   C171      1.0  0.24483  0.50837  0.20924  1.0000
  S   S53       1.0  0.25314  0.98949  0.27373  1.0000
  H   H209      1.0  0.31152  0.95326  0.27159  1.0000
  C   C172      1.0  0.24597  0.85030  0.46352  1.0000
  C   C173      1.0  0.23557  0.76426  0.41839  1.0000
  H   H210      1.0  0.31112  0.49932  0.32697  1.0000
  Fe  Fe26      1.0  0.20584  0.53602  0.02099  1.0000
  S   S54       1.0  0.19471  0.95467  0.04040  1.0000
  S   S55       1.0  0.18366  0.52455  0.05195  1.0000
  H   H211      1.0  0.24209  0.57586  0.02351  1.0000
  H   H212      1.0  0.22947  0.81511  0.06041  1.0000
  H   H213      1.0  0.99958  0.96520  0.04259  1.0000
  C   C174      1.0  0.24119  0.99268  0.20104  1.0000
  H   H214      1.0  0.23183  0.80634  0.39255  1.0000
  H   H215      1.0  0.06986  0.57307  0.01001  1.0000
  S   S56       1.0  0.25799  0.50302  0.28116  1.0000
  H   H216      1.0  0.21558  0.72817  0.45358  1.0000
  Fe  Fe27      1.0  0.21619  0.97258  0.01308  1.0000
  H   H217      1.0  0.21157  0.90439  0.00021  1.0000
  C   C175      1.0  0.22041  0.98397  0.24362  1.0000
  H   H218      1.0  0.31246  0.56308  0.22941  1.0000
  H   H219      1.0  0.26380  0.69048  0.44210  1.0000
  H   H220      1.0  0.05895  0.54587  0.06022  1.0000
  H   H221      1.0  0.28031  0.55398  0.29228  1.0000
  H   H222      1.0  0.25657  0.88424  0.43170  1.0000
  H   H223      1.0  0.28873  0.54232  0.25112  1.0000
  H   H224      1.0  0.04012  0.54014  0.03195  1.0000
  H   H225      1.0  0.26035  0.73672  0.48107  1.0000
  C   C176      1.0  0.09053  0.52986  0.04182  1.0000
  H   H226      1.0  0.22832  0.92908  0.16935  1.0000
  C   C177      1.0  0.23295  0.59268  0.46958  1.0000
  H   H227      1.0  0.20828  0.53996  0.48953  1.0000
  H   H228      1.0  0.29734  0.55928  0.34858  1.0000
  H   H229      1.0  0.22161  0.69387  0.47396  1.0000
  C   C178      1.0  0.23958  0.90231  0.46840  1.0000
  H   H230      1.0  0.23236  0.99569  0.14345  1.0000
  H   H231      1.0  0.21472  0.85447  0.08870  1.0000
  C   C179      1.0  0.22357  0.60674  0.00113  1.0000
  H   H232      1.0  0.25654  0.70735  0.38144  1.0000
  C   C180      1.0  0.25288  0.61760  0.01309  1.0000
  C   C181      1.0  0.25006  0.64623  0.99991  1.0000
  H   H233      1.0  0.21809  0.69718  0.42469  1.0000
  H   H234      1.0  0.23344  0.89084  0.17210  1.0000
  H   H235      1.0  0.23516  0.51176  0.15209  1.0000
  C   C182      1.0  0.24810  0.87942  0.45227  1.0000
  C   C183      1.0  0.25028  0.68701  0.44370  1.0000
  N   N13       1.0  0.24110  0.71504  0.44769  1.0000
  H   H236      1.0  0.21598  0.50719  0.44359  1.0000
  C   C184      1.0  0.24165  0.50063  0.24539  1.0000
  H   H237      1.0  0.24825  0.91637  0.15795  1.0000
  C   C185      1.0  0.24264  0.73577  0.41704  1.0000
  C   C186      1.0  0.25099  0.72858  0.38527  1.0000
  C   C187      1.0  0.99481  0.84699  0.42043  1.0000
  C   C188      1.0  0.25238  0.74902  0.35718  1.0000
  C   C189      1.0  0.22334  0.70828  0.45002  1.0000
  C   C190      1.0  0.24556  0.77698  0.35983  1.0000
  H   H238      1.0  0.01147  0.71574  0.46410  1.0000
  H   H239      1.0  0.26121  0.90075  0.10600  1.0000
  C   C191      1.0  0.23715  0.78456  0.39037  1.0000
  S   S57       1.0  0.23626  0.99755  0.37947  1.0000
  S   S58       1.0  0.20673  0.58241  0.99855  1.0000
  C   C192      1.0  0.32179  0.54030  0.28030  1.0000
  C   C193      1.0  0.21891  0.61118  0.47160  1.0000
  H   H240      1.0  0.21700  0.98049  0.27135  1.0000
  C   C194      1.0  0.01047  0.84998  0.43942  1.0000
  C   C195      1.0  0.07901  0.51479  0.01756  1.0000
  C   C196      1.0  0.32299  0.55299  0.24501  1.0000
  H   H241      1.0  0.25882  0.74317  0.33320  1.0000
  H   H242      1.0  0.24913  0.67233  0.46770  1.0000
  H   H243      1.0  0.24674  0.79281  0.33814  1.0000
  Fe  Fe28      1.0  0.28393  0.49913  0.40816  1.0000
  H   H244      1.0  0.19540  0.97930  0.21873  1.0000
  S   S59       1.0  0.23816  0.94600  0.99477  1.0000
  C   C197      1.0  0.23518  0.84348  0.49070  1.0000
  H   H245      1.0  0.22876  0.77116  0.44129  1.0000
  H   H246      1.0  0.27523  0.86036  0.07678  1.0000
  C   C198      1.0  0.00017  0.72178  0.47646  1.0000
  C   C199      1.0  0.24763  0.72831  0.48296  1.0000
  S   S60       1.0  0.22430  0.51083  0.05923  1.0000
  H   H247      1.0  0.01816  0.86822  0.43347  1.0000
  C   C200      1.0  0.01636  0.82949  0.46585  1.0000
  Fe  Fe29      1.0  0.17849  0.98488  0.00336  1.0000
  H   H248      1.0  0.20380  0.92361  0.12883  1.0000
  S   S61       1.0  0.27518  0.75544  0.99845  1.0000
  H   H249      1.0  0.25686  0.51665  0.20406  1.0000
  Fe  Fe30      1.0  0.25482  0.99179  0.33692  1.0000
  H   H250      1.0  0.29395  0.57761  0.27087  1.0000
  H   H251      1.0  0.32048  0.93593  0.21190  1.0000
  C   C201      1.0  0.23972  0.59792  0.01373  1.0000
  H   H252      1.0  0.11518  0.53046  0.06970  1.0000
  H   H253      1.0  0.25287  0.83296  0.45125  1.0000
  N   N14       1.0  0.30624  0.54075  0.29923  1.0000
  C   C202      1.0  0.99097  0.80277  0.45468  1.0000
  C   C203      1.0  0.29180  0.55436  0.27722  1.0000
  H   H254      1.0  0.28993  0.51014  0.32205  1.0000
  C   C204      1.0  0.05287  0.53109  0.03935  1.0000
  N   N15       1.0  0.22810  0.90715  0.11696  1.0000
  C   C205      1.0  0.23109  0.93397  0.09594  1.0000
  C   C206      1.0  0.20981  0.90408  0.11696  1.0000
  C   C207      1.0  0.23485  0.91098  0.15570  1.0000
  C   C208      1.0  0.23652  0.88197  0.10053  1.0000
  C   C209      1.0  0.25388  0.88236  0.09677  1.0000
  C   C210      1.0  0.22793  0.85678  0.08749  1.0000
  C   C211      1.0  0.26205  0.85931  0.08028  1.0000
  C   C212      1.0  0.23628  0.83377  0.07131  1.0000
  C   C213      1.0  0.25325  0.83510  0.06749  1.0000
  H   H255      1.0  0.22766  0.93081  0.06605  1.0000
  H   H256      1.0  0.22370  0.95290  0.10519  1.0000
  H   H257      1.0  0.24428  0.94056  0.09884  1.0000
  H   H258      1.0  0.20387  0.90171  0.08848  1.0000
  C   C214      1.0  0.23256  0.50550  0.17963  1.0000
  C   C215      1.0  0.30164  0.51057  0.30803  1.0000
  H   H259      1.0  0.08744  0.55094  0.05273  1.0000
  C   C216      1.0  0.99182  0.97406  0.01949  1.0000
  C   C217      1.0  0.20819  0.98313  0.21366  1.0000
  C   C218      1.0  0.00663  0.80588  0.47341  1.0000
  N   N16       1.0  0.06243  0.52794  0.00651  1.0000
  H   H260      1.0  0.20780  0.60714  0.45385  1.0000
  H   H261      1.0  0.31310  0.57983  0.32873  1.0000
  C   C219      1.0  0.21236  0.98724  0.17729  1.0000
  Fe  Fe31      1.0  0.19838  0.99276  0.07900  1.0000
  H   H262      1.0  0.05154  0.50960  0.05293  1.0000
  H   H263      1.0  0.26537  0.61046  0.02244  1.0000
  H   H264      1.0  0.31831  0.54686  0.35390  1.0000
  C   C220      1.0  0.23701  0.98877  0.23746  1.0000
  C   C221      1.0  0.22895  0.99211  0.17114  1.0000
  C   C222      1.0  0.10639  0.51825  0.05201  1.0000
  H   H265      1.0  0.99215  0.89745  0.13223  1.0000
  S   S62       1.0  0.19646  0.98567  0.14063  1.0000
  S   S63       1.0  0.26732  0.66918  0.99662  1.0000
  H   H266      1.0  0.25398  0.99647  0.19599  1.0000
  H   H267      1.0  0.23966  0.74666  0.49139  1.0000
  H   H268      1.0  0.25807  0.58424  0.49194  1.0000
  C   C223      1.0  0.22263  0.89264  0.99340  1.0000
  C   C224      1.0  0.24717  0.59821  0.49292  1.0000
  Fe  Fe32      1.0  0.21995  0.77820  0.54487  1.0000
  S   S64       1.0  0.23702  0.74922  0.58125  1.0000
  S   S65       1.0  0.06281  0.98118  0.83500  1.0000
  Fe  Fe33      1.0  0.18904  0.75059  0.57562  1.0000
  S   S66       1.0  0.20451  0.72012  0.61413  1.0000
  S   S67       1.0  0.16072  0.75834  0.56794  1.0000
  Fe  Fe34      1.0  0.22066  0.75909  0.62672  1.0000
  S   S68       1.0  0.23125  0.78027  0.68040  1.0000
  Fe  Fe35      1.0  0.21992  0.71223  0.56533  1.0000
  S   S69       1.0  0.23450  0.67043  0.55112  1.0000
  S   S70       1.0  0.20430  0.79001  0.59099  1.0000
  S   S71       1.0  0.20366  0.74067  0.52629  1.0000
  Fe  Fe36      1.0  0.06947  0.72913  0.64045  1.0000
  S   S72       1.0  0.05954  0.74091  0.69451  1.0000
  S   S73       1.0  0.09730  0.71733  0.64854  1.0000
  Fe  Fe37      1.0  0.03390  0.73227  0.59964  1.0000
  S   S74       1.0  0.02220  0.74437  0.65187  1.0000
  S   S75       1.0  0.02069  0.72519  0.54127  1.0000
  Fe  Fe38      1.0  0.04369  0.77480  0.66343  1.0000
  S   S76       1.0  0.04240  0.82360  0.67765  1.0000
  Fe  Fe39      1.0  0.03924  0.70925  0.67906  1.0000
  S   S77       1.0  0.03192  0.67837  0.72434  1.0000
  S   S78       1.0  0.05462  0.76466  0.60952  1.0000
  S   S79       1.0  0.04986  0.69557  0.62671  1.0000
  H   H269      1.0  0.24564  0.66031  0.92094  1.0000
  H   H270      1.0  0.20922  0.73938  0.76412  1.0000
  Fe  Fe40      1.0  0.26615  0.74203  0.89241  1.0000
  S   S80       1.0  0.24724  0.73532  0.93343  1.0000
  S   S81       1.0  0.25857  0.72388  0.83497  1.0000
  Fe  Fe41      1.0  0.29261  0.76117  0.95390  1.0000
  S   S82       1.0  0.99671  0.99447  0.91077  1.0000
  Fe  Fe42      1.0  0.26779  0.71381  0.96923  1.0000
  C   C225      1.0  0.01608  0.64894  0.58980  1.0000
  Fe  Fe43      1.0  0.25612  0.77760  0.95866  1.0000
  H   H271      1.0  0.11705  0.54584  0.95486  1.0000
  S   S83       1.0  0.28653  0.71818  0.92717  1.0000
  S   S84       1.0  0.27376  0.78586  0.91522  1.0000
  Fe  Fe44      1.0  0.04315  0.94780  0.84169  1.0000
  Fe  Fe45      1.0  0.06587  0.50046  0.88429  1.0000
  S   S85       1.0  0.04405  0.89900  0.82651  1.0000
  C   C226      1.0  0.01654  0.89375  0.90891  1.0000
  S   S86       1.0  0.04394  0.53152  0.87497  1.0000
  H   H272      1.0  0.21832  0.74877  0.82825  1.0000
  H   H273      1.0  0.02515  0.64652  0.61437  1.0000
  H   H274      1.0  0.02812  0.89337  0.89421  1.0000
  Fe  Fe46      1.0  0.04176  0.51654  0.81623  1.0000
  S   S87       1.0  0.03990  0.54176  0.76117  1.0000
  S   S88       1.0  0.04224  0.95700  0.90267  1.0000
  H   H275      1.0  0.01691  0.91412  0.92538  1.0000
  S   S89       1.0  0.08855  0.52076  0.91548  1.0000
  S   S90       1.0  0.15694  0.96581  0.96696  1.0000
  H   H276      1.0  0.24249  0.61179  0.93438  1.0000
  C   C227      1.0  0.22570  0.56643  0.86953  1.0000
  H   H277      1.0  0.25830  0.65338  0.82590  1.0000
  H   H278      1.0  0.24999  0.60580  0.81782  1.0000
  H   H279      1.0  0.00101  0.93910  0.87505  1.0000
  H   H280      1.0  0.04010  0.52104  0.97058  1.0000
  H   H281      1.0  0.28244  0.64833  0.91493  1.0000
  C   C228      1.0  0.13512  0.51125  0.96755  1.0000
  S   S91       1.0  0.02204  0.97922  0.82531  1.0000
  H   H282      1.0  0.24015  0.66958  0.87354  1.0000
  C   C229      1.0  0.24459  0.59914  0.84254  1.0000
  H   H283      1.0  0.19005  0.82663  0.75093  1.0000
  C   C230      1.0  0.99878  0.97860  0.98556  1.0000
  H   H284      1.0  0.27917  0.87764  0.50973  1.0000
  Fe  Fe47      1.0  0.06035  0.99267  0.89422  1.0000
  H   H285      1.0  0.00325  0.65342  0.52399  1.0000
  C   C231      1.0  0.10794  0.50497  0.93325  1.0000
  C   C232      1.0  0.25069  0.66355  0.89391  1.0000
  C   C233      1.0  0.10222  0.99614  0.94335  1.0000
  H   H286      1.0  0.01730  0.87509  0.92849  1.0000
  C   C234      1.0  0.26775  0.64569  0.84797  1.0000
  H   H287      1.0  0.22306  0.57209  0.92739  1.0000
  C   C235      1.0  0.03463  0.64032  0.73391  1.0000
  C   C236      1.0  0.03352  0.63032  0.77016  1.0000
  C   C237      1.0  0.03529  0.60041  0.77912  1.0000
  C   C238      1.0  0.03792  0.57992  0.75175  1.0000
  C   C239      1.0  0.03902  0.58989  0.71543  1.0000
  C   C240      1.0  0.03750  0.61986  0.70656  1.0000
  H   H288      1.0  0.03124  0.64584  0.79157  1.0000
  H   H289      1.0  0.03441  0.59321  0.80717  1.0000
  H   H290      1.0  0.04108  0.57429  0.69400  1.0000
  H   H291      1.0  0.03838  0.62708  0.67856  1.0000
  C   C241      1.0  0.04293  0.84401  0.71954  1.0000
  C   C242      1.0  0.04199  0.87466  0.71763  1.0000
  C   C243      1.0  0.04238  0.89186  0.74985  1.0000
  C   C244      1.0  0.04375  0.87863  0.78462  1.0000
  C   C245      1.0  0.04476  0.84796  0.78653  1.0000
  C   C246      1.0  0.04438  0.83076  0.75431  1.0000
  H   H292      1.0  0.04084  0.88526  0.69099  1.0000
  H   H293      1.0  0.04157  0.91535  0.74776  1.0000
  H   H294      1.0  0.04587  0.83740  0.81319  1.0000
  H   H295      1.0  0.04513  0.80727  0.75642  1.0000
  S   S92       1.0  0.23540  0.80818  0.97503  1.0000
  C   C247      1.0  0.14325  0.74579  0.59013  1.0000
  C   C248      1.0  0.14486  0.72630  0.61985  1.0000
  C   C249      1.0  0.13067  0.71780  0.63715  1.0000
  C   C250      1.0  0.11467  0.72851  0.62500  1.0000
  C   C251      1.0  0.11305  0.74789  0.59521  1.0000
  C   C252      1.0  0.12724  0.75643  0.57795  1.0000
  H   H296      1.0  0.15704  0.71787  0.62954  1.0000
  H   H297      1.0  0.13212  0.70275  0.66008  1.0000
  H   H298      1.0  0.10089  0.75626  0.58534  1.0000
  H   H299      1.0  0.12583  0.77152  0.55503  1.0000
  H   H300      1.0  0.05218  0.56672  0.97870  1.0000
  H   H301      1.0  0.02086  0.66661  0.57272  1.0000
  H   H302      1.0  0.01495  0.86786  0.84395  1.0000
  C   C253      1.0  0.05238  0.51044  0.97900  1.0000
  C   C254      1.0  0.00347  0.86655  0.85892  1.0000
  C   C255      1.0  0.23934  0.76404  0.72271  1.0000
  C   C256      1.0  0.24511  0.78216  0.75196  1.0000
  C   C257      1.0  0.25124  0.77035  0.78634  1.0000
  C   C258      1.0  0.25156  0.74020  0.79195  1.0000
  C   C259      1.0  0.24596  0.72208  0.76257  1.0000
  C   C260      1.0  0.23990  0.73387  0.72815  1.0000
  H   H303      1.0  0.24477  0.80552  0.74807  1.0000
  H   H304      1.0  0.25579  0.78456  0.80834  1.0000
  H   H305      1.0  0.24623  0.69872  0.76646  1.0000
  H   H306      1.0  0.23556  0.71963  0.70593  1.0000
  H   H307      1.0  0.28054  0.61030  0.90322  1.0000
  H   H308      1.0  0.01117  0.91913  0.84130  1.0000
  C   C261      1.0  0.99065  0.65657  0.53125  1.0000
  H   H309      1.0  0.23340  0.50622  0.54248  1.0000
  H   H310      1.0  0.07252  0.55578  0.96680  1.0000
  H   H311      1.0  0.23596  0.52161  0.49797  1.0000
  H   H312      1.0  0.27082  0.92875  0.51975  1.0000
  H   H313      1.0  0.23060  0.56603  0.81252  1.0000
  H   H314      1.0  0.01172  0.97313  0.98288  1.0000
  H   H315      1.0  0.26217  0.84971  0.96850  1.0000
  H   H316      1.0  0.14402  0.52528  0.98211  1.0000
  C   C262      1.0  0.25111  0.86155  0.97523  1.0000
  H   H317      1.0  0.00467  0.84601  0.87522  1.0000
  C   C263      1.0  0.24842  0.61288  0.87706  1.0000
  C   C264      1.0  0.23723  0.90769  0.98909  1.0000
  H   H318      1.0  0.21697  0.54879  0.86680  1.0000
  H   H319      1.0  0.25789  0.98332  0.94432  1.0000
  C   C265      1.0  0.23340  0.57620  0.83905  1.0000
  N   N17       1.0  0.00145  0.89231  0.88288  1.0000
  C   C266      1.0  0.23327  0.64041  0.51974  1.0000
  Fe  Fe48      1.0  0.02212  0.99007  0.88608  1.0000
  H   H320      1.0  0.99297  0.86497  0.83731  1.0000
  H   H321      1.0  0.27517  0.62728  0.83754  1.0000
  S   S93       1.0  0.00767  0.50654  0.92691  1.0000
  C   C267      1.0  0.22915  0.57950  0.90363  1.0000
  H   H322      1.0  0.26888  0.62631  0.93804  1.0000
  N   N18       1.0  0.09399  0.82356  0.65997  1.0000
  C   C268      1.0  0.09080  0.85111  0.67965  1.0000
  C   C269      1.0  0.08303  0.82305  0.62527  1.0000
  C   C270      1.0  0.08908  0.79923  0.68343  1.0000
  C   C271      1.0  0.11160  0.82170  0.65134  1.0000
  C   C272      1.0  0.12261  0.79864  0.66417  1.0000
  C   C273      1.0  0.11809  0.84306  0.62852  1.0000
  C   C274      1.0  0.13896  0.79702  0.65415  1.0000
  C   C275      1.0  0.13438  0.84093  0.61820  1.0000
  C   C276      1.0  0.14474  0.81780  0.63075  1.0000
  H   H323      1.0  0.07771  0.85270  0.68740  1.0000
  H   H324      1.0  0.09912  0.85273  0.70544  1.0000
  H   H325      1.0  0.09269  0.87067  0.66266  1.0000
  H   H326      1.0  0.08470  0.84218  0.60739  1.0000
  H   H327      1.0  0.06965  0.82334  0.63069  1.0000
  H   H328      1.0  0.08551  0.80312  0.60904  1.0000
  H   H329      1.0  0.09044  0.77783  0.66954  1.0000
  H   H330      1.0  0.09652  0.79868  0.71050  1.0000
  H   H331      1.0  0.07583  0.80137  0.68957  1.0000
  H   H332      1.0  0.11882  0.78100  0.68100  1.0000
  H   H333      1.0  0.11049  0.86126  0.61778  1.0000
  H   H334      1.0  0.14701  0.77880  0.66327  1.0000
  H   H335      1.0  0.13893  0.85695  0.59981  1.0000
  H   H336      1.0  0.15718  0.81554  0.62171  1.0000
  C   C277      1.0  0.12546  0.96377  0.93194  1.0000
  N   N19       1.0  0.08730  0.66066  0.75121  1.0000
  C   C278      1.0  0.07728  0.68362  0.76814  1.0000
  C   C279      1.0  0.10446  0.67121  0.74893  1.0000
  C   C280      1.0  0.08005  0.65645  0.71282  1.0000
  C   C281      1.0  0.08756  0.63397  0.77420  1.0000
  C   C282      1.0  0.09514  0.63404  0.81079  1.0000
  C   C283      1.0  0.07991  0.60772  0.76186  1.0000
  C   C284      1.0  0.09520  0.60936  0.83340  1.0000
  C   C285      1.0  0.08002  0.58320  0.78477  1.0000
  C   C286      1.0  0.08762  0.58400  0.82043  1.0000
  H   H337      1.0  0.06428  0.67642  0.77033  1.0000
  H   H338      1.0  0.08245  0.68940  0.79630  1.0000
  H   H339      1.0  0.07659  0.70403  0.75160  1.0000
  H   H340      1.0  0.11022  0.67870  0.77587  1.0000
  H   H341      1.0  0.10476  0.69012  0.72971  1.0000
  H   H342      1.0  0.11264  0.65375  0.73862  1.0000
  H   H343      1.0  0.06671  0.65086  0.71197  1.0000
  H   H344      1.0  0.08048  0.67670  0.69604  1.0000
  H   H345      1.0  0.08692  0.63926  0.69845  1.0000
  H   H346      1.0  0.10092  0.65331  0.82242  1.0000
  H   H347      1.0  0.07353  0.60564  0.73485  1.0000
  H   H348      1.0  0.10103  0.60987  0.86129  1.0000
  H   H349      1.0  0.07392  0.56351  0.77503  1.0000
  H   H350      1.0  0.08752  0.56498  0.83820  1.0000
  N   N20       1.0  0.25261  0.84506  0.61200  1.0000
  C   C287      1.0  0.25912  0.81537  0.60446  1.0000
  C   C288      1.0  0.25810  0.85206  0.65080  1.0000
  C   C289      1.0  0.23423  0.84396  0.60819  1.0000
  C   C290      1.0  0.25815  0.86771  0.58698  1.0000
  C   C291      1.0  0.25362  0.89742  0.59188  1.0000
  C   C292      1.0  0.26765  0.86116  0.55674  1.0000
  C   C293      1.0  0.25832  0.91913  0.56809  1.0000
  C   C294      1.0  0.27240  0.88311  0.53334  1.0000
  C   C295      1.0  0.26771  0.91199  0.53893  1.0000
  H   H351      1.0  0.27294  0.81451  0.60700  1.0000
  H   H352      1.0  0.25492  0.79899  0.62416  1.0000
  H   H353      1.0  0.25456  0.80781  0.57648  1.0000
  H   H354      1.0  0.27182  0.85466  0.65439  1.0000
  H   H355      1.0  0.25479  0.83454  0.67004  1.0000
  H   H356      1.0  0.25216  0.87237  0.66035  1.0000
  H   H357      1.0  0.22967  0.83762  0.57973  1.0000
  H   H358      1.0  0.22957  0.82777  0.62744  1.0000
  H   H359      1.0  0.22821  0.86518  0.61409  1.0000
  H   H360      1.0  0.24605  0.90404  0.61359  1.0000
  H   H361      1.0  0.27116  0.83919  0.54979  1.0000
  H   H362      1.0  0.20810  0.64867  0.49756  1.0000
  C   C296      1.0  0.27352  0.63022  0.91061  1.0000
  H   H363      1.0  0.19566  0.77813  0.72473  1.0000
  S   S94       1.0  0.31857  0.78003  0.96597  1.0000
  N   N21       1.0  0.25993  0.63754  0.88195  1.0000
  N   N22       1.0  0.99907  0.65602  0.60029  1.0000
  H   H364      1.0  0.25886  0.68268  0.89718  1.0000
  H   H365      1.0  0.25430  0.94157  0.57151  1.0000
  H   H366      1.0  0.10072  0.96092  0.90448  1.0000
  C   C297      1.0  0.22072  0.63551  0.98847  1.0000
  H   H367      1.0  0.21770  0.86165  0.52633  1.0000
  C   C298      1.0  0.10868  0.97260  0.92445  1.0000
  C   C299      1.0  0.24728  0.62181  0.51785  1.0000
  N   N23       1.0  0.21490  0.79932  0.86751  1.0000
  C   C300      1.0  0.23330  0.79797  0.87055  1.0000
  C   C301      1.0  0.20970  0.82827  0.88127  1.0000
  C   C302      1.0  0.20873  0.77693  0.89222  1.0000
  C   C303      1.0  0.20877  0.79364  0.82883  1.0000
  C   C304      1.0  0.20067  0.81538  0.80553  1.0000
  C   C305      1.0  0.21161  0.76602  0.81280  1.0000
  C   C306      1.0  0.19589  0.80964  0.76849  1.0000
  C   C307      1.0  0.20657  0.76045  0.77593  1.0000
  C   C308      1.0  0.19891  0.78229  0.75370  1.0000
  H   H368      1.0  0.23845  0.81372  0.85145  1.0000
  H   H369      1.0  0.23852  0.80327  0.89887  1.0000
  H   H370      1.0  0.23825  0.77597  0.86397  1.0000
  H   H371      1.0  0.19592  0.83091  0.87933  1.0000
  H   H372      1.0  0.21512  0.84640  0.86622  1.0000
  H   H373      1.0  0.21408  0.83134  0.91083  1.0000
  H   H374      1.0  0.21387  0.75481  0.88726  1.0000
  H   H375      1.0  0.21241  0.78157  0.92175  1.0000
  H   H376      1.0  0.19494  0.77593  0.88892  1.0000
  H   H377      1.0  0.19813  0.83712  0.81504  1.0000
  C   C309      1.0  0.13602  0.97846  0.95810  1.0000
  H   H378      1.0  0.20467  0.52792  0.53468  1.0000
  C   C310      1.0  0.11978  0.52285  0.95203  1.0000
  H   H379      1.0  0.13028  0.94526  0.91758  1.0000
  C   C311      1.0  0.00096  0.72802  0.51448  1.0000
  H   H380      1.0  0.27637  0.66422  0.85294  1.0000
  C   C312      1.0  0.20403  0.52104  0.50535  1.0000
  S   S95       1.0  0.23368  0.80627  0.50482  1.0000
  C   C313      1.0  0.21906  0.63488  0.49635  1.0000
  C   C314      1.0  0.00057  0.91855  0.85896  1.0000
  C   C315      1.0  0.24034  0.60230  0.90740  1.0000
  H   H381      1.0  0.25835  0.62573  0.53578  1.0000
  H   H382      1.0  0.22195  0.91284  0.50788  1.0000
  H   H383      1.0  0.04421  0.50449  0.69345  1.0000
  H   H384      1.0  0.20825  0.64253  0.97876  1.0000
  C   C316      1.0  0.22634  0.86629  0.50609  1.0000
  H   H385      1.0  0.00293  0.70210  0.60239  1.0000
  H   H386      1.0  0.23041  0.98962  0.92073  1.0000
  H   H387      1.0  0.00941  0.68295  0.64458  1.0000
  H   H388      1.0  0.26281  0.90345  0.97660  1.0000
  C   C317      1.0  0.23385  0.65523  0.98807  1.0000
  H   H389      1.0  0.23146  0.67727  0.97823  1.0000
  C   C318      1.0  0.25144  0.89202  0.97993  1.0000
  H   H390      1.0  0.05889  0.50775  0.95348  1.0000
  C   C319      1.0  0.23651  0.84652  0.97971  1.0000
  C   C320      1.0  0.22866  0.89541  0.49526  1.0000
  C   C321      1.0  0.22228  0.86223  0.98866  1.0000
  H   H391      1.0  0.01645  0.62813  0.57429  1.0000
  C   C322      1.0  0.99984  0.68389  0.62073  1.0000
  H   H392      1.0  0.00397  0.62940  0.64912  1.0000
  H   H393      1.0  0.21095  0.85080  0.99226  1.0000
  H   H394      1.0  0.24820  0.71249  0.50623  1.0000
  C   C323      1.0  0.23190  0.50188  0.51238  1.0000
  H   H395      1.0  0.99297  0.61155  0.61071  1.0000
  C   C324      1.0  0.99442  0.63266  0.62548  1.0000
  H   H396      1.0  0.19085  0.51763  0.49514  1.0000
  C   C325      1.0  0.06433  0.55714  0.98996  1.0000
  S   S96       1.0  0.20202  0.49908  0.98068  1.0000
  H   H397      1.0  0.01127  0.78972  0.49374  1.0000
  H   H398      1.0  0.99124  0.93274  0.93182  1.0000
  Fe  Fe49      1.0  0.40352  0.24472  0.10823  1.0000
  S   S97       1.0  0.41963  0.28390  0.10293  1.0000
  S   S98       1.0  0.37534  0.23797  0.09987  1.0000
  Fe  Fe50      1.0  0.43252  0.20723  0.14459  1.0000
  S   S99       1.0  0.45100  0.24345  0.14148  1.0000
  S   S100      1.0  0.43815  0.15943  0.16102  1.0000
  Fe  Fe51      1.0  0.43073  0.27341  0.16030  1.0000
  S   S101      1.0  0.43461  0.30287  0.21107  1.0000
  Fe  Fe52      1.0  0.43915  0.25190  0.08411  1.0000
  S   S102      1.0  0.45240  0.26397  0.03237  1.0000
  S   S103      1.0  0.41332  0.23645  0.16716  1.0000
  S   S104      1.0  0.42205  0.21371  0.08570  1.0000
  C   C326      1.0  0.33170  0.00268  0.38640  1.0000
  C   C327      1.0  0.36034  0.00892  0.37005  1.0000
  C   C328      1.0  0.49656  0.08942  0.46653  1.0000
  H   H399      1.0  0.34070  0.04148  0.36205  1.0000
  H   H400      1.0  0.34051  0.22629  0.08887  1.0000
  C   C329      1.0  0.48446  0.23924  0.03118  1.0000
  H   H401      1.0  0.64054  0.20699  0.08076  1.0000
  S   S105      1.0  0.42515  0.08106  0.30161  1.0000
  Fe  Fe53      1.0  0.43262  0.46733  0.30104  1.0000
  S   S106      1.0  0.43809  0.43889  0.25110  1.0000
  S   S107      1.0  0.42431  0.02099  0.37507  1.0000
  S   S108      1.0  0.42516  0.45284  0.35615  1.0000
  H   H402      1.0  0.39247  0.11110  0.10276  1.0000
  H   H403      1.0  0.45227  0.06155  0.35409  1.0000
  C   C330      1.0  0.38647  0.32686  0.26167  1.0000
  H   H404      1.0  0.40199  0.14514  0.09287  1.0000
  H   H405      1.0  0.40185  0.12038  0.19214  1.0000
  H   H406      1.0  0.38219  0.18641  0.16642  1.0000
  H   H407      1.0  0.35120  0.13109  0.14289  1.0000
  C   C331      1.0  0.43532  0.34089  0.22113  1.0000
  C   C332      1.0  0.43490  0.36236  0.19371  1.0000
  C   C333      1.0  0.43583  0.39212  0.20344  1.0000
  C   C334      1.0  0.43699  0.40091  0.24059  1.0000
  C   C335      1.0  0.43742  0.37941  0.26793  1.0000
  C   C336      1.0  0.43659  0.34970  0.25823  1.0000
  H   H408      1.0  0.43410  0.35601  0.16509  1.0000
  H   H409      1.0  0.43568  0.40846  0.18201  1.0000
  H   H410      1.0  0.43863  0.38563  0.29662  1.0000
  H   H411      1.0  0.43702  0.33333  0.27969  1.0000
  C   C337      1.0  0.43472  0.13827  0.20078  1.0000
  C   C338      1.0  0.42857  0.15046  0.23225  1.0000
  C   C339      1.0  0.42574  0.13260  0.26266  1.0000
  C   C340      1.0  0.42888  0.10231  0.26209  1.0000
  C   C341      1.0  0.43492  0.09009  0.23054  1.0000
  C   C342      1.0  0.43787  0.10798  0.20022  1.0000
  H   H412      1.0  0.42606  0.17366  0.23324  1.0000
  H   H413      1.0  0.42105  0.14236  0.28684  1.0000
  H   H414      1.0  0.43741  0.06689  0.22950  1.0000
  H   H415      1.0  0.44258  0.09823  0.17606  1.0000
  C   C343      1.0  0.47172  0.25621  0.01300  1.0000
  C   C344      1.0  0.35493  0.10507  0.19096  1.0000
  H   H416      1.0  0.48112  0.02189  0.35678  1.0000
  H   H417      1.0  0.64453  0.26212  0.12321  1.0000
  H   H418      1.0  0.40220  0.16832  0.17202  1.0000
  C   C345      1.0  0.36429  0.26195  0.03145  1.0000
  C   C346      1.0  0.36031  0.24665  0.06265  1.0000
  C   C347      1.0  0.34376  0.23810  0.06487  1.0000
  C   C348      1.0  0.37124  0.15783  0.10505  1.0000
  H   H419      1.0  0.37693  0.26871  0.02925  1.0000
  S   S109      1.0  0.65153  0.23615  0.01711  1.0000
  H   H420      1.0  0.65314  0.22869  0.19354  1.0000
  C   C349      1.0  0.38452  0.35613  0.27124  1.0000
  C   C350      1.0  0.39484  0.34119  0.20243  1.0000
  C   C351      1.0  0.39724  0.13174  0.11512  1.0000
  H   H421      1.0  0.39639  0.38615  0.19161  1.0000
  H   H422      1.0  0.39172  0.09022  0.24009  1.0000
  H   H423      1.0  0.37681  0.44073  0.46622  1.0000
  H   H424      1.0  0.50350  0.02718  0.39768  1.0000
  C   C352      1.0  0.39311  0.37055  0.21183  1.0000
  H   H425      1.0  0.39375  0.40246  0.31603  1.0000
  Fe  Fe54      1.0  0.42619  0.03204  0.31486  1.0000
  N   N24       1.0  0.47818  0.06719  0.37133  1.0000
  C   C353      1.0  0.46080  0.06238  0.37968  1.0000
  C   C354      1.0  0.47890  0.09556  0.35194  1.0000
  C   C355      1.0  0.48280  0.04408  0.34534  1.0000
  C   C356      1.0  0.48899  0.06735  0.40620  1.0000
  C   C357      1.0  0.48683  0.08926  0.43295  1.0000
  C   C358      1.0  0.50137  0.04546  0.41538  1.0000
  C   C359      1.0  0.34394  0.01969  0.37184  1.0000
  N   N25       1.0  0.65055  0.21691  0.13593  1.0000
  H   H426      1.0  0.47735  0.10609  0.42847  1.0000
  Fe  Fe55      1.0  0.40309  0.48354  0.34619  1.0000
  N   N26       1.0  0.40051  0.48297  0.47444  1.0000
  H   H427      1.0  0.45980  0.04149  0.39480  1.0000
  H   H428      1.0  0.47381  0.11392  0.36763  1.0000
  H   H429      1.0  0.47131  0.09556  0.32491  1.0000
  H   H430      1.0  0.49191  0.10071  0.34668  1.0000
  H   H431      1.0  0.32795  0.34838  0.05679  1.0000
  H   H432      1.0  0.47487  0.04525  0.31886  1.0000
  H   H433      1.0  0.49589  0.04608  0.33840  1.0000
  C   C360      1.0  0.50866  0.06782  0.47449  1.0000
  C   C361      1.0  0.35186  0.26861  0.00296  1.0000
  H   H434      1.0  0.48271  0.22996  0.05785  1.0000
  H   H435      1.0  0.61663  0.22461  0.00802  1.0000
  H   H436      1.0  0.34180  0.10069  0.19127  1.0000
  H   H437      1.0  0.50929  0.22104  0.02925  1.0000
  H   H438      1.0  0.46186  0.02631  0.46309  1.0000
  H   H439      1.0  0.39815  0.44901  0.43295  1.0000
  H   H440      1.0  0.63251  0.23223  0.17243  1.0000
  H   H441      1.0  0.48021  0.40127  0.18836  1.0000
  H   H442      1.0  0.49449  0.10597  0.48691  1.0000
  H   H443      1.0  0.39373  0.29675  0.22035  1.0000
  C   C362      1.0  0.33534  0.25989  0.00505  1.0000
  C   C363      1.0  0.63670  0.20761  0.10944  1.0000
  S   S110      1.0  0.40719  0.99897  0.29507  1.0000
  H   H444      1.0  0.36158  0.17182  0.11683  1.0000
  C   C364      1.0  0.39153  0.17375  0.15179  1.0000
  H   H445      1.0  0.38060  0.36081  0.29828  1.0000
  C   C365      1.0  0.33135  0.24461  0.03628  1.0000
  H   H446      1.0  0.39709  0.43813  0.29997  1.0000
  H   H447      1.0  0.40836  0.12620  0.13408  1.0000
  C   C366      1.0  0.33003  0.47085  0.38247  1.0000
  H   H448      1.0  0.64133  0.19659  0.18318  1.0000
  H   H449      1.0  0.41961  0.00963  0.48328  1.0000
  C   C367      1.0  0.47050  0.49191  0.46852  1.0000
  H   H450      1.0  0.39935  0.33516  0.17620  1.0000
  H   H451      1.0  0.41597  0.47078  0.43115  1.0000
  H   H452      1.0  0.36172  0.08007  0.24017  1.0000
  H   H453      1.0  0.63210  0.18583  0.11670  1.0000
  C   C368      1.0  0.36054  0.12255  0.16316  1.0000
  H   H454      1.0  0.36521  0.13931  0.08999  1.0000
  H   H455      1.0  0.62589  0.22310  0.10873  1.0000
  H   H456      1.0  0.65608  0.13103  0.99426  1.0000
  N   N27       1.0  0.38415  0.14760  0.13390  1.0000
  H   H457      1.0  0.38422  0.30979  0.28112  1.0000
  C   C369      1.0  0.39170  0.31942  0.22739  1.0000
  H   H458      1.0  0.36956  0.02240  0.35889  1.0000
  N   N28       1.0  0.38629  0.40974  0.25810  1.0000
  C   C370      1.0  0.39733  0.41489  0.29187  1.0000
  C   C371      1.0  0.39075  0.43089  0.22977  1.0000
  C   C372      1.0  0.36891  0.41633  0.26619  1.0000
  C   C373      1.0  0.38795  0.37893  0.24675  1.0000
  H   H459      1.0  0.34501  0.44016  0.35413  1.0000
  H   H460      1.0  0.41043  0.40905  0.28763  1.0000
  H   H461      1.0  0.40394  0.42787  0.22343  1.0000
  H   H462      1.0  0.38956  0.45381  0.23929  1.0000
  H   H463      1.0  0.38257  0.42903  0.20385  1.0000
  H   H464      1.0  0.36511  0.40337  0.28977  1.0000
  H   H465      1.0  0.36722  0.43960  0.27406  1.0000
  H   H466      1.0  0.36009  0.41181  0.24190  1.0000
  H   H467      1.0  0.45588  0.08001  0.39684  1.0000
  C   C374      1.0  0.38298  0.09909  0.21844  1.0000
  S   S111      1.0  0.37732  0.46423  0.35134  1.0000
  C   C375      1.0  0.38870  0.11643  0.19078  1.0000
  C   C376      1.0  0.37770  0.12872  0.16225  1.0000
  H   H468      1.0  0.39571  0.48544  0.41581  1.0000
  C   C377      1.0  0.34477  0.46104  0.36777  1.0000
  H   H469      1.0  0.37661  0.17180  0.08409  1.0000
  C   C378      1.0  0.51108  0.04596  0.44896  1.0000
  C   C379      1.0  0.36612  0.09341  0.21854  1.0000
  C   C380      1.0  0.40265  0.47154  0.43707  1.0000
  H   H470      1.0  0.39633  0.18856  0.13117  1.0000
  N   N29       1.0  0.47334  0.33669  0.08835  1.0000
  C   C381      1.0  0.47817  0.36068  0.06422  1.0000
  C   C382      1.0  0.48390  0.31081  0.08089  1.0000
  C   C383      1.0  0.45576  0.32993  0.07759  1.0000
  C   C384      1.0  0.47504  0.34396  0.12805  1.0000
  C   C385      1.0  0.47783  0.37277  0.14119  1.0000
  C   C386      1.0  0.47286  0.32222  0.15485  1.0000
  C   C387      1.0  0.47851  0.37908  0.17884  1.0000
  C   C388      1.0  0.47377  0.32871  0.19239  1.0000
  C   C389      1.0  0.47652  0.35709  0.20437  1.0000
  H   H471      1.0  0.49117  0.36739  0.07183  1.0000
  H   H472      1.0  0.47750  0.35400  0.03474  1.0000
  H   H473      1.0  0.46966  0.37996  0.06532  1.0000
  H   H474      1.0  0.49699  0.31375  0.09206  1.0000
  H   H475      1.0  0.48396  0.30639  0.05084  1.0000
  H   H476      1.0  0.47937  0.29038  0.09268  1.0000
  H   H477      1.0  0.44727  0.34822  0.08421  1.0000
  H   H478      1.0  0.45365  0.32531  0.04757  1.0000
  H   H479      1.0  0.45178  0.31027  0.09209  1.0000
  H   H480      1.0  0.47924  0.39094  0.12301  1.0000
  H   H481      1.0  0.46994  0.30013  0.14701  1.0000
  C   C390      1.0  0.64411  0.21866  0.17286  1.0000
  H   H482      1.0  0.47160  0.31184  0.21224  1.0000
  H   H483      1.0  0.47655  0.36222  0.23341  1.0000
  C   C391      1.0  0.35919  0.47789  0.37070  1.0000
  S   S112      1.0  0.40981  0.49603  0.28985  1.0000
  Fe  Fe56      1.0  0.43930  0.49145  0.38056  1.0000
  S   S113      1.0  0.45160  0.48481  0.44025  1.0000
  H   H484      1.0  0.52010  0.02860  0.45596  1.0000
  H   H485      1.0  0.34705  0.44549  0.47296  1.0000
  H   H486      1.0  0.32669  0.31327  0.03535  1.0000
  C   C392      1.0  0.38257  0.48589  0.47999  1.0000
  C   C393      1.0  0.65528  0.24651  0.12475  1.0000
  C   C394      1.0  0.49956  0.23417  0.01480  1.0000
  C   C395      1.0  0.47289  0.01413  0.47309  1.0000
  H   H487      1.0  0.47809  0.16510  0.00056  1.0000
  C   C396      1.0  0.35498  0.46401  0.47854  1.0000
  H   H488      1.0  0.65617  0.16575  0.09519  1.0000
  C   C397      1.0  0.37202  0.46164  0.47441  1.0000
  S   S114      1.0  0.44803  0.00150  0.30955  1.0000
  C   C398      1.0  0.34799  0.49036  0.48896  1.0000
  H   H489      1.0  0.33469  0.49231  0.49119  1.0000
  C   C399      1.0  0.32952  0.49769  0.40042  1.0000
  H   H490      1.0  0.43432  0.99977  0.45093  1.0000
  C   C400      1.0  0.57907  0.33868  0.86408  1.0000
  Fe  Fe57      1.0  0.56832  0.25000  0.87564  1.0000
  S   S115      1.0  0.55111  0.28392  0.89686  1.0000
  S   S116      1.0  0.59657  0.25660  0.88205  1.0000
  Fe  Fe58      1.0  0.53953  0.21873  0.83181  1.0000
  S   S117      1.0  0.52059  0.25196  0.84956  1.0000
  S   S118      1.0  0.52846  0.18145  0.79567  1.0000
  Fe  Fe59      1.0  0.53933  0.28625  0.83851  1.0000
  S   S119      1.0  0.53307  0.33294  0.81756  1.0000
  Fe  Fe60      1.0  0.53361  0.24743  0.90638  1.0000
  S   S120      1.0  0.52173  0.23879  0.96108  1.0000
  S   S121      1.0  0.55711  0.25356  0.81667  1.0000
  S   S122      1.0  0.55190  0.21285  0.88919  1.0000
  H   H491      1.0  0.60851  0.31719  0.85498  1.0000
  S   S123      1.0  0.55225  0.02965  0.61918  1.0000
  S   S124      1.0  0.55555  0.06611  0.71750  1.0000
  Fe  Fe61      1.0  0.54483  0.46248  0.66583  1.0000
  S   S125      1.0  0.55454  0.47352  0.61114  1.0000
  S   S126      1.0  0.54555  0.41307  0.67789  1.0000
  H   H492      1.0  0.62268  0.08048  0.64836  1.0000
  C   C401      1.0  0.60904  0.00766  0.58510  1.0000
  H   H493      1.0  0.59192  0.02975  0.64302  1.0000
  Fe  Fe62      1.0  0.54611  0.02901  0.67864  1.0000
  C   C402      1.0  0.56812  0.42960  0.53695  1.0000
  H   H494      1.0  0.49120  0.27193  0.93504  1.0000
  H   H495      1.0  0.50422  0.43101  0.52402  1.0000
  H   H496      1.0  0.59736  0.01899  0.57784  1.0000
  C   C403      1.0  0.47519  0.17498  0.97370  1.0000
  C   C404      1.0  0.53655  0.35459  0.77810  1.0000
  C   C405      1.0  0.54386  0.34329  0.74747  1.0000
  C   C406      1.0  0.54651  0.36152  0.71727  1.0000
  C   C407      1.0  0.54194  0.39131  0.71711  1.0000
  C   C408      1.0  0.53448  0.40256  0.74755  1.0000
  C   C409      1.0  0.53180  0.38430  0.77772  1.0000
  H   H497      1.0  0.54730  0.32045  0.74680  1.0000
  H   H498      1.0  0.55216  0.35245  0.69384  1.0000
  H   H499      1.0  0.53078  0.42530  0.74788  1.0000
  H   H500      1.0  0.52604  0.39334  0.80105  1.0000
  C   C410      1.0  0.53638  0.14963  0.77396  1.0000
  C   C411      1.0  0.55315  0.14100  0.77820  1.0000
  C   C412      1.0  0.55869  0.11547  0.76079  1.0000
  C   C413      1.0  0.54762  0.09815  0.73873  1.0000
  C   C414      1.0  0.53085  0.10680  0.73446  1.0000
  C   C415      1.0  0.52530  0.13227  0.75200  1.0000
  H   H501      1.0  0.56186  0.15393  0.79499  1.0000
  H   H502      1.0  0.57167  0.10910  0.76454  1.0000
  H   H503      1.0  0.52213  0.09386  0.71769  1.0000
  H   H504      1.0  0.51230  0.13861  0.74836  1.0000
  C   C416      1.0  0.61116  0.49698  0.58302  1.0000
  S   S127      1.0  0.52245  0.49286  0.65645  1.0000
  H   H505      1.0  0.58446  0.29390  0.82116  1.0000
  H   H506      1.0  0.50176  0.43185  0.60313  1.0000
  C   C417      1.0  0.59256  0.05032  0.65900  1.0000
  C   C418      1.0  0.56633  0.40866  0.56396  1.0000
  C   C419      1.0  0.47170  0.48371  0.50606  1.0000
  H   H507      1.0  0.62304  0.48048  0.53602  1.0000
  S   S128      1.0  0.50746  0.01966  0.56182  1.0000
  C   C420      1.0  0.62807  0.25935  0.91701  1.0000
  C   C421      1.0  0.61154  0.25111  0.92029  1.0000
  C   C422      1.0  0.60753  0.23863  0.95338  1.0000
  C   C423      1.0  0.48182  0.02238  0.50641  1.0000
  H   H508      1.0  0.51580  0.06736  0.50107  1.0000
  H   H509      1.0  0.63134  0.26897  0.89154  1.0000
  H   H510      1.0  0.59490  0.23214  0.95634  1.0000
  H   H511      1.0  0.40343  0.44016  0.49911  1.0000
  H   H512      1.0  0.52324  0.43579  0.61883  1.0000
  H   H513      1.0  0.52317  0.36415  0.57467  1.0000
  H   H514      1.0  0.56620  0.38781  0.84477  1.0000
  C   C424      1.0  0.59009  0.37205  0.77366  1.0000
  C   C425      1.0  0.64043  0.25532  0.94640  1.0000
  C   C426      1.0  0.50672  0.40935  0.53730  1.0000
  H   H515      1.0  0.59136  0.40013  0.72639  1.0000
  H   H516      1.0  0.56055  0.43153  0.80832  1.0000
  N   N30       1.0  0.58708  0.34010  0.82885  1.0000
  C   C427      1.0  0.63642  0.24276  0.97944  1.0000
  C   C428      1.0  0.50220  0.24579  0.97994  1.0000
  C   C429      1.0  0.61992  0.23438  0.98267  1.0000
  H   H517      1.0  0.59722  0.00276  0.70063  1.0000
  C   C430      1.0  0.62135  0.04106  0.68154  1.0000
  C   C431      1.0  0.48944  0.26273  0.96175  1.0000
  C   C432      1.0  0.53599  0.41619  0.55786  1.0000
  C   C433      1.0  0.65523  0.14878  0.97341  1.0000
  H   H518      1.0  0.55559  0.46142  0.50072  1.0000
  H   H519      1.0  0.64798  0.14056  0.94838  1.0000
  C   C434      1.0  0.57249  0.38971  0.81989  1.0000
  H   H520      1.0  0.58710  0.31336  0.77986  1.0000
  H   H521      1.0  0.50544  0.37789  0.59656  1.0000
  H   H522      1.0  0.48859  0.21551  0.84893  1.0000
  H   H523      1.0  0.35509  0.28053  0.97902  1.0000
  H   H524      1.0  0.46470  0.28119  0.96381  1.0000
  H   H525      1.0  0.47749  0.04090  0.52151  1.0000
  H   H526      1.0  0.65070  0.07068  0.63004  1.0000
  H   H527      1.0  0.52553  0.38370  0.61783  1.0000
  H   H528      1.0  0.61020  0.35621  0.85342  1.0000
  C   C435      1.0  0.64521  0.05580  0.64853  1.0000
  C   C436      1.0  0.48798  0.19150  0.84510  1.0000
  H   H529      1.0  0.62340  0.03716  0.55478  1.0000
  C   C437      1.0  0.60529  0.33699  0.83783  1.0000
  H   H530      1.0  0.56765  0.31590  0.80011  1.0000
  C   C438      1.0  0.64702  0.01115  0.68353  1.0000
  H   H531      1.0  0.58041  0.43520  0.52959  1.0000
  S   S129      1.0  0.56055  0.49613  0.69570  1.0000
  H   H532      1.0  0.58227  0.31790  0.87916  1.0000
  N   N31       1.0  0.60431  0.04719  0.69228  1.0000
  C   C439      1.0  0.51837  0.38281  0.59037  1.0000
  H   H533      1.0  0.59815  0.35593  0.76240  1.0000
  H   H534      1.0  0.56525  0.33947  0.85930  1.0000
  C   C440      1.0  0.53834  0.43786  0.53098  1.0000
  H   H535      1.0  0.58309  0.35667  0.88291  1.0000
  C   C441      1.0  0.58136  0.31480  0.80643  1.0000
  C   C442      1.0  0.48619  0.48896  0.52965  1.0000
  C   C443      1.0  0.57593  0.41882  0.76563  1.0000
  H   H536      1.0  0.61218  0.33463  0.81283  1.0000
  H   H537      1.0  0.40714  0.46989  0.53045  1.0000
  C   C444      1.0  0.59790  0.02398  0.71546  1.0000
  C   C445      1.0  0.62910  0.06094  0.65879  1.0000
  C   C446      1.0  0.58319  0.36736  0.80778  1.0000
  H   H538      1.0  0.57272  0.43801  0.74893  1.0000
  C   C447      1.0  0.58639  0.39733  0.75290  1.0000
  N   N32       1.0  0.49290  0.17564  0.88000  1.0000
  C   C448      1.0  0.51015  0.18385  0.89201  1.0000
  C   C449      1.0  0.49278  0.14404  0.87166  1.0000
  C   C450      1.0  0.48196  0.18216  0.90979  1.0000
  C   C451      1.0  0.46819  0.20205  0.90534  1.0000
  C   C452      1.0  0.48512  0.16879  0.94490  1.0000
  H   H539      1.0  0.51457  0.45608  0.57979  1.0000
  H   H540      1.0  0.59150  0.07948  0.72305  1.0000
  H   H541      1.0  0.42225  0.45998  0.49868  1.0000
  H   H542      1.0  0.51547  0.17147  0.91652  1.0000
  H   H543      1.0  0.50055  0.13871  0.84850  1.0000
  H   H544      1.0  0.47993  0.13671  0.86375  1.0000
  H   H545      1.0  0.49791  0.13059  0.89546  1.0000
  H   H546      1.0  0.49553  0.15387  0.95058  1.0000
  H   H547      1.0  0.48667  0.48283  0.55837  1.0000
  H   H548      1.0  0.57974  0.05564  0.66634  1.0000
  H   H549      1.0  0.57729  0.39814  0.57767  1.0000
  C   C453      1.0  0.63082  0.01583  0.69355  1.0000
  H   H550      1.0  0.46492  0.21372  0.87998  1.0000
  H   H551      1.0  0.51872  0.18008  0.87000  1.0000
  H   H552      1.0  0.49647  0.18614  0.82332  1.0000
  H   H553      1.0  0.51061  0.20726  0.89945  1.0000
  H   H554      1.0  0.47526  0.18575  0.83373  1.0000
  H   H555      1.0  0.61311  0.07376  0.73805  1.0000
  C   C454      1.0  0.62384  0.01787  0.57191  1.0000
  C   C455      1.0  0.56909  0.41510  0.79913  1.0000
  C   C456      1.0  0.51441  0.43460  0.59383  1.0000
  C   C457      1.0  0.46179  0.19448  0.96840  1.0000
  C   C458      1.0  0.47440  0.26801  0.97826  1.0000
  H   H556      1.0  0.59590  0.06793  0.64028  1.0000
  H   H557      1.0  0.55018  0.38676  0.59695  1.0000
  C   C459      1.0  0.60404  0.07476  0.71337  1.0000
  C   C460      1.0  0.65418  0.03103  0.66101  1.0000
  C   C461      1.0  0.55056  0.40212  0.57459  1.0000
  H   H558      1.0  0.60702  0.09387  0.69656  1.0000
  N   N33       1.0  0.51919  0.41059  0.56961  1.0000
  C   C462      1.0  0.45830  0.20797  0.93433  1.0000
  C   C463      1.0  0.40865  0.46233  0.50189  1.0000
  H   H559      1.0  0.60563  0.02120  0.74194  1.0000
  H   H560      1.0  0.46125  0.47340  0.51710  1.0000
  C   C464      1.0  0.62498  0.49052  0.56280  1.0000
  C   C465      1.0  0.64126  0.49691  0.57695  1.0000
  H   H561      1.0  0.44809  0.22369  0.93077  1.0000
  H   H562      1.0  0.49439  0.40222  0.54512  1.0000
  H   H563      1.0  0.58505  0.02921  0.72283  1.0000
  H   H564      1.0  0.64784  0.16699  0.98475  1.0000
  S   S130      1.0  0.52158  0.00686  0.66536  1.0000
  H   H565      1.0  0.65304  0.26190  0.94342  1.0000
  C   C466      1.0  0.55415  0.44424  0.52060  1.0000
  H   H566      1.0  0.59874  0.49201  0.57174  1.0000
  H   H567      1.0  0.45225  0.00148  0.58893  1.0000
  C   C467      1.0  0.63917  0.00326  0.58048  1.0000
  C   C468      1.0  0.49635  0.00713  0.52031  1.0000
  Fe  Fe63      1.0  0.52833  0.00493  0.60618  1.0000
  H   H568      1.0  0.52809  0.45103  0.51880  1.0000
  H   H569      1.0  0.51089  0.39404  0.51613  1.0000
  H   H570      1.0  0.45433  0.19979  0.99103  1.0000
  H   H571      1.0  0.62593  0.99914  0.71024  1.0000
  Fe  Fe64      1.0  0.40481  0.73829  0.09522  1.0000
  S   S131      1.0  0.41822  0.78092  0.09524  1.0000
  S   S132      1.0  0.38024  0.72426  0.06519  1.0000
  Fe  Fe65      1.0  0.43243  0.70784  0.14559  1.0000
  S   S133      1.0  0.44807  0.74816  0.14741  1.0000
  S   S134      1.0  0.44310  0.66633  0.17517  1.0000
  Fe  Fe66      1.0  0.42445  0.77326  0.15619  1.0000
  S   S135      1.0  0.42372  0.80189  0.20808  1.0000
  Fe  Fe67      1.0  0.44107  0.75298  0.08637  1.0000
  S   S136      1.0  0.45947  0.77021  0.04638  1.0000
  S   S137      1.0  0.40914  0.73251  0.15668  1.0000
  S   S138      1.0  0.42736  0.71077  0.08386  1.0000
  H   H572      1.0  0.40293  0.79300  0.01861  1.0000
  H   H573      1.0  0.36963  0.51809  0.39101  1.0000
  S   S139      1.0  0.38553  0.96694  0.38346  1.0000
  H   H574      1.0  0.32690  0.96139  0.41086  1.0000
  H   H575      1.0  0.34373  0.53533  0.41728  1.0000
  H   H576      1.0  0.41251  0.99230  0.44138  1.0000
  C   C469      1.0  0.53095  0.74422  0.03246  1.0000
  S   S140      1.0  0.41871  0.57881  0.29647  1.0000
  Fe  Fe68      1.0  0.42893  0.96736  0.29347  1.0000
  S   S141      1.0  0.43009  0.93864  0.24220  1.0000
  S   S142      1.0  0.41652  0.52121  0.37332  1.0000
  S   S143      1.0  0.42784  0.95239  0.35170  1.0000
  H   H577      1.0  0.54704  0.69129  0.03196  1.0000
  C   C470      1.0  0.34867  0.78234  0.00770  1.0000
  H   H578      1.0  0.48434  0.79734  0.00648  1.0000
  H   H579      1.0  0.42887  0.74288  0.01218  1.0000
  C   C471      1.0  0.48246  0.77595  0.99468  1.0000
  H   H580      1.0  0.40757  0.73914  0.02106  1.0000
  H   H581      1.0  0.53808  0.78983  0.04120  1.0000
  C   C472      1.0  0.42549  0.84006  0.21675  1.0000
  C   C473      1.0  0.42727  0.86039  0.18878  1.0000
  C   C474      1.0  0.42866  0.89033  0.19719  1.0000
  C   C475      1.0  0.42835  0.90046  0.23359  1.0000
  C   C476      1.0  0.42651  0.88016  0.26159  1.0000
  C   C477      1.0  0.42504  0.85022  0.25316  1.0000
  H   H582      1.0  0.42764  0.85306  0.16067  1.0000
  H   H583      1.0  0.43011  0.90575  0.17526  1.0000
  H   H584      1.0  0.42638  0.88744  0.28976  1.0000
  H   H585      1.0  0.42370  0.83477  0.27509  1.0000
  C   C478      1.0  0.43514  0.64064  0.20603  1.0000
  C   C479      1.0  0.41993  0.64487  0.22135  1.0000
  C   C480      1.0  0.41499  0.62538  0.24828  1.0000
  C   C481      1.0  0.42485  0.60079  0.25951  1.0000
  C   C482      1.0  0.43969  0.59578  0.24296  1.0000
  C   C483      1.0  0.44485  0.61572  0.21673  1.0000
  H   H586      1.0  0.41199  0.66325  0.21278  1.0000
  H   H587      1.0  0.40346  0.62948  0.26067  1.0000
  H   H588      1.0  0.44748  0.57712  0.25128  1.0000
  H   H589      1.0  0.45658  0.61202  0.20502  1.0000
  H   H590      1.0  0.39973  0.95322  0.47725  1.0000
  H   H591      1.0  0.56502  0.70413  0.01200  1.0000
  C   C484      1.0  0.35261  0.96404  0.39809  1.0000
  H   H592      1.0  0.49602  0.71718  0.06737  1.0000
  C   C485      1.0  0.34621  0.92990  0.23213  1.0000
  C   C486      1.0  0.36242  0.77065  0.02982  1.0000
  C   C487      1.0  0.36267  0.74136  0.04060  1.0000
  C   C488      1.0  0.34883  0.72429  0.02988  1.0000
  C   C489      1.0  0.33656  0.52766  0.29787  1.0000
  H   H593      1.0  0.37294  0.78408  0.03776  1.0000
  H   H594      1.0  0.34886  0.70163  0.03806  1.0000
  H   H595      1.0  0.46631  0.73422  0.25965  1.0000
  H   H596      1.0  0.37257  0.87858  0.26220  1.0000
  C   C490      1.0  0.52943  0.77300  0.04639  1.0000
  H   H597      1.0  0.45984  0.71525  0.00414  1.0000
  H   H598      1.0  0.33889  0.56344  0.20219  1.0000
  H   H599      1.0  0.34878  0.80478  0.99870  1.0000
  H   H600      1.0  0.36423  0.54169  0.23492  1.0000
  N   N34       1.0  0.37603  0.92475  0.25781  1.0000
  C   C491      1.0  0.49289  0.97513  0.46679  1.0000
  C   C492      1.0  0.37780  0.89466  0.24363  1.0000
  Fe  Fe69      1.0  0.42472  0.53200  0.31694  1.0000
  H   H601      1.0  0.65189  0.61919  0.47509  1.0000
  C   C493      1.0  0.47841  0.99045  0.45285  1.0000
  H   H602      1.0  0.36087  0.94382  0.32113  1.0000
  H   H603      1.0  0.45062  0.75474  0.23258  1.0000
  C   C494      1.0  0.34395  0.51455  0.40337  1.0000
  C   C495      1.0  0.35163  0.52803  0.28158  1.0000
  H   H604      1.0  0.39560  0.94116  0.22701  1.0000
  C   C496      1.0  0.33816  0.55329  0.22891  1.0000
  H   H605      1.0  0.47170  0.63520  0.28540  1.0000
  C   C497      1.0  0.33611  0.97463  0.39927  1.0000
  H   H606      1.0  0.45456  0.71774  0.22091  1.0000
  H   H607      1.0  0.37151  0.89190  0.21565  1.0000
  C   C498      1.0  0.35834  0.93179  0.26251  1.0000
  H   H608      1.0  0.33194  0.95704  0.32531  1.0000
  H   H609      1.0  0.40024  0.92167  0.28794  1.0000
  C   C499      1.0  0.64270  0.92851  0.49263  1.0000
  H   H610      1.0  0.45179  0.74601  0.31683  1.0000
  N   N35       1.0  0.54443  0.73496  0.00952  1.0000
  H   H611      1.0  0.49734  0.95677  0.45157  1.0000
  Fe  Fe70      1.0  0.44520  0.98881  0.36873  1.0000
  H   H612      1.0  0.38099  0.96828  0.24046  1.0000
  H   H613      1.0  0.45255  0.61605  0.32867  1.0000
  H   H614      1.0  0.50917  0.52089  0.46759  1.0000
  H   H615      1.0  0.39109  0.88840  0.24125  1.0000
  C   C500      1.0  0.35869  0.50479  0.38857  1.0000
  C   C501      1.0  0.55446  0.71103  0.02818  1.0000
  H   H616      1.0  0.42963  0.74212  0.31561  1.0000
  C   C502      1.0  0.35267  0.94158  0.29642  1.0000
  S   S144      1.0  0.46793  0.97903  0.41005  1.0000
  C   C503      1.0  0.55598  0.75864  0.00190  1.0000
  H   H617      1.0  0.42333  0.69441  0.31876  1.0000
  C   C504      1.0  0.38700  0.92671  0.29247  1.0000
  H   H618      1.0  0.42500  0.79406  0.01453  1.0000
  H   H619      1.0  0.42559  0.70658  0.22429  1.0000
  C   C505      1.0  0.33491  0.76510  0.99660  1.0000
  H   H620      1.0  0.46707  0.68282  0.25764  1.0000
  H   H621      1.0  0.37550  0.94378  0.20328  1.0000
  H   H622      1.0  0.43801  0.76793  0.28616  1.0000
  H   H623      1.0  0.51515  0.80322  0.07713  1.0000
  C   C506      1.0  0.50440  0.76090  0.07501  1.0000
  C   C507      1.0  0.63256  0.90652  0.47567  1.0000
  C   C508      1.0  0.41263  0.79300  0.99855  1.0000
  C   C509      1.0  0.49874  0.51044  0.47860  1.0000
  H   H624      1.0  0.49397  0.76744  0.09033  1.0000
  H   H625      1.0  0.42848  0.64570  0.34478  1.0000
  C   C510      1.0  0.40949  0.51091  0.47799  1.0000
  C   C511      1.0  0.51630  0.78106  0.06730  1.0000
  H   H626      1.0  0.35592  0.94250  0.40866  1.0000
  C   C512      1.0  0.38224  0.94537  0.23098  1.0000
  N   N36       1.0  0.44118  0.72325  0.26939  1.0000
  C   C513      1.0  0.42501  0.72248  0.24712  1.0000
  C   C514      1.0  0.44012  0.74571  0.29836  1.0000
  C   C515      1.0  0.45380  0.73280  0.24469  1.0000
  C   C516      1.0  0.44491  0.69425  0.28633  1.0000
  C   C517      1.0  0.45866  0.67644  0.27759  1.0000
  C   C518      1.0  0.43427  0.68256  0.31156  1.0000
  C   C519      1.0  0.46150  0.64883  0.29340  1.0000
  C   C520      1.0  0.43715  0.65479  0.32686  1.0000
  C   C521      1.0  0.45075  0.63800  0.31784  1.0000
  H   H627      1.0  0.41462  0.71615  0.26341  1.0000
  H   H628      1.0  0.42153  0.74407  0.23459  1.0000
  H   H629      1.0  0.38677  0.94902  0.30420  1.0000
  C   C522      1.0  0.33598  0.94921  0.29935  1.0000
  C   C523      1.0  0.32952  0.93742  0.23548  1.0000
  H   H630      1.0  0.43913  0.94805  0.43565  1.0000
  H   H631      1.0  0.65025  0.57052  0.48451  1.0000
  H   H632      1.0  0.45690  0.93377  0.48446  1.0000
  H   H633      1.0  0.55979  0.71792  0.05589  1.0000
  H   H634      1.0  0.42284  0.50809  0.47269  1.0000
  C   C524      1.0  0.48423  0.50531  0.45504  1.0000
  H   H635      1.0  0.41733  0.94174  0.43053  1.0000
  S   S145      1.0  0.44832  0.50438  0.32536  1.0000
  H   H636      1.0  0.56256  0.76696  0.02767  1.0000
  C   C525      1.0  0.35245  0.54098  0.24722  1.0000
  C   C526      1.0  0.51864  0.72421  0.04112  1.0000
  C   C527      1.0  0.33499  0.73608  0.00830  1.0000
  C   C528      1.0  0.36483  0.98114  0.38360  1.0000
  Fe  Fe71      1.0  0.40704  0.98562  0.35450  1.0000
  H   H637      1.0  0.33660  0.51775  0.32472  1.0000
  H   H638      1.0  0.34958  0.92290  0.20541  1.0000
  C   C529      1.0  0.50558  0.73254  0.06199  1.0000
  H   H639      1.0  0.51884  0.70205  0.03126  1.0000
  H   H640      1.0  0.36278  0.51856  0.29597  1.0000
  H   H641      1.0  0.60772  0.89299  0.45820  1.0000
  C   C530      1.0  0.42832  0.94230  0.45118  1.0000
  H   H642      1.0  0.63767  0.88630  0.46608  1.0000
  C   C531      1.0  0.47086  0.75745  0.00915  1.0000
  C   C532      1.0  0.61525  0.91006  0.47099  1.0000
  H   H643      1.0  0.38331  0.91124  0.31374  1.0000
  H   H644      1.0  0.48368  0.51180  0.42642  1.0000
  H   H645      1.0  0.59415  0.93780  0.47998  1.0000
  H   H646      1.0  0.32456  0.72251  0.00001  1.0000
  C   C533      1.0  0.32443  0.94714  0.26902  1.0000
  C   C534      1.0  0.60757  0.93530  0.48313  1.0000
  C   C535      1.0  0.37505  0.51243  0.49096  1.0000
  H   H647      1.0  0.43029  0.91979  0.46224  1.0000
  N   N37       1.0  0.42579  0.96359  0.48096  1.0000
  C   C536      1.0  0.41606  0.74115  0.99861  1.0000
  C   C537      1.0  0.42294  0.99259  0.46344  1.0000
  H   H648      1.0  0.40411  0.52733  0.45761  1.0000
  C   C538      1.0  0.46862  0.72986  0.99343  1.0000
  C   C539      1.0  0.36743  0.74171  0.94448  1.0000
  Fe  Fe72      1.0  0.56132  0.73610  0.88823  1.0000
  S   S146      1.0  0.54375  0.77292  0.90037  1.0000
  S   S147      1.0  0.58213  0.71564  0.92674  1.0000
  Fe  Fe73      1.0  0.54125  0.72048  0.81577  1.0000
  S   S148      1.0  0.52226  0.75654  0.82213  1.0000
  S   S149      1.0  0.54190  0.69221  0.76423  1.0000
  Fe  Fe74      1.0  0.54414  0.78455  0.83979  1.0000
  S   S150      1.0  0.55072  0.83077  0.82229  1.0000
  Fe  Fe75      1.0  0.52300  0.74260  0.88207  1.0000
  S   S151      1.0  0.50013  0.72762  0.91062  1.0000
  S   S152      1.0  0.56309  0.74935  0.82943  1.0000
  S   S153      1.0  0.54064  0.70493  0.87369  1.0000
  S   S154      1.0  0.51877  0.50965  0.54446  1.0000
  S   S155      1.0  0.54804  0.54227  0.62894  1.0000
  S   S156      1.0  0.53163  0.55657  0.73055  1.0000
  Fe  Fe76      1.0  0.53570  0.96390  0.67306  1.0000
  S   S157      1.0  0.54136  0.96111  0.61352  1.0000
  S   S158      1.0  0.52442  0.92309  0.69715  1.0000
  C   C540      1.0  0.46724  0.96965  0.56334  1.0000
  H   H649      1.0  0.49145  0.73327  0.77894  1.0000
  H   H650      1.0  0.48573  0.71507  0.73654  1.0000
  H   H651      1.0  0.46326  0.68899  0.76789  1.0000
  H   H652      1.0  0.52876  0.74124  0.95962  1.0000
  S   S159      1.0  0.65370  0.76805  0.97414  1.0000
  H   H653      1.0  0.54686  0.71834  0.95484  1.0000
  H   H654      1.0  0.48281  0.63079  0.80517  1.0000
  C   C541      1.0  0.60672  0.60396  0.76226  1.0000
  C   C542      1.0  0.54262  0.85667  0.78836  1.0000
  C   C543      1.0  0.52867  0.85128  0.76414  1.0000
  C   C544      1.0  0.52326  0.87192  0.73669  1.0000
  C   C545      1.0  0.53181  0.89806  0.73264  1.0000
  C   C546      1.0  0.54582  0.90334  0.75670  1.0000
  C   C547      1.0  0.55106  0.88294  0.78453  1.0000
  H   H655      1.0  0.52200  0.83128  0.76661  1.0000
  H   H656      1.0  0.51238  0.86762  0.71835  1.0000
  H   H657      1.0  0.55251  0.92332  0.75409  1.0000
  H   H658      1.0  0.56179  0.88757  0.80318  1.0000
  C   C548      1.0  0.54015  0.65395  0.75665  1.0000
  C   C549      1.0  0.53494  0.63492  0.78327  1.0000
  C   C550      1.0  0.53270  0.60516  0.77496  1.0000
  C   C551      1.0  0.53585  0.59387  0.74024  1.0000
  C   C552      1.0  0.54158  0.61271  0.71408  1.0000
  C   C553      1.0  0.54358  0.64256  0.72218  1.0000
  H   H659      1.0  0.53235  0.64306  0.81001  1.0000
  H   H660      1.0  0.52826  0.59079  0.79540  1.0000
  H   H661      1.0  0.54409  0.60441  0.68728  1.0000
  H   H662      1.0  0.54766  0.65696  0.70135  1.0000
  C   C554      1.0  0.48941  0.73963  0.94925  1.0000
  C   C555      1.0  0.36138  0.76511  0.92270  1.0000
  C   C556      1.0  0.49812  0.65832  0.72785  1.0000
  H   H663      1.0  0.65397  0.99160  0.69243  1.0000
  C   C557      1.0  0.60599  0.62473  0.79023  1.0000
  H   H664      1.0  0.49727  0.58556  0.71037  1.0000
  H   H665      1.0  0.50059  0.78169  0.95467  1.0000
  C   C558      1.0  0.45494  0.94820  0.50711  1.0000
  H   H666      1.0  0.49907  0.70570  0.83497  1.0000
  C   C559      1.0  0.61362  0.71418  0.96247  1.0000
  C   C560      1.0  0.60203  0.73044  0.93937  1.0000
  C   C561      1.0  0.60651  0.75783  0.92714  1.0000
  C   C562      1.0  0.50050  0.68562  0.81833  1.0000
  C   C563      1.0  0.49533  0.60596  0.72456  1.0000
  H   H667      1.0  0.42296  0.74964  0.92820  1.0000
  H   H668      1.0  0.59776  0.77068  0.90947  1.0000
  C   C564      1.0  0.49163  0.65914  0.76300  1.0000
  C   C565      1.0  0.59326  0.58612  0.75313  1.0000
  C   C566      1.0  0.57609  0.67060  0.82858  1.0000
  N   N38       1.0  0.59015  0.65024  0.83924  1.0000
  H   H669      1.0  0.59629  0.78357  0.72799  1.0000
  C   C567      1.0  0.62950  0.72517  0.97334  1.0000
  H   H670      1.0  0.34852  0.76556  0.91133  1.0000
  C   C568      1.0  0.38364  0.74169  0.96123  1.0000
  H   H671      1.0  0.59381  0.57018  0.73123  1.0000
  H   H672      1.0  0.40668  0.97177  0.51829  1.0000
  C   C569      1.0  0.47774  0.72117  0.96358  1.0000
  C   C570      1.0  0.48919  0.60593  0.75914  1.0000
  C   C571      1.0  0.38796  0.78844  0.93304  1.0000
  H   H673      1.0  0.59775  0.90951  0.67735  1.0000
  H   H674      1.0  0.56897  0.78437  0.74849  1.0000
  C   C572      1.0  0.49355  0.71302  0.76304  1.0000
  H   H675      1.0  0.54669  0.88761  0.65567  1.0000
  C   C573      1.0  0.58776  0.89451  0.68073  1.0000
  Fe  Fe77      1.0  0.56470  0.98581  0.63093  1.0000
  H   H676      1.0  0.61685  0.63781  0.79572  1.0000
  C   C574      1.0  0.48735  0.63206  0.77818  1.0000
  H   H677      1.0  0.59933  0.84114  0.76853  1.0000
  H   H678      1.0  0.56857  0.57487  0.76474  1.0000
  H   H679      1.0  0.47785  0.97211  0.58335  1.0000
  H   H680      1.0  0.61120  0.97683  0.50942  1.0000
  C   C575      1.0  0.57903  0.58881  0.77206  1.0000
  H   H681      1.0  0.60298  0.86524  0.71451  1.0000
  H   H682      1.0  0.46983  0.71099  0.80713  1.0000
  H   H683      1.0  0.61630  0.65418  0.85591  1.0000
  H   H684      1.0  0.48622  0.58539  0.77149  1.0000
  H   H685      1.0  0.58847  0.81110  0.78570  1.0000
  C   C576      1.0  0.55903  0.88209  0.66817  1.0000
  H   H686      1.0  0.57826  0.84579  0.77932  1.0000
  C   C577      1.0  0.53710  0.72429  0.97353  1.0000
  C   C578      1.0  0.57201  0.90094  0.66396  1.0000
  H   H687      1.0  0.51376  0.68366  0.81240  1.0000
  H   H688      1.0  0.46849  0.67272  0.81233  1.0000
  N   N39       1.0  0.41138  0.76677  0.97484  1.0000
  H   H689      1.0  0.42213  0.78873  0.93012  1.0000
  H   H690      1.0  0.49787  0.66705  0.83639  1.0000
  C   C579      1.0  0.47202  0.68988  0.79309  1.0000
  C   C580      1.0  0.39440  0.76530  0.95624  1.0000
  H   H691      1.0  0.62563  0.79013  0.92862  1.0000
  C   C581      1.0  0.45283  0.98632  0.56627  1.0000
  C   C582      1.0  0.62468  0.96777  0.61521  1.0000
  H   H692      1.0  0.36679  0.80665  0.90014  1.0000
  H   H693      1.0  0.56112  0.79669  0.70364  1.0000
  H   H694      1.0  0.43674  0.76898  0.96048  1.0000
  C   C583      1.0  0.63950  0.97813  0.60231  1.0000
  H   H695      1.0  0.60373  0.68423  0.86892  1.0000
  H   H696      1.0  0.41239  0.93411  0.51295  1.0000
  C   C584      1.0  0.44002  0.96491  0.50925  1.0000
  N   N40       1.0  0.48950  0.68652  0.78372  1.0000
  H   H697      1.0  0.61033  0.69297  0.97218  1.0000
  H   H698      1.0  0.50243  0.67747  0.71465  1.0000
  H   H699      1.0  0.50523  0.63172  0.68273  1.0000
  C   C585      1.0  0.49981  0.63206  0.70901  1.0000
  H   H700      1.0  0.63825  0.71247  0.99119  1.0000
  S   S160      1.0  0.55955  0.98593  0.69065  1.0000
  Fe  Fe78      1.0  0.56889  0.50910  0.64055  1.0000
  C   C586      1.0  0.50176  0.98327  0.50023  1.0000
  H   H701      1.0  0.56393  0.65962  0.82632  1.0000
  C   C587      1.0  0.59157  0.62819  0.80993  1.0000
  H   H702      1.0  0.57512  0.68828  0.84920  1.0000
  C   C588      1.0  0.62235  0.76884  0.93808  1.0000
  C   C589      1.0  0.58694  0.63570  0.87428  1.0000
  C   C590      1.0  0.57814  0.60951  0.79998  1.0000
  H   H703      1.0  0.60801  0.68067  0.82185  1.0000
  H   H704      1.0  0.57751  0.68092  0.80134  1.0000
  H   H705      1.0  0.58633  0.65170  0.89720  1.0000
  H   H706      1.0  0.59695  0.61940  0.88260  1.0000
  H   H707      1.0  0.57493  0.62421  0.87236  1.0000
  H   H708      1.0  0.56673  0.61089  0.81347  1.0000
  H   H709      1.0  0.50689  0.71296  0.75720  1.0000
  H   H710      1.0  0.62510  0.94826  0.63192  1.0000
  H   H711      1.0  0.39537  0.80715  0.92807  1.0000
  C   C591      1.0  0.43937  0.98397  0.53979  1.0000
  C   C592      1.0  0.59058  0.86915  0.70184  1.0000
  H   H712      1.0  0.35920  0.72410  0.94993  1.0000
  C   C593      1.0  0.64355  0.51001  0.61156  1.0000
  H   H713      1.0  0.56982  0.92075  0.64794  1.0000
  C   C594      1.0  0.60937  0.98251  0.60691  1.0000
  H   H714      1.0  0.38712  0.72342  0.97913  1.0000
  H   H715      1.0  0.60597  0.81554  0.71297  1.0000
  H   H716      1.0  0.41581  0.72055  0.98262  1.0000
  H   H717      1.0  0.63165  0.52731  0.65804  1.0000
  H   H718      1.0  0.55085  0.84371  0.69218  1.0000
  H   H719      1.0  0.47967  0.93817  0.53142  1.0000
  C   C595      1.0  0.42379  0.76864  0.94713  1.0000
  Fe  Fe79      1.0  0.53279  0.50536  0.60290  1.0000
  H   H720      1.0  0.51288  0.97129  0.51026  1.0000
  H   H721      1.0  0.55610  0.81612  0.74445  1.0000
  C   C596      1.0  0.62972  0.51693  0.63146  1.0000
  C   C597      1.0  0.37166  0.78834  0.91676  1.0000
  C   C598      1.0  0.65070  0.57369  0.51483  1.0000
  H   H722      1.0  0.56585  0.75099  0.98424  1.0000
  S   S161      1.0  0.59109  0.96797  0.62370  1.0000
  C   C599      1.0  0.63396  0.75266  0.96127  1.0000
  H   H723      1.0  0.61777  0.60167  0.74738  1.0000
  C   C600      1.0  0.56165  0.85673  0.68933  1.0000
  H   H724      1.0  0.64710  0.55238  0.52638  1.0000
  S   S162      1.0  0.59651  0.52084  0.64348  1.0000
  C   C601      1.0  0.49179  0.76706  0.96529  1.0000
  H   H725      1.0  0.58994  0.79904  0.68349  1.0000
  C   C602      1.0  0.60526  0.66798  0.84659  1.0000
  Fe  Fe80      1.0  0.53914  0.52770  0.68280  1.0000
  N   N41       1.0  0.58097  0.82256  0.72901  1.0000
  C   C603      1.0  0.59386  0.80443  0.71267  1.0000
  C   C604      1.0  0.58709  0.83045  0.76713  1.0000
  C   C605      1.0  0.56613  0.80419  0.73129  1.0000
  C   C606      1.0  0.57760  0.84939  0.70674  1.0000
  H   H726      1.0  0.64133  0.97164  0.51712  1.0000
  H   H727      1.0  0.64097  0.58993  0.52134  1.0000
  C   C607      1.0  0.46824  0.95052  0.53400  1.0000
  C   C608      1.0  0.61344  0.51043  0.61745  1.0000
  H   H728      1.0  0.47574  0.69989  0.95155  1.0000
  H   H729      1.0  0.65115  0.96669  0.60935  1.0000
  H   H730      1.0  0.65596  0.51497  0.62298  1.0000
  C   C609      1.0  0.49991  0.50247  0.51616  1.0000
  H   H731      1.0  0.52951  0.70460  0.97603  1.0000
  H   H732      1.0  0.54933  0.77709  0.98681  1.0000
  H   H733      1.0  0.41105  0.81358  0.98253  1.0000
  H   H734      1.0  0.40943  0.52003  0.50623  1.0000
  C   C610      1.0  0.63445  0.95407  0.50403  1.0000
  C   C611      1.0  0.61716  0.95728  0.49958  1.0000
  H   H735      1.0  0.35241  0.53499  0.50296  1.0000
  C   C612      1.0  0.41053  0.95532  0.49820  1.0000
  H   H736      1.0  0.42855  0.99763  0.54308  1.0000
  C   C613      1.0  0.35801  0.51445  0.49533  1.0000
  H   H737      1.0  0.38199  0.53207  0.49590  1.0000
  Fe  Fe81      1.0  0.75634  0.24616  0.35051  1.0000
  S   S163      1.0  0.77170  0.20995  0.37916  1.0000
  S   S164      1.0  0.75697  0.25354  0.28856  1.0000
  Fe  Fe82      1.0  0.74882  0.27559  0.42437  1.0000
  S   S165      1.0  0.76408  0.24184  0.45785  1.0000
  C   C614      1.0  0.83194  0.48101  0.00970  1.0000
  Fe  Fe83      1.0  0.78287  0.24560  0.41498  1.0000
  S   S166      1.0  0.81044  0.25577  0.42741  1.0000
  Fe  Fe84      1.0  0.75181  0.20845  0.41975  1.0000
  S   S167      1.0  0.73575  0.17061  0.43732  1.0000
  S   S168      1.0  0.76833  0.28184  0.38472  1.0000
  S   S169      1.0  0.73576  0.24226  0.38771  1.0000
  Fe  Fe85      1.0  0.93103  0.19432  0.31425  1.0000
  S   S170      1.0  0.92231  0.19489  0.37155  1.0000
  S   S171      1.0  0.94145  0.15106  0.29267  1.0000
  Fe  Fe86      1.0  0.92573  0.26145  0.30535  1.0000
  S   S172      1.0  0.91624  0.26577  0.36179  1.0000
  S   S173      1.0  0.93395  0.29811  0.26791  1.0000
  Fe  Fe87      1.0  0.93755  0.23515  0.38218  1.0000
  S   S174      1.0  0.95535  0.24773  0.43289  1.0000
  Fe  Fe88      1.0  0.90175  0.22504  0.34728  1.0000
  S   S175      1.0  0.87471  0.21096  0.35041  1.0000
  S   S176      1.0  0.94750  0.23278  0.32634  1.0000
  S   S177      1.0  0.91000  0.22253  0.28938  1.0000
  Fe  Fe89      1.0  0.91765  0.44864  0.14335  1.0000
  S   S178      1.0  0.94217  0.47104  0.15267  1.0000
  S   S179      1.0  0.90698  0.41134  0.17587  1.0000
  C   C615      1.0  0.75616  0.32557  0.06245  1.0000
  S   S180      1.0  0.92272  0.02024  0.07932  1.0000
  C   C616      1.0  0.85922  0.47492  0.04421  1.0000
  C   C617      1.0  0.69393  0.18561  0.16215  1.0000
  H   H738      1.0  0.98356  0.21937  0.34060  1.0000
  Fe  Fe90      1.0  0.91971  0.01993  0.14048  1.0000
  S   S181      1.0  0.91265  0.06430  0.16551  1.0000
  S   S182      1.0  0.91617  0.45467  0.08158  1.0000
  H   H739      1.0  0.88905  0.47602  0.99382  1.0000
  Fe  Fe91      1.0  0.70321  0.26019  0.09544  1.0000
  S   S183      1.0  0.72593  0.25013  0.06575  1.0000
  S   S184      1.0  0.70050  0.26846  0.15660  1.0000
  Fe  Fe92      1.0  0.67911  0.24758  0.02607  1.0000
  Fe  Fe93      1.0  0.71217  0.21184  0.04070  1.0000
  H   H740      1.0  0.89345  0.06345  0.03939  1.0000
  C   C618      1.0  0.84846  0.10733  0.08199  1.0000
  H   H741      1.0  0.71785  0.37075  0.34260  1.0000
  S   S185      1.0  0.69041  0.22062  0.07327  1.0000
  S   S186      1.0  0.69055  0.28852  0.05027  1.0000
  H   H742      1.0  0.72052  0.25070  0.28605  1.0000
  H   H743      1.0  0.73668  0.26343  0.15839  1.0000
  Fe  Fe94      1.0  0.90332  0.49764  0.09034  1.0000
  C   C619      1.0  0.71484  0.32853  0.22827  1.0000
  H   H744      1.0  0.84167  0.44052  0.03345  1.0000
  H   H745      1.0  0.67979  0.22163  0.17963  1.0000
  C   C620      1.0  0.80063  0.39993  0.05460  1.0000
  H   H746      1.0  0.73172  0.10485  0.05340  1.0000
  Fe  Fe95      1.0  0.71257  0.27584  0.01879  1.0000
  H   H747      1.0  0.72882  0.23332  0.46886  1.0000
  H   H748      1.0  0.90727  0.39807  0.36696  1.0000
  H   H749      1.0  0.76227  0.14433  0.48864  1.0000
  H   H750      1.0  0.72325  0.32482  0.20693  1.0000
  C   C621      1.0  0.84404  0.46335  0.02951  1.0000
  H   H751      1.0  0.86412  0.15044  0.25913  1.0000
  C   C622      1.0  0.72716  0.14007  0.01447  1.0000
  S   S187      1.0  0.73028  0.30919  0.44512  1.0000
  H   H752      1.0  0.92318  0.48425  0.32122  1.0000
  H   H753      1.0  0.67416  0.34375  0.23757  1.0000
  N   N42       1.0  0.98632  0.17619  0.36479  1.0000
  C   C623      1.0  0.93368  0.12781  0.25602  1.0000
  C   C624      1.0  0.91974  0.13537  0.23232  1.0000
  C   C625      1.0  0.91365  0.11581  0.20469  1.0000
  C   C626      1.0  0.92152  0.08856  0.19984  1.0000
  C   C627      1.0  0.93565  0.08122  0.22313  1.0000
  C   C628      1.0  0.94162  0.10065  0.25105  1.0000
  H   H754      1.0  0.91372  0.15637  0.23512  1.0000
  H   H755      1.0  0.90276  0.12187  0.18688  1.0000
  H   H756      1.0  0.94189  0.06043  0.21990  1.0000
  H   H757      1.0  0.95246  0.09450  0.26899  1.0000
  C   C629      1.0  0.92597  0.32917  0.24200  1.0000
  C   C630      1.0  0.93684  0.34497  0.22145  1.0000
  C   C631      1.0  0.93135  0.37015  0.20123  1.0000
  C   C632      1.0  0.91482  0.37989  0.20114  1.0000
  C   C633      1.0  0.90395  0.36415  0.22174  1.0000
  C   C634      1.0  0.90946  0.33903  0.24209  1.0000
  H   H758      1.0  0.94964  0.33763  0.22116  1.0000
  H   H759      1.0  0.93988  0.38179  0.18544  1.0000
  H   H760      1.0  0.89114  0.37143  0.22195  1.0000
  H   H761      1.0  0.90096  0.32735  0.25787  1.0000
  C   C635      1.0  0.97042  0.23636  0.46961  1.0000
  H   H762      1.0  0.95123  0.45091  0.25578  1.0000
  H   H763      1.0  0.70484  0.19140  0.17982  1.0000
  H   H764      1.0  0.90067  0.46750  0.27800  1.0000
  H   H765      1.0  0.69883  0.25719  0.23394  1.0000
  C   C636      1.0  0.82849  0.24175  0.40783  1.0000
  C   C637      1.0  0.82818  0.21667  0.38611  1.0000
  C   C638      1.0  0.84254  0.20737  0.36941  1.0000
  C   C639      1.0  0.85744  0.22286  0.37434  1.0000
  C   C640      1.0  0.85785  0.24766  0.39660  1.0000
  C   C641      1.0  0.84347  0.25695  0.41330  1.0000
  H   H766      1.0  0.81684  0.20452  0.38200  1.0000
  H   H767      1.0  0.84203  0.18815  0.35230  1.0000
  H   H768      1.0  0.86918  0.25981  0.40074  1.0000
  H   H769      1.0  0.84392  0.27627  0.43027  1.0000
  C   C642      1.0  0.93606  0.37808  0.30875  1.0000
  C   C643      1.0  0.66528  0.19704  0.13742  1.0000
  C   C644      1.0  0.69462  0.16168  0.13889  1.0000
  H   H770      1.0  0.73738  0.35744  0.07293  1.0000
  H   H771      1.0  0.81912  0.04919  0.03675  1.0000
  H   H772      1.0  0.92495  0.35574  0.35200  1.0000
  C   C645      1.0  0.73689  0.13932  0.46708  1.0000
  C   C646      1.0  0.72265  0.12229  0.46901  1.0000
  H   H773      1.0  0.87186  0.05050  0.12428  1.0000
  H   H774      1.0  0.76494  0.42633  0.01048  1.0000
  H   H775      1.0  0.71147  0.12795  0.45188  1.0000
  C   C647      1.0  0.71882  0.22984  0.48754  1.0000
  C   C648      1.0  0.74093  0.25440  0.25211  1.0000
  C   C649      1.0  0.74533  0.25765  0.21580  1.0000
  C   C650      1.0  0.73308  0.26049  0.18608  1.0000
  C   C651      1.0  0.71624  0.26067  0.19243  1.0000
  C   C652      1.0  0.71181  0.25690  0.22869  1.0000
  C   C653      1.0  0.72408  0.25346  0.25836  1.0000
  H   H776      1.0  0.75831  0.25824  0.21058  1.0000
  C   C654      1.0  0.84446  0.06031  0.05308  1.0000
  H   H777      1.0  0.77315  0.43271  0.05739  1.0000
  C   C655      1.0  0.98837  0.14622  0.35029  1.0000
  H   H778      1.0  0.76765  0.47168  0.47076  1.0000
  C   C656      1.0  0.69276  0.33590  0.28268  1.0000
  H   H779      1.0  0.70604  0.14888  0.13842  1.0000
  C   C657      1.0  0.83125  0.11250  0.07786  1.0000
  H   H780      1.0  0.95966  0.17213  0.35842  1.0000
  C   C658      1.0  0.92655  0.42853  0.29585  1.0000
  H   H781      1.0  0.80865  0.38003  0.05419  1.0000
  H   H782      1.0  0.68152  0.13620  0.09725  1.0000
  H   H783      1.0  0.90499  0.44438  0.24027  1.0000
  C   C659      1.0  0.73282  0.34271  0.46955  1.0000
  H   H784      1.0  0.97859  0.14140  0.32776  1.0000
  H   H785      1.0  0.71204  0.21015  0.47737  1.0000
  H   H786      1.0  0.90804  0.44360  0.33228  1.0000
  C   C660      1.0  0.71857  0.35817  0.47919  1.0000
  H   H787      1.0  0.97736  0.19069  0.31014  1.0000
  H   H788      1.0  0.71622  0.34964  0.38374  1.0000
  H   H789      1.0  0.88045  0.10203  0.12025  1.0000
  C   C661      1.0  0.69815  0.33489  0.21833  1.0000
  H   H790      1.0  0.94445  0.47572  0.31384  1.0000
  H   H791      1.0  0.68371  0.33881  0.30271  1.0000
  C   C662      1.0  0.73310  0.31775  0.34018  1.0000
  C   C663      1.0  0.70588  0.30050  0.34852  1.0000
  H   H792      1.0  0.73645  0.29676  0.32711  1.0000
  N   N43       1.0  0.92669  0.45613  0.27473  1.0000
  H   H793      1.0  0.98715  0.12947  0.37195  1.0000
  S   S188      1.0  0.96069  0.46690  0.05282  1.0000
  Fe  Fe96      1.0  0.94006  0.47975  0.09090  1.0000
  C   C664      1.0  0.68715  0.33879  0.24548  1.0000
  H   H794      1.0  0.97599  0.28044  0.48578  1.0000
  C   C665      1.0  0.72058  0.32545  0.26535  1.0000
  H   H795      1.0  0.70640  0.34955  0.47163  1.0000
  N   N44       1.0  0.80693  0.28341  0.30424  1.0000
  C   C666      1.0  0.80170  0.25332  0.31148  1.0000
  C   C667      1.0  0.81063  0.29843  0.33994  1.0000
  C   C668      1.0  0.79255  0.29899  0.28451  1.0000
  C   C669      1.0  0.82201  0.28240  0.28365  1.0000
  C   C670      1.0  0.82238  0.29375  0.24739  1.0000
  C   C671      1.0  0.83702  0.26971  0.29998  1.0000
  C   C672      1.0  0.83703  0.29288  0.22927  1.0000
  C   C673      1.0  0.85155  0.26889  0.28168  1.0000
  C   C674      1.0  0.85159  0.28059  0.24643  1.0000
  H   H796      1.0  0.81159  0.24026  0.32700  1.0000
  H   H797      1.0  0.79074  0.25310  0.32813  1.0000
  H   H798      1.0  0.79820  0.24156  0.28539  1.0000
  H   H799      1.0  0.79949  0.30040  0.35588  1.0000
  H   H800      1.0  0.81538  0.32066  0.33582  1.0000
  H   H801      1.0  0.82004  0.28649  0.35841  1.0000
  H   H802      1.0  0.78825  0.28768  0.25853  1.0000
  H   H803      1.0  0.78160  0.29969  0.30125  1.0000
  H   H804      1.0  0.79553  0.32192  0.27828  1.0000
  H   H805      1.0  0.81156  0.30343  0.23246  1.0000
  H   H806      1.0  0.83764  0.26034  0.32724  1.0000
  H   H807      1.0  0.83714  0.30183  0.20174  1.0000
  H   H808      1.0  0.86286  0.25917  0.29507  1.0000
  H   H809      1.0  0.86295  0.28011  0.23243  1.0000
  H   H810      1.0  0.78419  0.44412  0.01989  1.0000
  H   H811      1.0  0.94480  0.40343  0.26635  1.0000
  C   C675      1.0  0.93660  0.40380  0.28832  1.0000
  C   C676      1.0  0.71165  0.35172  0.35406  1.0000
  C   C677      1.0  0.77198  0.32074  0.05087  1.0000
  N   N45       1.0  0.87368  0.07430  0.07385  1.0000
  C   C678      1.0  0.87988  0.06886  0.03720  1.0000
  C   C679      1.0  0.88375  0.09794  0.09161  1.0000
  C   C680      1.0  0.87683  0.04783  0.09688  1.0000
  C   C681      1.0  0.85560  0.08091  0.06964  1.0000
  H   H812      1.0  0.75308  0.39866  0.05513  1.0000
  C   C682      1.0  0.75119  0.13161  0.48960  1.0000
  C   C683      1.0  0.91551  0.39984  0.34506  1.0000
  S   S189      1.0  0.72053  0.16434  0.04836  1.0000
  C   C684      1.0  0.97385  0.47871  0.01833  1.0000
  C   C685      1.0  0.82731  0.06558  0.04927  1.0000
  H   H813      1.0  0.93444  0.43839  0.22398  1.0000
  C   C686      1.0  0.68076  0.15470  0.11550  1.0000
  H   H814      1.0  0.89728  0.09205  0.09415  1.0000
  N   N46       1.0  0.71509  0.32478  0.33331  1.0000
  H   H815      1.0  0.73683  0.31532  0.37011  1.0000
  C   C687      1.0  0.67947  0.20289  0.16171  1.0000
  H   H816      1.0  0.89035  0.04288  0.10178  1.0000
  C   C688      1.0  0.93814  0.45525  0.24489  1.0000
  C   C689      1.0  0.92548  0.37601  0.33684  1.0000
  C   C690      1.0  0.73728  0.09135  0.99900  1.0000
  H   H817      1.0  0.74086  0.33531  0.33001  1.0000
  H   H818      1.0  0.77673  0.29860  0.04882  1.0000
  H   H819      1.0  0.96909  0.16351  0.40358  1.0000
  H   H820      1.0  0.87123  0.02814  0.08379  1.0000
  H   H821      1.0  0.71005  0.29617  0.37798  1.0000
  H   H822      1.0  0.86836  0.46100  0.05931  1.0000
  H   H823      1.0  0.82601  0.13277  0.08738  1.0000
  H   H824      1.0  0.79367  0.33933  0.03216  1.0000
  H   H825      1.0  0.70781  0.27997  0.33308  1.0000
  N   N47       1.0  0.78528  0.39764  0.02962  1.0000
  H   H826      1.0  0.69817  0.35705  0.35364  1.0000
  C   C691      1.0  0.82071  0.09166  0.06159  1.0000
  C   C692      1.0  0.90977  0.46292  0.25744  1.0000
  C   C693      1.0  0.77521  0.37331  0.04168  1.0000
  C   C694      1.0  0.78148  0.34421  0.04101  1.0000
  C   C695      1.0  0.75910  0.37749  0.05418  1.0000
  C   C696      1.0  0.97439  0.20703  0.47746  1.0000
  H   H827      1.0  0.94365  0.35929  0.30221  1.0000
  H   H828      1.0  0.69374  0.33628  0.18944  1.0000
  H   H829      1.0  0.90965  0.48244  0.23916  1.0000
  H   H830      1.0  0.96793  0.19024  0.46174  1.0000
  H   H831      1.0  0.88238  0.11849  0.07538  1.0000
  H   H832      1.0  0.84893  0.03979  0.04304  1.0000
  H   H833      1.0  0.74099  0.06943  0.00747  1.0000
  C   C697      1.0  0.66625  0.17200  0.11463  1.0000
  H   H834      1.0  0.80835  0.41845  0.04660  1.0000
  C   C698      1.0  0.77644  0.42633  0.02945  1.0000
  H   H835      1.0  0.70858  0.35054  0.01691  1.0000
  H   H836      1.0  0.69230  0.30505  0.34752  1.0000
  C   C699      1.0  0.91604  0.42577  0.32501  1.0000
  C   C700      1.0  0.73198  0.11146  0.02496  1.0000
  H   H837      1.0  0.98496  0.43602  0.01299  1.0000
  H   H838      1.0  0.73355  0.31945  0.27077  1.0000
  N   N48       1.0  0.88122  0.13030  0.30104  1.0000
  C   C701      1.0  0.89659  0.13935  0.32286  1.0000
  C   C702      1.0  0.87652  0.15372  0.27383  1.0000
  C   C703      1.0  0.86799  0.12807  0.32682  1.0000
  C   C704      1.0  0.88313  0.10230  0.28155  1.0000
  C   C705      1.0  0.86952  0.09077  0.25945  1.0000
  C   C706      1.0  0.89836  0.08605  0.28315  1.0000
  C   C707      1.0  0.87113  0.06489  0.23974  1.0000
  C   C708      1.0  0.89978  0.06011  0.26352  1.0000
  C   C709      1.0  0.88627  0.04970  0.24160  1.0000
  H   H839      1.0  0.90688  0.14307  0.30501  1.0000
  H   H840      1.0  0.89465  0.16022  0.33751  1.0000
  H   H841      1.0  0.90078  0.12301  0.34437  1.0000
  H   H842      1.0  0.88572  0.15498  0.25281  1.0000
  H   H843      1.0  0.87595  0.17548  0.28717  1.0000
  C   C710      1.0  0.70963  0.32886  0.29379  1.0000
  H   H844      1.0  0.87081  0.10998  0.34687  1.0000
  H   H845      1.0  0.86669  0.14852  0.34293  1.0000
  H   H846      1.0  0.85558  0.12422  0.31243  1.0000
  H   H847      1.0  0.85756  0.10189  0.25690  1.0000
  H   H848      1.0  0.90953  0.09323  0.29852  1.0000
  H   H849      1.0  0.86065  0.05666  0.22263  1.0000
  H   H850      1.0  0.91163  0.04848  0.26423  1.0000
  H   H851      1.0  0.88767  0.03004  0.22561  1.0000
  H   H852      1.0  0.87383  0.05003  0.02289  1.0000
  C   C711      1.0  0.96976  0.17820  0.37948  1.0000
  H   H853      1.0  0.68232  0.10691  0.99819  1.0000
  C   C712      1.0  0.98463  0.45828  0.00316  1.0000
  H   H854      1.0  0.66511  0.25594  0.14401  1.0000
  H   H855      1.0  0.74860  0.30730  0.06892  1.0000
  H   H856      1.0  0.71076  0.40447  0.01519  1.0000
  C   C713      1.0  0.74985  0.35388  0.06461  1.0000
  C   C714      1.0  0.74844  0.35417  0.47979  1.0000
  H   H857      1.0  0.85589  0.12429  0.09497  1.0000
  C   C715      1.0  0.93192  0.48033  0.29969  1.0000
  H   H858      1.0  0.79762  0.40360  0.08351  1.0000
  H   H859      1.0  0.87765  0.08812  0.01881  1.0000
  H   H860      1.0  0.80738  0.09564  0.05853  1.0000
  H   H861      1.0  0.96674  0.20058  0.38870  1.0000
  H   H862      1.0  0.75953  0.34253  0.47286  1.0000
  C   C716      1.0  0.97891  0.25768  0.49125  1.0000
  H   H863      1.0  0.66012  0.24621  0.09702  1.0000
  S   S190      1.0  0.90294  0.49002  0.15072  1.0000
  H   H864      1.0  0.93808  0.47647  0.23000  1.0000
  H   H865      1.0  0.68219  0.15178  0.02099  1.0000
  H   H866      1.0  0.71007  0.24877  0.48380  1.0000
  H   H867      1.0  0.91211  0.44623  0.00214  1.0000
  H   H868      1.0  0.67499  0.18785  0.01063  1.0000
  C   C717      1.0  0.71910  0.39105  0.00033  1.0000
  H   H869      1.0  0.93400  0.44781  0.99953  1.0000
  C   C718      1.0  0.71783  0.36049  0.00137  1.0000
  C   C719      1.0  0.68109  0.16849  0.99887  1.0000
  C   C720      1.0  0.98664  0.19655  0.33319  1.0000
  H   H870      1.0  0.69396  0.17439  0.99356  1.0000
  H   H871      1.0  0.99007  0.22889  0.40005  1.0000
  C   C721      1.0  0.72269  0.09783  0.49274  1.0000
  Fe  Fe97      1.0  0.72033  0.02322  0.56233  1.0000
  H   H872      1.0  0.70502  0.20246  0.54331  1.0000
  S   S191      1.0  0.73798  0.05922  0.54573  1.0000
  C   C722      1.0  0.98689  0.19933  0.50559  1.0000
  S   S192      1.0  0.70052  0.45476  0.59910  1.0000
  H   H873      1.0  0.78360  0.02784  0.81762  1.0000
  C   C723      1.0  0.73549  0.25235  0.53755  1.0000
  H   H874      1.0  0.97551  0.10350  0.62364  1.0000
  Fe  Fe98      1.0  0.72002  0.46209  0.55900  1.0000
  H   H875      1.0  0.98994  0.17658  0.51081  1.0000
  S   S193      1.0  0.70262  0.03155  0.60597  1.0000
  H   H876      1.0  0.74596  0.19896  0.50920  1.0000
  C   C724      1.0  0.75558  0.05267  0.83835  1.0000
  H   H877      1.0  0.96450  0.20064  0.56622  1.0000
  C   C725      1.0  0.76159  0.27651  0.55744  1.0000
  H   H878      1.0  0.74025  0.03920  0.67292  1.0000
  H   H879      1.0  0.72828  0.17953  0.52035  1.0000
  H   H880      1.0  0.75425  0.10656  0.81076  1.0000
  Fe  Fe99      1.0  0.75232  0.46923  0.95529  1.0000
  H   H881      1.0  0.76725  0.46490  0.51855  1.0000
  Fe  Fe100     1.0  0.75418  0.02884  0.93899  1.0000
  S   S194      1.0  0.74381  0.07495  0.92821  1.0000
  S   S195      1.0  0.77402  0.44938  0.92953  1.0000
  C   C726      1.0  0.74049  0.49312  0.79484  1.0000
  H   H882      1.0  0.74155  0.19442  0.55686  1.0000
  C   C727      1.0  0.73773  0.09966  0.96220  1.0000
  H   H883      1.0  0.72315  0.06435  0.71648  1.0000
  C   C728      1.0  0.75643  0.46548  0.75317  1.0000
  N   N49       1.0  0.91994  0.48112  0.96788  1.0000
  C   C729      1.0  0.75290  0.25128  0.54752  1.0000
  H   H884      1.0  0.66654  0.02681  0.65230  1.0000
  H   H885      1.0  0.69889  0.11192  0.87055  1.0000
  C   C730      1.0  0.72866  0.34291  0.98261  1.0000
  H   H886      1.0  0.77492  0.27531  0.56423  1.0000
  H   H887      1.0  0.66276  0.20248  0.95292  1.0000
  C   C731      1.0  0.68552  0.10879  0.97011  1.0000
  H   H888      1.0  0.98755  0.10923  0.68330  1.0000
  C   C732      1.0  0.72745  0.28012  0.53833  1.0000
  C   C733      1.0  0.87162  0.49074  0.90823  1.0000
  S   S196      1.0  0.73312  0.49602  0.59524  1.0000
  H   H889      1.0  0.76064  0.05791  0.86681  1.0000
  Fe  Fe101     1.0  0.68595  0.49104  0.56856  1.0000
  H   H890      1.0  0.76189  0.38928  0.50709  1.0000
  C   C734      1.0  0.66931  0.18419  0.93967  1.0000
  H   H891      1.0  0.76731  0.45243  0.74819  1.0000
  C   C735      1.0  0.76684  0.09619  0.81425  1.0000
  S   S197      1.0  0.77936  0.01819  0.91932  1.0000
  H   H892      1.0  0.94820  0.15812  0.54457  1.0000
  C   C736      1.0  0.74422  0.47133  0.72395  1.0000
  C   C737      1.0  0.76875  0.04200  0.74699  1.0000
  C   C738      1.0  0.98316  0.14918  0.62539  1.0000
  C   C739      1.0  0.97938  0.17650  0.60807  1.0000
  C   C740      1.0  0.96106  0.12847  0.58353  1.0000
  C   C741      1.0  0.73281  0.12823  0.95164  1.0000
  H   H893      1.0  0.69849  0.06721  0.97349  1.0000
  C   C742      1.0  0.74271  0.06497  0.76064  1.0000
  H   H894      1.0  0.79237  0.06120  0.80181  1.0000
  H   H895      1.0  0.86188  0.48131  0.95994  1.0000
  H   H896      1.0  0.98027  0.16219  0.69537  1.0000
  H   H897      1.0  0.76242  0.10134  0.53035  1.0000
  N   N50       1.0  0.67183  0.15851  0.96454  1.0000
  S   S198      1.0  0.73803  0.42982  0.53327  1.0000
  H   H898      1.0  0.94634  0.48280  0.96225  1.0000
  H   H899      1.0  0.68138  0.19289  0.93231  1.0000
  H   H900      1.0  0.71680  0.22133  0.57963  1.0000
  C   C743      1.0  0.75928  0.05661  0.77290  1.0000
  H   H901      1.0  0.78134  0.03428  0.75374  1.0000
  S   S199      1.0  0.76993  0.46737  0.82509  1.0000
  C   C744      1.0  0.68591  0.13433  0.91198  1.0000
  Fe  Fe102     1.0  0.68473  0.00286  0.57303  1.0000
  H   H902      1.0  0.73475  0.07622  0.77859  1.0000
  H   H903      1.0  0.77884  0.38851  0.97244  1.0000
  H   H904      1.0  0.78793  0.05717  0.84872  1.0000
  Fe  Fe103     1.0  0.78948  0.48357  0.95987  1.0000
  H   H905      1.0  0.74275  0.06193  0.83571  1.0000
  N   N51       1.0  0.72587  0.22626  0.52619  1.0000
  H   H906      1.0  0.77233  0.10270  0.84202  1.0000
  S   S200      1.0  0.72805  0.30433  0.98393  1.0000
  C   C745      1.0  0.97356  0.12513  0.61230  1.0000
  H   H907      1.0  0.75479  0.02863  0.83661  1.0000
  C   C746      1.0  0.90351  0.48456  0.94687  1.0000
  S   S201      1.0  0.73259  0.44281  0.98102  1.0000
  Fe  Fe104     1.0  0.76855  0.48256  0.88439  1.0000
  C   C747      1.0  0.75461  0.47627  0.78878  1.0000
  C   C748      1.0  0.76197  0.03630  0.71122  1.0000
  C   C749      1.0  0.69934  0.08688  0.92030  1.0000
  C   C750      1.0  0.73001  0.48791  0.73017  1.0000
  H   H908      1.0  0.75095  0.39668  0.94550  1.0000
  H   H909      1.0  0.73306  0.13482  0.92321  1.0000
  H   H910      1.0  0.96439  0.00559  0.93639  1.0000
  C   C751      1.0  0.74563  0.04455  0.70029  1.0000
  C   C752      1.0  0.88869  0.48101  0.96474  1.0000
  C   C753      1.0  0.73600  0.05874  0.72499  1.0000
  C   C754      1.0  0.73116  0.40433  0.98055  1.0000
  H   H911      1.0  0.76019  0.23133  0.54717  1.0000
  H   H912      1.0  0.76925  0.02464  0.69206  1.0000
  C   C755      1.0  0.78328  0.05206  0.81986  1.0000
  C   C756      1.0  0.90165  0.49140  0.90864  1.0000
  C   C757      1.0  0.74053  0.35624  0.96229  1.0000
  H   H913      1.0  0.74081  0.49017  0.51509  1.0000
  H   H914      1.0  0.77440  0.10580  0.79327  1.0000
  H   H915      1.0  0.74568  0.46266  0.69681  1.0000
  H   H916      1.0  0.95393  0.10986  0.57379  1.0000
  H   H917      1.0  0.92093  0.43461  0.96102  1.0000
  C   C758      1.0  0.95776  0.15561  0.56708  1.0000
  S   S202      1.0  0.75836  0.00081  0.98965  1.0000
  S   S203      1.0  0.70462  0.49591  0.52573  1.0000
  C   C759      1.0  0.75328  0.30335  0.55807  1.0000
  H   H918      1.0  0.71437  0.28289  0.53007  1.0000
  H   H919      1.0  0.72394  0.17034  0.96920  1.0000
  C   C760      1.0  0.73593  0.19876  0.52844  1.0000
  C   C761      1.0  0.74177  0.38678  0.96121  1.0000
  C   C762      1.0  0.96688  0.17958  0.57941  1.0000
  N   N52       1.0  0.71977  0.42514  0.85365  1.0000
  C   C763      1.0  0.71191  0.40164  0.87369  1.0000
  C   C764      1.0  0.72190  0.41476  0.81569  1.0000
  C   C765      1.0  0.73658  0.43001  0.87176  1.0000
  C   C766      1.0  0.70965  0.45235  0.85481  1.0000
  C   C767      1.0  0.70675  0.46531  0.88910  1.0000
  C   C768      1.0  0.70271  0.46703  0.82255  1.0000
  H   H920      1.0  0.72986  0.32614  0.54870  1.0000
  C   C769      1.0  0.68104  0.13401  0.94863  1.0000
  C   C770      1.0  0.72756  0.14839  0.97763  1.0000
  H   H921      1.0  0.69896  0.39808  0.86189  1.0000
  H   H922      1.0  0.71898  0.38063  0.87260  1.0000
  H   H923      1.0  0.71137  0.40666  0.90345  1.0000
  H   H924      1.0  0.70975  0.40991  0.80052  1.0000
  H   H925      1.0  0.72965  0.39444  0.81570  1.0000
  H   H926      1.0  0.72839  0.43115  0.79967  1.0000
  H   H927      1.0  0.73634  0.43493  0.90151  1.0000
  H   H928      1.0  0.74501  0.41073  0.86966  1.0000
  H   H929      1.0  0.74244  0.44869  0.85880  1.0000
  H   H930      1.0  0.71164  0.45551  0.91481  1.0000
  H   H931      1.0  0.70431  0.45916  0.79512  1.0000
  H   H932      1.0  0.76006  0.32294  0.56525  1.0000
  C   C771      1.0  0.92180  0.45120  0.98327  1.0000
  H   H933      1.0  0.70280  0.24095  0.54715  1.0000
  N   N53       1.0  0.76622  0.06408  0.81054  1.0000
  H   H934      1.0  0.93447  0.47004  0.92248  1.0000
  C   C772      1.0  0.73702  0.08995  0.51508  1.0000
  S   S204      1.0  0.65821  0.48941  0.54968  1.0000
  C   C773      1.0  0.69495  0.11104  0.89824  1.0000
  C   C774      1.0  0.73623  0.30510  0.54878  1.0000
  C   C775      1.0  0.69790  0.49164  0.89100  1.0000
  C   C776      1.0  0.71204  0.22268  0.55012  1.0000
  H   H935      1.0  0.74890  0.34279  0.94758  1.0000
  C   C777      1.0  0.71987  0.38464  0.49888  1.0000
  Fe  Fe105     1.0  0.71271  0.49091  0.63284  1.0000
  H   H936      1.0  0.68312  0.15247  0.89350  1.0000
  C   C778      1.0  0.69378  0.49329  0.82478  1.0000
  S   S205      1.0  0.71348  0.49405  0.69558  1.0000
  H   H937      1.0  0.71165  0.08497  0.49360  1.0000
  C   C779      1.0  0.75123  0.10715  0.51333  1.0000
  C   C780      1.0  0.73549  0.39617  0.50906  1.0000
  H   H938      1.0  0.79671  0.41093  0.98084  1.0000
  C   C781      1.0  0.93424  0.48588  0.94551  1.0000
  C   C782      1.0  0.88589  0.49441  0.88979  1.0000
  H   H939      1.0  0.85942  0.49315  0.89360  1.0000
  H   H940      1.0  0.91214  0.49462  0.89267  1.0000
  H   H941      1.0  0.70879  0.39616  0.50612  1.0000
  H   H942      1.0  0.70680  0.06927  0.90997  1.0000
  C   C783      1.0  0.77137  0.48097  0.49832  1.0000
  C   C784      1.0  0.69464  0.08575  0.95615  1.0000
  C   C785      1.0  0.74973  0.38071  0.49931  1.0000
  C   C786      1.0  0.87303  0.48404  0.94561  1.0000
  H   H943      1.0  0.98630  0.19573  0.61604  1.0000
  S   S206      1.0  0.65729  0.01649  0.56162  1.0000
  H   H944      1.0  0.66146  0.17899  0.91408  1.0000
  S   S207      1.0  0.70028  0.23646  0.99163  1.0000
  H   H945      1.0  0.78516  0.48169  0.50253  1.0000
  H   H946      1.0  0.79849  0.37306  0.98995  1.0000
  C   C787      1.0  0.79001  0.39221  0.99168  1.0000
  S   S208      1.0  0.81314  0.46486  0.99159  1.0000
  Fe  Fe106     1.0  0.75259  0.74364  0.34222  1.0000
  S   S209      1.0  0.76271  0.70197  0.36898  1.0000
  S   S210      1.0  0.75194  0.74485  0.27898  1.0000
  Fe  Fe107     1.0  0.75439  0.77570  0.41752  1.0000
  S   S211      1.0  0.76447  0.73539  0.44836  1.0000
  H   H947      1.0  0.95716  0.79478  0.45085  1.0000
  Fe  Fe108     1.0  0.78114  0.72956  0.40192  1.0000
  S   S212      1.0  0.80836  0.71428  0.41303  1.0000
  Fe  Fe109     1.0  0.74527  0.71065  0.41303  1.0000
  S   S213      1.0  0.72865  0.67248  0.42703  1.0000
  S   S214      1.0  0.77219  0.77057  0.37292  1.0000
  S   S215      1.0  0.73401  0.75148  0.38444  1.0000
  Fe  Fe110     1.0  0.92842  0.70663  0.30588  1.0000
  S   S216      1.0  0.91727  0.70206  0.36077  1.0000
  S   S217      1.0  0.93354  0.67395  0.25970  1.0000
  Fe  Fe111     1.0  0.93234  0.77338  0.31471  1.0000
  S   S218      1.0  0.92154  0.77272  0.36963  1.0000
  S   S219      1.0  0.94337  0.81617  0.29539  1.0000
  Fe  Fe112     1.0  0.93757  0.73266  0.38327  1.0000
  S   S220      1.0  0.95025  0.73241  0.44306  1.0000
  Fe  Fe113     1.0  0.90220  0.74273  0.34391  1.0000
  S   S221      1.0  0.87472  0.75668  0.34568  1.0000
  S   S222      1.0  0.94946  0.73478  0.32945  1.0000
  S   S223      1.0  0.91222  0.74566  0.28794  1.0000
  Fe  Fe114     1.0  0.91957  0.95229  0.14273  1.0000
  C   C788      1.0  0.66781  0.89762  0.48529  1.0000
  S   S224      1.0  0.91550  0.90830  0.17102  1.0000
  C   C789      1.0  0.73164  0.91232  0.06991  1.0000
  S   S225      1.0  0.92697  0.52331  0.09701  1.0000
  H   H948      1.0  0.73998  0.80785  0.10509  1.0000
  H   H949      1.0  0.78367  0.50423  0.44341  1.0000
  H   H950      1.0  0.71961  0.79450  0.10745  1.0000
  Fe  Fe115     1.0  0.92724  0.51299  0.15782  1.0000
  S   S226      1.0  0.92680  0.53968  0.21129  1.0000
  S   S227      1.0  0.92178  0.94930  0.08154  1.0000
  Fe  Fe116     1.0  0.94132  0.98335  0.08974  1.0000
  Fe  Fe117     1.0  0.69683  0.75329  0.08628  1.0000
  S   S228      1.0  0.72030  0.73807  0.06323  1.0000
  S   S229      1.0  0.69561  0.76580  0.14681  1.0000
  C   C790      1.0  0.72862  0.60757  0.01637  1.0000
  Fe  Fe118     1.0  0.70434  0.70616  0.03043  1.0000
  S   S230      1.0  0.71257  0.65831  0.03403  1.0000
  Fe  Fe119     1.0  0.71349  0.76958  0.01684  1.0000
  C   C791      1.0  0.86254  0.50436  0.03912  1.0000
  S   S231      1.0  0.68086  0.71965  0.05635  1.0000
  S   S232      1.0  0.69093  0.78699  0.04180  1.0000
  H   H951      1.0  0.75177  0.73743  0.20094  1.0000
  H   H952      1.0  0.69524  0.77159  0.22537  1.0000
  C   C792      1.0  0.82621  0.98419  0.01612  1.0000
  C   C793      1.0  0.71884  0.59781  0.48214  1.0000
  C   C794      1.0  0.76367  0.56199  0.48080  1.0000
  S   S233      1.0  0.93989  0.98527  0.15183  1.0000
  H   H953      1.0  0.72526  0.93029  0.05494  1.0000
  H   H954      1.0  0.66594  0.95175  0.45401  1.0000
  Fe  Fe120     1.0  0.67694  0.75193  0.00953  1.0000
  H   H955      1.0  0.95269  0.91306  0.08151  1.0000
  H   H956      1.0  0.77589  0.72899  0.04446  1.0000
  H   H957      1.0  0.70919  0.89183  0.07909  1.0000
  H   H958      1.0  0.96453  0.94019  0.13461  1.0000
  H   H959      1.0  0.70469  0.89192  0.99413  1.0000
  C   C795      1.0  0.83534  0.97839  0.05003  1.0000
  C   C796      1.0  0.85046  0.52203  0.01928  1.0000
  C   C797      1.0  0.95521  0.81509  0.43429  1.0000
  H   H960      1.0  0.97130  0.77224  0.40193  1.0000
  H   H961      1.0  0.82880  0.97319  0.07386  1.0000
  C   C798      1.0  0.97810  0.86238  0.18256  1.0000
  C   C799      1.0  0.93160  0.63637  0.24723  1.0000
  C   C800      1.0  0.92419  0.61595  0.26894  1.0000
  C   C801      1.0  0.92281  0.58662  0.25740  1.0000
  C   C802      1.0  0.92860  0.57726  0.22382  1.0000
  C   C803      1.0  0.93588  0.59770  0.20197  1.0000
  C   C804      1.0  0.93745  0.62692  0.21373  1.0000
  H   H962      1.0  0.91962  0.62273  0.29472  1.0000
  H   H963      1.0  0.91723  0.57109  0.27474  1.0000
  H   H964      1.0  0.94063  0.59093  0.17636  1.0000
  H   H965      1.0  0.94327  0.64240  0.19672  1.0000
  C   C805      1.0  0.93495  0.84218  0.26188  1.0000
  C   C806      1.0  0.94341  0.86833  0.25719  1.0000
  C   C807      1.0  0.93759  0.88903  0.23010  1.0000
  C   C808      1.0  0.92323  0.88379  0.20700  1.0000
  C   C809      1.0  0.91473  0.85774  0.21191  1.0000
  C   C810      1.0  0.92048  0.83715  0.23917  1.0000
  H   H966      1.0  0.95464  0.87251  0.27445  1.0000
  H   H967      1.0  0.94424  0.90895  0.22709  1.0000
  H   H968      1.0  0.90360  0.85338  0.19438  1.0000
  H   H969      1.0  0.91380  0.81723  0.24228  1.0000
  C   C811      1.0  0.97007  0.73056  0.46953  1.0000
  S   S234      1.0  0.96685  0.97402  0.06733  1.0000
  C   C812      1.0  0.72339  0.63562  0.00421  1.0000
  H   H970      1.0  0.77070  0.88732  0.09478  1.0000
  H   H971      1.0  0.73022  0.74476  0.14895  1.0000
  C   C813      1.0  0.82672  0.72648  0.39427  1.0000
  C   C814      1.0  0.82685  0.75193  0.37322  1.0000
  C   C815      1.0  0.84161  0.76058  0.35840  1.0000
  C   C816      1.0  0.85653  0.74427  0.36498  1.0000
  C   C817      1.0  0.85645  0.71901  0.38651  1.0000
  C   C818      1.0  0.84162  0.71018  0.40095  1.0000
  H   H972      1.0  0.81566  0.76516  0.36888  1.0000
  H   H973      1.0  0.84154  0.78028  0.34209  1.0000
  H   H974      1.0  0.86780  0.70628  0.39196  1.0000
  H   H975      1.0  0.84171  0.69056  0.41744  1.0000
  C   C819      1.0  0.76261  0.72919  0.03358  1.0000
  H   H976      1.0  0.97406  0.92203  0.17451  1.0000
  H   H977      1.0  0.97048  0.84575  0.35980  1.0000
  H   H978      1.0  0.95192  0.92135  0.16509  1.0000
  H   H979      1.0  0.75790  0.75219  0.03332  1.0000
  H   H980      1.0  0.74166  0.50084  0.46794  1.0000
  C   C820      1.0  0.72949  0.64433  0.46112  1.0000
  C   C821      1.0  0.71919  0.62006  0.45534  1.0000
  S   S235      1.0  0.75613  0.82128  0.44430  1.0000
  H   H981      1.0  0.79914  0.78068  0.42779  1.0000
  H   H982      1.0  0.71132  0.61857  0.42994  1.0000
  H   H983      1.0  0.69660  0.82473  0.11988  1.0000
  C   C822      1.0  0.73578  0.74991  0.24305  1.0000
  C   C823      1.0  0.71974  0.75949  0.24964  1.0000
  C   C824      1.0  0.70758  0.76402  0.21994  1.0000
  C   C825      1.0  0.71119  0.75864  0.18339  1.0000
  C   C826      1.0  0.72722  0.74900  0.17682  1.0000
  C   C827      1.0  0.73943  0.74485  0.20644  1.0000
  H   H984      1.0  0.71672  0.76360  0.27757  1.0000
  H   H985      1.0  0.97870  0.79364  0.36554  1.0000
  H   H986      1.0  0.96177  0.86431  0.39811  1.0000
  S   S236      1.0  0.89919  0.98688  0.13572  1.0000
  C   C828      1.0  0.74892  0.91128  0.07363  1.0000
  N   N54       1.0  0.76065  0.71600  0.99635  1.0000
  H   H987      1.0  0.98401  0.78397  0.46124  1.0000
  N   N55       1.0  0.80208  0.72811  0.27613  1.0000
  C   C829      1.0  0.79333  0.71927  0.24066  1.0000
  C   C830      1.0  0.79503  0.71128  0.30580  1.0000
  C   C831      1.0  0.79834  0.75942  0.28245  1.0000
  C   C832      1.0  0.82022  0.72345  0.27469  1.0000
  C   C833      1.0  0.82970  0.70334  0.29804  1.0000
  C   C834      1.0  0.82898  0.73950  0.24942  1.0000
  C   C835      1.0  0.84690  0.70016  0.29651  1.0000
  C   C836      1.0  0.84622  0.73646  0.24858  1.0000
  C   C837      1.0  0.85516  0.71699  0.27228  1.0000
  H   H988      1.0  0.79598  0.69597  0.23467  1.0000
  H   H989      1.0  0.77959  0.72202  0.24108  1.0000
  H   H990      1.0  0.79696  0.73245  0.21715  1.0000
  H   H991      1.0  0.79663  0.68739  0.30210  1.0000
  H   H992      1.0  0.78143  0.71537  0.30618  1.0000
  H   H993      1.0  0.80069  0.71744  0.33347  1.0000
  H   H994      1.0  0.80589  0.76763  0.30697  1.0000
  H   H995      1.0  0.80077  0.77339  0.25869  1.0000
  H   H996      1.0  0.78504  0.76338  0.28723  1.0000
  H   H997      1.0  0.82428  0.69057  0.31873  1.0000
  H   H998      1.0  0.82261  0.75505  0.23071  1.0000
  H   H999      1.0  0.85401  0.68568  0.31565  1.0000
  H   H1000     1.0  0.85277  0.74984  0.23019  1.0000
  H   H1001     1.0  0.86861  0.71565  0.27281  1.0000
  N   N56       1.0  0.96803  0.81885  0.40776  1.0000
  H   H1002     1.0  0.93256  0.50130  0.28432  1.0000
  H   H1003     1.0  0.96557  0.52354  0.01630  1.0000
  H   H1004     1.0  0.95503  0.83371  0.45372  1.0000
  H   H1005     1.0  0.66521  0.89641  0.45489  1.0000
  C   C838      1.0  0.72731  0.83957  0.47687  1.0000
  C   C839      1.0  0.83342  0.82450  0.43457  1.0000
  H   H1006     1.0  0.95690  0.78894  0.36815  1.0000
  H   H1007     1.0  0.98134  0.91201  0.09192  1.0000
  C   C840      1.0  0.97777  0.83887  0.20693  1.0000
  C   C841      1.0  0.98451  0.82325  0.42775  1.0000
  H   H1008     1.0  0.94967  0.83981  0.36936  1.0000
  H   H1009     1.0  0.76341  0.60572  0.45914  1.0000
  H   H1010     1.0  0.69819  0.86330  0.12326  1.0000
  H   H1011     1.0  0.98334  0.87307  0.09760  1.0000
  H   H1012     1.0  0.94033  0.85177  0.13511  1.0000
  H   H1013     1.0  0.79850  0.83549  0.42886  1.0000
  H   H1014     1.0  0.72211  0.81882  0.46874  1.0000
  H   H1015     1.0  0.98858  0.87665  0.18608  1.0000
  C   C842      1.0  0.72665  0.81347  0.09850  1.0000
  C   C843      1.0  0.95168  0.89416  0.10040  1.0000
  H   H1016     1.0  0.73852  0.83216  0.16443  1.0000
  H   H1017     1.0  0.98193  0.65868  0.47373  1.0000
  S   S237      1.0  0.88167  0.51990  0.05614  1.0000
  C   C844      1.0  0.70311  0.84383  0.10931  1.0000
  C   C845      1.0  0.66952  0.94961  0.48403  1.0000
  H   H1018     1.0  0.72215  0.85818  0.17127  1.0000
  C   C846      1.0  0.76285  0.66532  0.02292  1.0000
  C   C847      1.0  0.72253  0.88984  0.08391  1.0000
  H   H1019     1.0  0.85931  0.75436  0.46040  1.0000
  C   C848      1.0  0.74988  0.87332  0.47940  1.0000
  C   C849      1.0  0.96431  0.82029  0.20473  1.0000
  N   N57       1.0  0.88335  0.58593  0.14972  1.0000
  C   C850      1.0  0.88157  0.56178  0.17612  1.0000
  C   C851      1.0  0.86856  0.58688  0.12275  1.0000
  C   C852      1.0  0.89803  0.57875  0.12912  1.0000
  C   C853      1.0  0.88470  0.61391  0.16984  1.0000
  C   C854      1.0  0.89857  0.63238  0.16865  1.0000
  C   C855      1.0  0.87188  0.62334  0.19184  1.0000
  C   C856      1.0  0.89964  0.65817  0.18897  1.0000
  C   C857      1.0  0.87315  0.64910  0.21227  1.0000
  C   C858      1.0  0.88710  0.66633  0.21107  1.0000
  H   H1020     1.0  0.88099  0.54031  0.16200  1.0000
  H   H1021     1.0  0.89232  0.56085  0.19738  1.0000
  H   H1022     1.0  0.87008  0.56388  0.19069  1.0000
  H   H1023     1.0  0.85676  0.58942  0.13619  1.0000
  H   H1024     1.0  0.86752  0.56646  0.10618  1.0000
  H   H1025     1.0  0.86923  0.60529  0.10305  1.0000
  H   H1026     1.0  0.89986  0.59535  0.10764  1.0000
  H   H1027     1.0  0.90958  0.57657  0.14793  1.0000
  H   H1028     1.0  0.89658  0.55760  0.11445  1.0000
  H   H1029     1.0  0.90900  0.62715  0.15299  1.0000
  H   H1030     1.0  0.86088  0.61063  0.19379  1.0000
  H   H1031     1.0  0.91059  0.67151  0.18864  1.0000
  H   H1032     1.0  0.86341  0.65557  0.22951  1.0000
  H   H1033     1.0  0.88837  0.68590  0.22759  1.0000
  H   H1034     1.0  0.79103  0.54229  0.40173  1.0000
  H   H1035     1.0  0.71798  0.81990  0.16834  1.0000
  N   N58       1.0  0.72146  0.84074  0.11643  1.0000
  H   H1036     1.0  0.87050  0.79144  0.42055  1.0000
  H   H1037     1.0  0.75526  0.84782  0.12025  1.0000
  C   C859      1.0  0.74342  0.84610  0.46832  1.0000
  C   C860      1.0  0.73061  0.86551  0.10240  1.0000
  C   C861      1.0  0.74826  0.86550  0.10642  1.0000
  H   H1038     1.0  0.94254  0.81328  0.42003  1.0000
  C   C862      1.0  0.72524  0.83770  0.15680  1.0000
  H   H1039     1.0  0.85966  0.97465  0.07972  1.0000
  C   C863      1.0  0.85287  0.97921  0.05345  1.0000
  C   C864      1.0  0.82661  0.80361  0.45770  1.0000
  S   S238      1.0  0.73435  0.79684  0.99711  1.0000
  C   C865      1.0  0.85853  0.79514  0.43148  1.0000
  H   H1040     1.0  0.72450  0.81526  0.06804  1.0000
  C   C866      1.0  0.75723  0.88801  0.09205  1.0000
  H   H1041     1.0  0.94041  0.81128  0.17759  1.0000
  C   C867      1.0  0.96394  0.92039  0.15211  1.0000
  H   H1042     1.0  0.69931  0.84519  0.07929  1.0000
  C   C868      1.0  0.96881  0.79225  0.38498  1.0000
  C   C869      1.0  0.73835  0.58960  0.99490  1.0000
  H   H1043     1.0  0.71087  0.57939  0.47704  1.0000
  Fe  Fe121     1.0  0.90297  0.98605  0.07539  1.0000
  H   H1044     1.0  0.72537  0.59990  0.04288  1.0000
  S   S239      1.0  0.80409  0.98381  0.01413  1.0000
  C   C870      1.0  0.95114  0.82516  0.17822  1.0000
  H   H1045     1.0  0.75587  0.92845  0.06179  1.0000
  H   H1046     1.0  0.95176  0.87412  0.08334  1.0000
  H   H1047     1.0  0.82676  0.84417  0.42553  1.0000
  C   C871      1.0  0.83524  0.51048  0.00471  1.0000
  C   C872      1.0  0.76892  0.63662  0.02335  1.0000
  C   C873      1.0  0.77780  0.57635  0.42791  1.0000
  C   C874      1.0  0.76793  0.58346  0.45626  1.0000
  N   N59       1.0  0.96536  0.89345  0.13024  1.0000
  H   H1048     1.0  0.78102  0.59312  0.40891  1.0000
  C   C875      1.0  0.95130  0.84865  0.15379  1.0000
  C   C876      1.0  0.97501  0.98105  0.02388  1.0000
  C   C877      1.0  0.96494  0.86788  0.15497  1.0000
  C   C878      1.0  0.84915  0.82015  0.42175  1.0000
  H   H1049     1.0  0.76445  0.62095  0.04234  1.0000
  C   C879      1.0  0.98493  0.72311  0.45416  1.0000
  C   C880      1.0  0.96237  0.84340  0.38288  1.0000
  H   H1050     1.0  0.95272  0.66873  0.48532  1.0000
  H   H1051     1.0  0.93930  0.89663  0.11166  1.0000
  C   C881      1.0  0.98124  0.89385  0.11234  1.0000
  C   C882      1.0  0.97366  0.50740  0.00507  1.0000
  H   H1052     1.0  0.96379  0.80263  0.22440  1.0000
  H   H1053     1.0  0.93360  0.50101  0.01442  1.0000
  H   H1054     1.0  0.68957  0.68297  0.47672  1.0000
  H   H1055     1.0  0.66264  0.66378  0.45125  1.0000
  H   H1056     1.0  0.85402  0.83598  0.40355  1.0000
  H   H1057     1.0  0.98780  0.83535  0.22818  1.0000
  H   H1058     1.0  0.74260  0.56835  0.00495  1.0000
  H   H1059     1.0  0.75358  0.67066  0.04178  1.0000
  H   H1060     1.0  0.83193  0.76102  0.48325  1.0000
  C   C883      1.0  0.77908  0.52598  0.44826  1.0000
  H   H1061     1.0  0.68331  0.94664  0.48777  1.0000
  H   H1062     1.0  0.80381  0.76134  0.47000  1.0000
  C   C884      1.0  0.79937  0.78272  0.45820  1.0000
  H   H1063     1.0  0.70693  0.83849  0.00435  1.0000
  C   C885      1.0  0.71756  0.85023  0.99651  1.0000
  N   N60       1.0  0.80994  0.80717  0.47149  1.0000
  S   S240      1.0  0.88349  0.98992  0.02617  1.0000
  H   H1064     1.0  0.76227  0.87881  0.47295  1.0000
  H   H1065     1.0  0.75547  0.71769  0.05376  1.0000
  H   H1066     1.0  0.98469  0.71807  0.42515  1.0000
  C   C886      1.0  0.85220  0.77425  0.45396  1.0000
  C   C887      1.0  0.78340  0.54770  0.42396  1.0000
  H   H1067     1.0  0.78631  0.78579  0.46542  1.0000
  H   H1068     1.0  0.68043  0.55953  0.48961  1.0000
  C   C888      1.0  0.83648  0.77829  0.46683  1.0000
  C   C889      1.0  0.68466  0.66350  0.48839  1.0000
  C   C890      1.0  0.86151  0.98617  0.02297  1.0000
  C   C891      1.0  0.66955  0.65250  0.47395  1.0000
  H   H1069     1.0  0.85292  0.54479  0.01494  1.0000
  H   H1070     1.0  0.68158  0.89604  0.49077  1.0000
  C   C892      1.0  0.76903  0.53259  0.47758  1.0000
  C   C893      1.0  0.76782  0.68604  0.99720  1.0000
  C   C894      1.0  0.92120  0.50234  0.99858  1.0000
  C   C895      1.0  0.66353  0.62671  0.48795  1.0000
  C   C896      1.0  0.80113  0.83469  0.45934  1.0000
  H   H1071     1.0  0.73581  0.70160  0.00349  1.0000
  H   H1072     1.0  0.78879  0.83690  0.47085  1.0000
  C   C897      1.0  0.96523  0.99258  0.99359  1.0000
  H   H1073     1.0  0.95229  0.99804  0.99623  1.0000
  H   H1074     1.0  0.80824  0.85417  0.46873  1.0000
  H   H1075     1.0  0.78365  0.60474  0.99677  1.0000
  C   C898      1.0  0.77974  0.62745  0.99770  1.0000
  H   H1076     1.0  0.91186  0.49865  0.01873  1.0000
  Fe  Fe122     1.0  0.71660  0.52929  0.56392  1.0000
  C   C899      1.0  0.69369  0.64905  0.51730  1.0000
  S   S241      1.0  0.72858  0.57287  0.55105  1.0000
  C   C900      1.0  0.98613  0.73582  0.52975  1.0000
  S   S242      1.0  0.69401  0.96217  0.60220  1.0000
  C   C901      1.0  0.67956  0.55992  0.51992  1.0000
  H   H1077     1.0  0.74565  0.91444  0.50675  1.0000
  H   H1078     1.0  0.74074  0.70473  0.95658  1.0000
  Fe  Fe123     1.0  0.71216  0.95758  0.55822  1.0000
  C   C902      1.0  0.97482  0.86866  0.90026  1.0000
  S   S243      1.0  0.69698  0.52660  0.60419  1.0000
  C   C903      1.0  0.74273  0.71472  0.98435  1.0000
  C   C904      1.0  0.83485  0.99087  0.98556  1.0000
  H   H1079     1.0  0.97628  0.85034  0.88223  1.0000
  H   H1080     1.0  0.82804  0.99543  0.95932  1.0000
  H   H1081     1.0  0.71339  0.99766  0.77367  1.0000
  H   H1082     1.0  0.74809  0.96806  0.69813  1.0000
  H   H1083     1.0  0.98636  0.74081  0.55875  1.0000
  Fe  Fe124     1.0  0.74782  0.96399  0.95493  1.0000
  C   C905      1.0  0.76779  0.51913  0.54188  1.0000
  Fe  Fe125     1.0  0.76302  0.53115  0.93918  1.0000
  S   S244      1.0  0.75746  0.57998  0.93591  1.0000
  S   S245      1.0  0.77238  0.94935  0.93600  1.0000
  C   C906      1.0  0.98647  0.89154  0.90372  1.0000
  H   H1084     1.0  0.76526  0.50158  0.56169  1.0000
  H   H1085     1.0  0.93414  0.50844  0.93428  1.0000
  C   C907      1.0  0.76838  0.73591  0.97078  1.0000
  H   H1086     1.0  0.65891  0.60035  0.58013  1.0000
  H   H1087     1.0  0.98370  0.53759  0.96739  1.0000
  C   C908      1.0  0.68787  0.62319  0.53134  1.0000
  H   H1088     1.0  0.73471  0.99034  0.82581  1.0000
  H   H1089     1.0  0.76601  0.72895  0.94162  1.0000
  C   C909      1.0  0.72989  0.89618  0.97975  1.0000
  C   C910      1.0  0.75371  0.97512  0.79204  1.0000
  H   H1090     1.0  0.98789  0.68986  0.63209  1.0000
  H   H1091     1.0  0.96663  0.93266  0.96617  1.0000
  H   H1092     1.0  0.71519  0.89522  0.80474  1.0000
  C   C911      1.0  0.69148  0.50567  0.85889  1.0000
  H   H1093     1.0  0.74248  0.85220  0.85826  1.0000
  C   C912      1.0  0.66504  0.92484  0.54064  1.0000
  H   H1094     1.0  0.74107  0.63534  0.92245  1.0000
  Fe  Fe126     1.0  0.71297  0.99018  0.63306  1.0000
  S   S246      1.0  0.74128  0.99331  0.90617  1.0000
  C   C913      1.0  0.72676  0.82578  0.88775  1.0000
  C   C914      1.0  0.73754  0.62746  0.94862  1.0000
  H   H1095     1.0  0.73893  0.50178  0.82193  1.0000
  C   C915      1.0  0.66721  0.58262  0.57105  1.0000
  S   S247      1.0  0.70166  0.99732  0.52695  1.0000
  H   H1096     1.0  0.95189  0.85154  0.91693  1.0000
  H   H1097     1.0  0.70221  0.92643  0.85155  1.0000
  C   C916      1.0  0.74045  0.89368  0.49862  1.0000
  C   C917      1.0  0.96955  0.66448  0.57396  1.0000
  H   H1098     1.0  0.74746  0.66446  0.49927  1.0000
  N   N61       1.0  0.76363  0.51020  0.50309  1.0000
  H   H1099     1.0  0.69133  0.84775  0.92421  1.0000
  C   C918      1.0  0.72733  0.90207  0.81834  1.0000
  C   C919      1.0  0.74513  0.97282  0.72594  1.0000
  N   N62       1.0  0.66746  0.58246  0.53034  1.0000
  C   C920      1.0  0.73774  0.98529  0.79823  1.0000
  H   H1100     1.0  0.74664  0.62576  0.54688  1.0000
  S   S248      1.0  0.78582  0.51511  0.91237  1.0000
  C   C921      1.0  0.72130  0.87782  0.87486  1.0000
  C   C922      1.0  0.98401  0.51534  0.97723  1.0000
  C   C923      1.0  0.77899  0.67602  0.97152  1.0000
  C   C924      1.0  0.73953  0.64595  0.49420  1.0000
  H   H1101     1.0  0.75594  0.56854  0.50219  1.0000
  C   C925      1.0  0.72926  0.98352  0.73218  1.0000
  H   H1102     1.0  0.67973  0.58551  0.58544  1.0000
  H   H1103     1.0  0.69582  0.61212  0.55252  1.0000
  C   C926      1.0  0.74307  0.91335  0.87543  1.0000
  N   N63       1.0  0.72643  0.90549  0.85862  1.0000
  H   H1104     1.0  0.67596  0.53783  0.52844  1.0000
  C   C927      1.0  0.98306  0.91449  0.92815  1.0000
  H   H1105     1.0  0.72271  0.66584  0.95910  1.0000
  C   C928      1.0  0.73898  0.62396  0.52124  1.0000
  H   H1106     1.0  0.91923  0.52505  0.98823  1.0000
  H   H1107     1.0  0.75294  0.89728  0.86948  1.0000
  H   H1108     1.0  0.66290  0.87803  0.49838  1.0000
  C   C929      1.0  0.70233  0.84897  0.90910  1.0000
  H   H1109     1.0  0.73072  0.92280  0.80509  1.0000
  H   H1110     1.0  0.78113  0.52470  0.54673  1.0000
  C   C930      1.0  0.74319  0.59977  0.96128  1.0000
  H   H1111     1.0  0.70552  0.85440  0.50267  1.0000
  H   H1112     1.0  0.70918  0.80401  0.91903  1.0000
  C   C931      1.0  0.70671  0.87549  0.89400  1.0000
  C   C932      1.0  0.71629  0.88053  0.99052  1.0000
  H   H1113     1.0  0.66270  0.56160  0.58156  1.0000
  H   H1114     1.0  0.69227  0.56364  0.53298  1.0000
  C   C933      1.0  0.81141  0.80688  0.51233  1.0000
  C   C934      1.0  0.95751  0.66773  0.54431  1.0000
  S   S249      1.0  0.76781  0.50168  0.98865  1.0000
  H   H1115     1.0  0.73691  0.88567  0.81160  1.0000
  H   H1116     1.0  0.96552  0.66708  0.60131  1.0000
  C   C935      1.0  0.72856  0.59984  0.51559  1.0000
  H   H1117     1.0  0.76026  0.53830  0.54994  1.0000
  C   C936      1.0  0.97847  0.65962  0.50185  1.0000
  C   C937      1.0  0.98899  0.99003  0.95522  1.0000
  C   C938      1.0  0.74539  0.50715  0.49685  1.0000
  H   H1118     1.0  0.95956  0.74280  0.51992  1.0000
  H   H1119     1.0  0.94673  0.89243  0.95895  1.0000
  C   C939      1.0  0.85238  0.99189  0.98903  1.0000
  C   C940      1.0  0.75728  0.96867  0.75575  1.0000
  H   H1120     1.0  0.76956  0.96068  0.75056  1.0000
  C   C941      1.0  0.73115  0.85207  0.87210  1.0000
  H   H1121     1.0  0.69864  0.89392  0.89850  1.0000
  C   C942      1.0  0.98652  0.65875  0.56838  1.0000
  H   H1122     1.0  0.94470  0.67275  0.54913  1.0000
  H   H1123     1.0  0.68484  0.52632  0.86043  1.0000
  H   H1124     1.0  0.73466  0.80656  0.88610  1.0000
  Fe  Fe127     1.0  0.76640  0.98114  0.88905  1.0000
  C   C943      1.0  0.72741  0.64505  0.96962  1.0000
  S   S250      1.0  0.76953  0.97047  0.82872  1.0000
  H   H1125     1.0  0.74708  0.93463  0.86495  1.0000
  H   H1126     1.0  0.98890  0.91933  0.84050  1.0000
  C   C944      1.0  0.71493  0.93042  0.86438  1.0000
  C   C945      1.0  0.71237  0.82424  0.90619  1.0000
  H   H1127     1.0  0.66677  0.97084  0.49712  1.0000
  S   S251      1.0  0.71163  0.91190  0.53131  1.0000
  C   C946      1.0  0.72434  0.88715  0.50720  1.0000
  S   S252      1.0  0.71346  0.99027  0.69609  1.0000
  H   H1128     1.0  0.71745  0.51200  0.77066  1.0000
  H   H1129     1.0  0.71912  0.95083  0.85185  1.0000
  Fe  Fe128     1.0  0.78297  0.98775  0.96811  1.0000
  H   H1130     1.0  0.85892  0.99732  0.96526  1.0000
  S   S253      1.0  0.72754  0.93430  0.97233  1.0000
  C   C947      1.0  0.95775  0.89201  0.94385  1.0000
  H   H1131     1.0  0.75760  0.83943  0.97684  1.0000
  H   H1132     1.0  0.75546  0.89297  0.96735  1.0000
  H   H1133     1.0  0.71426  0.93504  0.89426  1.0000
  H   H1134     1.0  0.79270  0.63941  0.95115  1.0000
  H   H1135     1.0  0.74302  0.91502  0.90586  1.0000
  C   C948      1.0  0.72829  0.49886  0.76569  1.0000
  H   H1136     1.0  0.70563  0.65732  0.52791  1.0000
  C   C949      1.0  0.97216  0.99689  0.95958  1.0000
  H   H1137     1.0  0.79905  0.81016  0.52351  1.0000
  H   H1138     1.0  0.98258  0.63769  0.63790  1.0000
  H   H1139     1.0  0.68892  0.50439  0.79974  1.0000
  S   S254      1.0  0.73194  0.98293  0.59157  1.0000
  C   C950      1.0  0.96894  0.91465  0.94790  1.0000
  H   H1140     1.0  0.66216  0.94618  0.55327  1.0000
  H   H1141     1.0  0.67849  0.92031  0.54786  1.0000
  H   H1142     1.0  0.76306  0.75849  0.97196  1.0000
  C   C951      1.0  0.96069  0.86904  0.92013  1.0000
  H   H1143     1.0  0.78311  0.68980  0.95024  1.0000
  H   H1144     1.0  0.82611  0.52432  0.98941  1.0000
  S   S255      1.0  0.74569  0.50033  0.90827  1.0000
  C   C952      1.0  0.74483  0.88120  0.97516  1.0000
  C   C953      1.0  0.67264  0.61109  0.51699  1.0000
  C   C954      1.0  0.97088  0.73698  0.50750  1.0000
  H   H1145     1.0  0.78201  0.73731  0.97775  1.0000
  H   H1146     1.0  0.69628  0.50143  0.91757  1.0000
  H   H1147     1.0  0.81966  0.82445  0.52346  1.0000
  H   H1148     1.0  0.73677  0.73674  0.98275  1.0000
  S   S256      1.0  0.69951  0.73633  0.98173  1.0000
  H   H1149     1.0  0.73854  0.52769  0.50245  1.0000
  C   C955      1.0  0.78475  0.64707  0.97185  1.0000
  N   N64       1.0  0.66093  0.92499  0.50024  1.0000
  H   H1150     1.0  0.65800  0.90794  0.55435  1.0000
  C   C956      1.0  0.72563  0.98942  0.76854  1.0000
  C   C957      1.0  0.96197  0.66529  0.50833  1.0000
  C   C958      1.0  0.74604  0.85083  0.98077  1.0000
  C   C959      1.0  0.73241  0.83518  0.99134  1.0000
  H   H1151     1.0  0.81652  0.78584  0.52383  1.0000
  C   C960      1.0  0.71789  0.85992  0.49614  1.0000
  H   H1152     1.0  0.88470  0.49967  0.86066  1.0000
