data_image0
_chemical_formula_structural       FeS2FeS2FeH2FeS2FeSFeS2HFeS2FeS2FeSFeS3C6H5CH2CH2SC6H3C7H4C6H3C3H4CHC3HCH2N2H5CHNCH4CH2CH2C2HCH2CHCHCH3CHNH2C2H6C2SH7CH3SCHCSCSHFeS2FeS2FeS2FeSFeS3FeCSFeCHFeS2C3HC2HC2HCH2C6H4C6H4C6H4C6H6CH2C3H4NH5C2HCH4CHCH3SH2CHC2HCH2CNCHC5HSCH4N2CSH2C2FeH3SH4CHC2HC3HC2NC5H11CHCH2C6H2CH4CH2CH3NH2CHC2H5CH2C5HC3FeCSHFeH3CFeS2FeS2CFeS2FeCHFeSFeCS3C4H2CH4C3NCNHCFeCH2C4H2C6H4CH3CHCH2C2HFeCHCH2C2HCNH4C2HC2H2C2SNC2HCHSH2CHSCH4CFeHSH2C2H5CH2C3SHCHCHSH9C3HNH3C2H2C2HSHSCSFeS2FeS2FeSFeS3FeCHSC6HCH3C4H2C6H5C2FeHC7H5C2H3SH2C2H2CHSH3CNSCHNC9H14FeC2SFeC2H2C2HC2H3SH2SC3HC3H2CH2CHNHC3H6C5H2C2H8CH2CH2CSCH5CFe2CFeSHSCH3SHC2SC8H2C3H5NH3CH3CH3CH2C2H2CHCHSCH2C2HC2H3CHSHC2HNHCH3SHCHFeCHFeSHSCFeHSH2SNSC6H4C6H4C2HSH2CSHSHC3FeHC2HCHCSH4CHS2HCHCHCH3FeH2NC2SH3CH5CH3C2HC2NCH2C3HCH2NCHSHFeCHFeSCSHCHSH2CSC6H4C2HC3NH3CH5CH2CHCHCH2CH3FeC2H3C2HSCH2NHSH2C3H3FeCH2CHFeS2FeC3FeSCSHSC2FeSFeHCSC6H4C2HC3HCH3C2HCHCHS2HNHCH2C3H2C5HC2H5CSCSHCH6NH2C2H2CHNC2FeC2HCH5CH5CH6CH3CHC2HNH2S2CHC3H2FeHSCHFeS2FeS2FeS2FeHSFeSFeS3H2C3FeH5C4H2CHSHCH3SC3SCH2C6H4FeHSHNH3C2H2CHCHC3HS2H2Fe2HCH2CNCHC2HCH2C2H5SHNC9H4CH2C2H4SH5CHCHCHC3HCH2FeHSCS2FeS2FeS2FeSFeS4HCSCNC6H3C7H4CHCH2C6H5C2H2C4NHCHC4HCH6CFeH2CH3C3HSC2H2C2H2CH3CHCHC3H2CH5C2HCHSC2HSC2H2CNHCNH2SH4FeCHC2H3NH5CHC2H5CH2CHC2FeHC2HC2H5CSNCHC3H4FeCSHFeS3FeSFeS3FeS2FeS2FeSFeS3FeS2FeS2C6H4C6H4C6H5FeNC2HCH2C6H3NC9H14CH2CH2CH2CH2FeCH2CH3CH2CHCH7CN2H2C5HC3H2C3H4C3H4CH2CH2CFeCSFeS2FeSFeS3FeS2FeS2FeSFeS3HCSNH2C6H4C3H2C6H4C2HCH2C6H4C6H4C2NC9HCH8CH3NC4HCH3CH3SCH3CH3C2NC9H14C2H5CH3SH2C2FeCSCHCHSHCHC2H3NHCH8
_chemical_formula_sum              "Fe96 S192 H864 C720 N48"
_cell_length_a       60.1714
_cell_length_b       59.667
_cell_length_c       29.486
_cell_angle_alpha    89.8959
_cell_angle_beta     90.096
_cell_angle_gamma    89.5642

_space_group_name_H-M_alt    "P 1"
_space_group_IT_number       1

loop_
  _space_group_symop_operation_xyz
  'x, y, z'

loop_
  _atom_site_type_symbol
  _atom_site_label
  _atom_site_symmetry_multiplicity
  _atom_site_fract_x
  _atom_site_fract_y
  _atom_site_fract_z
  _atom_site_occupancy
  Fe  Fe1       1.0  0.25375  0.02471  0.84086  1.0000
  S   S1        1.0  0.28449  0.02325  0.88408  1.0000
  S   S2        1.0  0.24441  0.05075  0.78674  1.0000
  Fe  Fe2       1.0  0.26074  0.02237  0.94334  1.0000
  S   S3        1.0  0.26862  0.04560  0.00274  1.0000
  S   S4        1.0  0.23017  0.02522  0.90024  1.0000
  Fe  Fe3       1.0  0.32811  0.18876  0.60410  1.0000
  H   H1        1.0  0.22054  0.05321  0.99742  1.0000
  H   H2        1.0  0.15068  0.02040  0.75662  1.0000
  Fe  Fe4       1.0  0.29769  0.16791  0.53072  1.0000
  S   S5        1.0  0.27284  0.15586  0.58249  1.0000
  S   S6        1.0  0.29621  0.16888  0.45282  1.0000
  Fe  Fe5       1.0  0.27770  0.18976  0.61455  1.0000
  S   S7        1.0  0.24838  0.21036  0.63800  1.0000
  Fe  Fe6       1.0  0.30241  0.14553  0.62532  1.0000
  S   S8        1.0  0.30800  0.11389  0.66861  1.0000
  S   S9        1.0  0.30038  0.20238  0.56076  1.0000
  H   H3        1.0  0.24805  0.07266  0.92818  1.0000
  Fe  Fe7       1.0  0.21375  0.16981  0.23442  1.0000
  S   S10       1.0  0.23804  0.16175  0.17831  1.0000
  S   S11       1.0  0.21702  0.15873  0.30874  1.0000
  Fe  Fe8       1.0  0.17800  0.18823  0.16846  1.0000
  S   S12       1.0  0.19991  0.18096  0.10859  1.0000
  S   S13       1.0  0.14673  0.20690  0.14462  1.0000
  Fe  Fe9       1.0  0.20848  0.14801  0.14079  1.0000
  S   S14       1.0  0.20373  0.11573  0.10011  1.0000
  Fe  Fe10      1.0  0.22747  0.19535  0.15007  1.0000
  S   S15       1.0  0.24955  0.21846  0.10967  1.0000
  S   S16       1.0  0.18453  0.15411  0.19822  1.0000
  S   S17       1.0  0.20536  0.20465  0.20859  1.0000
  C   C1        1.0  0.27389  0.16587  0.41347  1.0000
  C   C2        1.0  0.25384  0.15560  0.42512  1.0000
  C   C3        1.0  0.23668  0.15363  0.39266  1.0000
  C   C4        1.0  0.23926  0.16188  0.34819  1.0000
  C   C5        1.0  0.25926  0.17219  0.33658  1.0000
  C   C6        1.0  0.27647  0.17406  0.36898  1.0000
  H   H4        1.0  0.25172  0.14883  0.45887  1.0000
  H   H5        1.0  0.22135  0.14547  0.40198  1.0000
  H   H6        1.0  0.26158  0.17856  0.30255  1.0000
  H   H7        1.0  0.29194  0.18190  0.35943  1.0000
  H   H8        1.0  0.24728  0.02671  0.10170  1.0000
  C   C7        1.0  0.25126  0.06255  0.19094  1.0000
  H   H9        1.0  0.23584  0.08754  0.88035  1.0000
  H   H10       1.0  0.17461  0.01235  0.72391  1.0000
  C   C8        1.0  0.21353  0.06153  0.16228  1.0000
  H   H11       1.0  0.19642  0.06707  0.16060  1.0000
  H   H12       1.0  0.21505  0.19360  0.44313  1.0000
  S   S18       1.0  0.30522  0.17881  0.66077  1.0000
  C   C9        1.0  0.07464  0.21955  0.19037  1.0000
  C   C10       1.0  0.08879  0.20600  0.21706  1.0000
  C   C11       1.0  0.11099  0.20185  0.20386  1.0000
  C   C12       1.0  0.11911  0.21110  0.16359  1.0000
  C   C13       1.0  0.10496  0.22464  0.13705  1.0000
  C   C14       1.0  0.08289  0.22881  0.15026  1.0000
  H   H13       1.0  0.08254  0.19870  0.24810  1.0000
  H   H14       1.0  0.12169  0.19134  0.22452  1.0000
  H   H15       1.0  0.11103  0.23171  0.10564  1.0000
  C   C15       1.0  0.26906  0.23158  0.46797  1.0000
  C   C16       1.0  0.26245  0.06870  0.75558  1.0000
  C   C17       1.0  0.28557  0.06599  0.75629  1.0000
  C   C18       1.0  0.29915  0.08010  0.72983  1.0000
  C   C19       1.0  0.28992  0.09728  0.70266  1.0000
  C   C20       1.0  0.26683  0.10032  0.70283  1.0000
  C   C21       1.0  0.25321  0.08605  0.72894  1.0000
  H   H16       1.0  0.29298  0.05269  0.77635  1.0000
  H   H17       1.0  0.20820  0.03947  0.10551  1.0000
  H   H18       1.0  0.25944  0.11338  0.68210  1.0000
  H   H19       1.0  0.23537  0.08835  0.72805  1.0000
  C   C22       1.0  0.25054  0.06591  0.02731  1.0000
  C   C23       1.0  0.25937  0.08220  0.05659  1.0000
  C   C24       1.0  0.24544  0.09798  0.07838  1.0000
  C   C25       1.0  0.22244  0.09740  0.07152  1.0000
  C   C26       1.0  0.21366  0.08128  0.04179  1.0000
  C   C27       1.0  0.22761  0.06571  0.01957  1.0000
  H   H20       1.0  0.27708  0.08248  0.06286  1.0000
  H   H21       1.0  0.25246  0.11031  0.10096  1.0000
  H   H22       1.0  0.19589  0.08068  0.03630  1.0000
  C   C28       1.0  0.25766  0.04679  0.15834  1.0000
  C   C29       1.0  0.22009  0.04559  0.13014  1.0000
  C   C30       1.0  0.24212  0.03837  0.12793  1.0000
  H   H23       1.0  0.27487  0.04142  0.15584  1.0000
  H   H24       1.0  0.16475  0.24135  0.19638  1.0000
  H   H25       1.0  0.24950  0.19832  0.54772  1.0000
  H   H26       1.0  0.26402  0.06888  0.21320  1.0000
  C   C31       1.0  0.24414  0.19434  0.51266  1.0000
  H   H27       1.0  0.17651  0.03535  0.76182  1.0000
  C   C32       1.0  0.27328  0.13580  0.94649  1.0000
  C   C33       1.0  0.22900  0.07055  0.19376  1.0000
  C   C34       1.0  0.24833  0.23322  0.49079  1.0000
  H   H28       1.0  0.25920  0.18896  0.49403  1.0000
  C   C35       1.0  0.26631  0.15208  0.97759  1.0000
  H   H29       1.0  0.23311  0.17947  0.51440  1.0000
  H   H30       1.0  0.27416  0.21623  0.45127  1.0000
  N   N1        1.0  0.17594  0.00306  0.79493  1.0000
  N   N2        1.0  0.22295  0.08810  0.22715  1.0000
  H   H31       1.0  0.23359  0.11406  0.18217  1.0000
  H   H32       1.0  0.17646  0.00422  0.86813  1.0000
  H   H33       1.0  0.18810  0.08022  0.23320  1.0000
  H   H34       1.0  0.21897  0.06445  0.28157  1.0000
  H   H35       1.0  0.24011  0.16318  0.02215  1.0000
  C   C36       1.0  0.19908  0.09468  0.22583  1.0000
  H   H36       1.0  0.24598  0.24280  0.19464  1.0000
  N   N3        1.0  0.23298  0.21392  0.49136  1.0000
  C   C37       1.0  0.23608  0.10850  0.21792  1.0000
  H   H37       1.0  0.20932  0.01605  0.79947  1.0000
  H   H38       1.0  0.25420  0.10584  0.22297  1.0000
  H   H39       1.0  0.27760  0.09759  0.83260  1.0000
  H   H40       1.0  0.29434  0.07567  0.89892  1.0000
  C   C38       1.0  0.24899  0.24731  0.12248  1.0000
  H   H41       1.0  0.24601  0.07697  0.27916  1.0000
  H   H42       1.0  0.21585  0.22187  0.55351  1.0000
  C   C39       1.0  0.22799  0.08022  0.27383  1.0000
  H   H43       1.0  0.17881  0.03086  0.84154  1.0000
  H   H44       1.0  0.31697  0.07751  0.72989  1.0000
  C   C40       1.0  0.16909  0.01840  0.75771  1.0000
  C   C41       1.0  0.23132  0.13320  0.98617  1.0000
  H   H45       1.0  0.19513  0.10793  0.25131  1.0000
  C   C42       1.0  0.28860  0.08998  0.92027  1.0000
  H   H46       1.0  0.28509  0.12329  0.85917  1.0000
  H   H47       1.0  0.23121  0.12260  0.24073  1.0000
  C   C43       1.0  0.27196  0.11033  0.85781  1.0000
  H   H48       1.0  0.28965  0.13756  0.93200  1.0000
  C   C44       1.0  0.21219  0.21817  0.51717  1.0000
  H   H49       1.0  0.30249  0.10209  0.92115  1.0000
  C   C45       1.0  0.22671  0.20800  0.44419  1.0000
  H   H50       1.0  0.25844  0.06863  0.87220  1.0000
  H   H51       1.0  0.25664  0.11836  0.84381  1.0000
  H   H52       1.0  0.28632  0.08344  0.95538  1.0000
  C   C46       1.0  0.25168  0.08151  0.89580  1.0000
  H   H53       1.0  0.19438  0.10190  0.19223  1.0000
  N   N4        1.0  0.26763  0.10007  0.90280  1.0000
  H   H54       1.0  0.22310  0.09298  0.29967  1.0000
  H   H55       1.0  0.24131  0.20287  0.42348  1.0000
  C   C47       1.0  0.24540  0.15072  0.99754  1.0000
  C   C48       1.0  0.23818  0.11671  0.95541  1.0000
  H   H56       1.0  0.20116  0.20325  0.51713  1.0000
  H   H57       1.0  0.21513  0.13210  0.00225  1.0000
  H   H58       1.0  0.22656  0.10337  0.94912  1.0000
  H   H59       1.0  0.15233  0.01729  0.84205  1.0000
  H   H60       1.0  0.28509  0.24169  0.62513  1.0000
  H   H61       1.0  0.27720  0.16577  0.98669  1.0000
  C   C49       1.0  0.25953  0.11744  0.93479  1.0000
  C   C50       1.0  0.24955  0.23966  0.63206  1.0000
  S   S19       1.0  0.04717  0.22536  0.20906  1.0000
  H   H62       1.0  0.18078  0.23524  0.12685  1.0000
  H   H63       1.0  0.21402  0.24305  0.63738  1.0000
  H   H64       1.0  0.21866  0.22244  0.42656  1.0000
  H   H65       1.0  0.17303  0.24202  0.27717  1.0000
  H   H66       1.0  0.31069  0.22347  0.73940  1.0000
  H   H67       1.0  0.07220  0.23902  0.12911  1.0000
  H   H68       1.0  0.20242  0.23229  0.50233  1.0000
  C   C51       1.0  0.17052  0.01429  0.83855  1.0000
  H   H69       1.0  0.30965  0.23941  0.81003  1.0000
  H   H70       1.0  0.32655  0.24773  0.65961  1.0000
  H   H71       1.0  0.29943  0.24778  0.44879  1.0000
  S   S20       1.0  0.32737  0.15495  0.57073  1.0000
  C   C52       1.0  0.20037  0.00004  0.79333  1.0000
  H   H72       1.0  0.24657  0.36630  0.22626  1.0000
  C   C53       1.0  0.24462  0.30460  0.89816  1.0000
  S   S21       1.0  0.24099  0.47160  0.47534  1.0000
  C   C54       1.0  0.29241  0.47278  0.71331  1.0000
  S   S22       1.0  0.25967  0.48594  0.26042  1.0000
  H   H73       1.0  0.27641  0.36918  0.28372  1.0000
  Fe  Fe11      1.0  0.02728  0.29934  0.14309  1.0000
  S   S23       1.0  0.04833  0.33057  0.13542  1.0000
  S   S24       1.0  0.02064  0.28442  0.21166  1.0000
  Fe  Fe12      1.0  0.20014  0.38955  0.11410  1.0000
  S   S25       1.0  0.18148  0.38369  0.04854  1.0000
  S   S26       1.0  0.19253  0.41891  0.16166  1.0000
  Fe  Fe13      1.0  0.22399  0.34468  0.10768  1.0000
  S   S27       1.0  0.20788  0.33543  0.04174  1.0000
  S   S28       1.0  0.24474  0.32244  0.15369  1.0000
  Fe  Fe14      1.0  0.21427  0.37106  0.02082  1.0000
  S   S29       1.0  0.21969  0.38078  0.94643  1.0000
  Fe  Fe15      1.0  0.17618  0.34848  0.07284  1.0000
  S   S30       1.0  0.14712  0.32493  0.06010  1.0000
  S   S31       1.0  0.23328  0.37955  0.08494  1.0000
  S   S32       1.0  0.19195  0.35512  0.14040  1.0000
  Fe  Fe16      1.0  0.30275  0.37961  0.63301  1.0000
  C   C55       1.0  0.18719  0.25073  0.11108  1.0000
  S   S33       1.0  0.30826  0.41253  0.59500  1.0000
  Fe  Fe17      1.0  0.27781  0.33626  0.64188  1.0000
  C   C56       1.0  0.21628  0.32521  0.83549  1.0000
  H   H74       1.0  0.14872  0.27082  0.08593  1.0000
  Fe  Fe18      1.0  0.29699  0.35774  0.72708  1.0000
  S   S34       1.0  0.29635  0.35717  0.80448  1.0000
  S   S35       1.0  0.27270  0.37012  0.67430  1.0000
  C   C57       1.0  0.26671  0.44587  0.77995  1.0000
  C   C58       1.0  0.24960  0.28669  0.62473  1.0000
  C   C59       1.0  0.22959  0.27510  0.62864  1.0000
  H   H75       1.0  0.14373  0.35914  0.20831  1.0000
  C   C60       1.0  0.26975  0.27471  0.62410  1.0000
  C   C61       1.0  0.22700  0.31786  0.91322  1.0000
  H   H76       1.0  0.28526  0.28358  0.62033  1.0000
  C   C62       1.0  0.24692  0.29363  0.14100  1.0000
  C   C63       1.0  0.24882  0.28613  0.09624  1.0000
  H   H77       1.0  0.02106  0.33141  0.03359  1.0000
  C   C64       1.0  0.24640  0.27791  0.17644  1.0000
  H   H78       1.0  0.24946  0.29815  0.06876  1.0000
  H   H79       1.0  0.24522  0.28360  0.21115  1.0000
  C   C65       1.0  0.24103  0.37346  0.90756  1.0000
  C   C66       1.0  0.26066  0.36270  0.92121  1.0000
  C   C67       1.0  0.27726  0.35760  0.88905  1.0000
  C   C68       1.0  0.27436  0.36299  0.84295  1.0000
  C   C69       1.0  0.25464  0.37354  0.82919  1.0000
  C   C70       1.0  0.23814  0.37884  0.86140  1.0000
  H   H80       1.0  0.26314  0.35855  0.95660  1.0000
  H   H81       1.0  0.29253  0.34960  0.90012  1.0000
  H   H82       1.0  0.25237  0.37828  0.79407  1.0000
  H   H83       1.0  0.22306  0.38730  0.85061  1.0000
  C   C71       1.0  0.07575  0.32897  0.11408  1.0000
  C   C72       1.0  0.08427  0.30904  0.09613  1.0000
  C   C73       1.0  0.10633  0.30802  0.08074  1.0000
  C   C74       1.0  0.12009  0.32689  0.08306  1.0000
  C   C75       1.0  0.11158  0.34690  0.10076  1.0000
  C   C76       1.0  0.08938  0.34797  0.11577  1.0000
  H   H84       1.0  0.07387  0.29442  0.09383  1.0000
  H   H85       1.0  0.11263  0.29262  0.06616  1.0000
  H   H86       1.0  0.12195  0.36162  0.10209  1.0000
  H   H87       1.0  0.08281  0.36353  0.12918  1.0000
  C   C77       1.0  0.24083  0.46707  0.23402  1.0000
  C   C78       1.0  0.21795  0.46805  0.24222  1.0000
  C   C79       1.0  0.20348  0.45327  0.21962  1.0000
  C   C80       1.0  0.21164  0.43723  0.18878  1.0000
  C   C81       1.0  0.23456  0.43609  0.18095  1.0000
  C   C82       1.0  0.24903  0.45101  0.20328  1.0000
  H   H88       1.0  0.21132  0.48050  0.26525  1.0000
  H   H89       1.0  0.18579  0.45439  0.22581  1.0000
  H   H90       1.0  0.24112  0.42382  0.15744  1.0000
  H   H91       1.0  0.26668  0.45008  0.19656  1.0000
  C   C83       1.0  0.26022  0.45503  0.50711  1.0000
  C   C84       1.0  0.25232  0.43642  0.53156  1.0000
  C   C85       1.0  0.26685  0.42286  0.55757  1.0000
  C   C86       1.0  0.28949  0.42790  0.55983  1.0000
  C   C87       1.0  0.29740  0.44648  0.53537  1.0000
  C   C88       1.0  0.28291  0.45988  0.50888  1.0000
  H   H92       1.0  0.23478  0.43256  0.53061  1.0000
  H   H93       1.0  0.26046  0.40873  0.57641  1.0000
  H   H94       1.0  0.00529  0.31158  0.94529  1.0000
  H   H95       1.0  0.28925  0.47415  0.49040  1.0000
  H   H96       1.0  0.16219  0.32254  0.21935  1.0000
  H   H97       1.0  0.06617  0.30267  0.26943  1.0000
  C   C89       1.0  0.18611  0.29062  0.10483  1.0000
  H   H98       1.0  0.02991  0.31737  0.91270  1.0000
  H   H99       1.0  0.19965  0.33908  0.89407  1.0000
  C   C90       1.0  0.18191  0.27235  0.17981  1.0000
  C   C91       1.0  0.19442  0.28985  0.19997  1.0000
  C   C92       1.0  0.07810  0.30845  0.97202  1.0000
  H   H100      1.0  0.27092  0.41702  0.87937  1.0000
  H   H101      1.0  0.14071  0.28889  0.23332  1.0000
  H   H102      1.0  0.22467  0.32081  0.94916  1.0000
  H   H103      1.0  0.30362  0.25755  0.69356  1.0000
  N   N5        1.0  0.09396  0.28545  0.23778  1.0000
  H   H104      1.0  0.17925  0.30674  0.11760  1.0000
  H   H105      1.0  0.03578  0.30770  0.05539  1.0000
  H   H106      1.0  0.02005  0.27735  0.97703  1.0000
  H   H107      1.0  0.11737  0.26638  0.27815  1.0000
  H   H108      1.0  0.31518  0.42183  0.69169  1.0000
  C   C93       1.0  0.02200  0.31955  0.94654  1.0000
  C   C94       1.0  0.08069  0.28153  0.19630  1.0000
  H   H109      1.0  0.20141  0.30340  0.18043  1.0000
  C   C95       1.0  0.22960  0.25178  0.63333  1.0000
  H   H110      1.0  0.00890  0.30443  0.02960  1.0000
  H   H111      1.0  0.08768  0.29348  0.30777  1.0000
  H   H112      1.0  0.25836  0.44619  0.68797  1.0000
  H   H113      1.0  0.20448  0.29127  0.10684  1.0000
  C   C96       1.0  0.15279  0.27097  0.12280  1.0000
  H   H114      1.0  0.08225  0.37149  0.00250  1.0000
  C   C97       1.0  0.24510  0.37828  0.25383  1.0000
  H   H115      1.0  0.25387  0.28771  0.52672  1.0000
  H   H116      1.0  0.21397  0.28423  0.62856  1.0000
  H   H117      1.0  0.21259  0.28364  0.76361  1.0000
  S   S36       1.0  0.24836  0.31604  0.61962  1.0000
  H   H118      1.0  0.25711  0.40615  0.41267  1.0000
  H   H119      1.0  0.14490  0.25584  0.13745  1.0000
  C   C98       1.0  0.19112  0.27295  0.27434  1.0000
  H   H120      1.0  0.25806  0.45540  0.38668  1.0000
  C   C99       1.0  0.26189  0.37997  0.28621  1.0000
  C   C100      1.0  0.22463  0.40806  0.29131  1.0000
  H   H121      1.0  0.09159  0.27813  0.16662  1.0000
  C   C101      1.0  0.28671  0.43910  0.75817  1.0000
  H   H122      1.0  0.30552  0.40396  0.84276  1.0000
  H   H123      1.0  0.06942  0.26701  0.20040  1.0000
  C   C102      1.0  0.30056  0.42363  0.78204  1.0000
  N   N6        1.0  0.03603  0.30962  0.98285  1.0000
  C   C103      1.0  0.31226  0.29378  0.84111  1.0000
  H   H124      1.0  0.19505  0.27294  0.31022  1.0000
  C   C104      1.0  0.21283  0.32809  0.88198  1.0000
  C   C105      1.0  0.27541  0.44041  0.67930  1.0000
  C   C106      1.0  0.29493  0.41606  0.82542  1.0000
  C   C107      1.0  0.17868  0.25563  0.25577  1.0000
  C   C108      1.0  0.30730  0.27100  0.84233  1.0000
  H   H125      1.0  0.30697  0.30481  0.86834  1.0000
  S   S37       1.0  0.03317  0.26674  0.10720  1.0000
  C   C109      1.0  0.25804  0.27201  0.51007  1.0000
  H   H126      1.0  0.27363  0.39641  0.34547  1.0000
  H   H127      1.0  0.20517  0.33404  0.81274  1.0000
  H   H128      1.0  0.31573  0.41686  0.76795  1.0000
  H   H129      1.0  0.14463  0.28611  0.13745  1.0000
  N   N7        1.0  0.17715  0.27132  0.13055  1.0000
  N   N8        1.0  0.29229  0.44789  0.71258  1.0000
  C   C110      1.0  0.17408  0.25534  0.20930  1.0000
  S   S38       1.0  0.30606  0.34640  0.59706  1.0000
  H   H130      1.0  0.04370  0.28066  0.94156  1.0000
  H   H131      1.0  0.07833  0.29080  0.96423  1.0000
  C   C111      1.0  0.03691  0.28498  0.97553  1.0000
  C   C112      1.0  0.06025  0.34350  0.99273  1.0000
  Fe  Fe19      1.0  0.99611  0.26626  0.09460  1.0000
  H   H132      1.0  0.21815  0.45077  0.33062  1.0000
  H   H133      1.0  0.20898  0.30333  0.26067  1.0000
  H   H134      1.0  0.27570  0.48006  0.72000  1.0000
  S   S39       1.0  0.29966  0.32340  0.69704  1.0000
  H   H135      1.0  0.25188  0.25730  0.05249  1.0000
  H   H136      1.0  0.21000  0.41866  0.29039  1.0000
  H   H137      1.0  0.10278  0.36211  0.21166  1.0000
  H   H138      1.0  0.23877  0.42659  0.43573  1.0000
  C   C113      1.0  0.24092  0.41476  0.40681  1.0000
  H   H139      1.0  0.24578  0.44328  0.83922  1.0000
  C   C114      1.0  0.31443  0.44036  0.69597  1.0000
  C   C115      1.0  0.22651  0.39223  0.25653  1.0000
  H   H140      1.0  0.11385  0.30976  0.96561  1.0000
  C   C116      1.0  0.10683  0.26460  0.24737  1.0000
  C   C117      1.0  0.19890  0.29004  0.24651  1.0000
  C   C118      1.0  0.07848  0.28909  0.27630  1.0000
  H   H141      1.0  0.21365  0.39111  0.23078  1.0000
  C   C119      1.0  0.26013  0.39563  0.32135  1.0000
  C   C120      1.0  0.24142  0.41019  0.32502  1.0000
  N   N9        1.0  0.23746  0.30920  0.76932  1.0000
  C   C121      1.0  0.24208  0.33137  0.74881  1.0000
  C   C122      1.0  0.25628  0.29403  0.75745  1.0000
  C   C123      1.0  0.21713  0.29999  0.74804  1.0000
  C   C124      1.0  0.23406  0.31178  0.81881  1.0000
  C   C125      1.0  0.24819  0.30150  0.85169  1.0000
  H   H142      1.0  0.18186  0.28973  0.06810  1.0000
  H   H143      1.0  0.25752  0.33860  0.76318  1.0000
  H   H144      1.0  0.24436  0.33018  0.71146  1.0000
  H   H145      1.0  0.22847  0.34371  0.75452  1.0000
  H   H146      1.0  0.27236  0.30054  0.77059  1.0000
  H   H147      1.0  0.25829  0.29250  0.72001  1.0000
  H   H148      1.0  0.25366  0.27679  0.77072  1.0000
  H   H149      1.0  0.20260  0.31147  0.75122  1.0000
  H   H150      1.0  0.21945  0.29724  0.71098  1.0000
  H   H151      1.0  0.25580  0.29704  0.92278  1.0000
  H   H152      1.0  0.26226  0.29124  0.84245  1.0000
  C   C126      1.0  0.26121  0.43808  0.82327  1.0000
  H   H153      1.0  0.28951  0.28383  0.48618  1.0000
  C   C127      1.0  0.08096  0.35397  0.99321  1.0000
  H   H154      1.0  0.04701  0.27644  0.00224  1.0000
  H   H155      1.0  0.25507  0.45713  0.76352  1.0000
  C   C128      1.0  0.10799  0.30548  0.23096  1.0000
  C   C129      1.0  0.09802  0.32690  0.22448  1.0000
  C   C130      1.0  0.13161  0.30439  0.22915  1.0000
  C   C131      1.0  0.11084  0.34601  0.21723  1.0000
  C   C132      1.0  0.14424  0.32361  0.22121  1.0000
  C   C133      1.0  0.13389  0.34435  0.21519  1.0000
  H   H156      1.0  0.06840  0.27385  0.28342  1.0000
  H   H157      1.0  0.31826  0.44741  0.66183  1.0000
  C   C134      1.0  0.27538  0.42333  0.84607  1.0000
  H   H158      1.0  0.22755  0.40204  0.40926  1.0000
  H   H159      1.0  0.27512  0.42179  0.67692  1.0000
  H   H160      1.0  0.27532  0.43369  0.36452  1.0000
  H   H161      1.0  0.01915  0.33781  0.95168  1.0000
  C   C135      1.0  0.25904  0.44227  0.35991  1.0000
  H   H162      1.0  0.31486  0.45062  0.53702  1.0000
  H   H163      1.0  0.08014  0.32901  0.22367  1.0000
  C   C136      1.0  0.21934  0.44040  0.36196  1.0000
  H   H164      1.0  0.20426  0.42983  0.36472  1.0000
  H   H165      1.0  0.21874  0.45240  0.39095  1.0000
  H   H166      1.0  0.06987  0.29606  0.18768  1.0000
  N   N10       1.0  0.24003  0.42664  0.36257  1.0000
  H   H167      1.0  0.25938  0.45093  0.32645  1.0000
  H   H168      1.0  0.04591  0.35366  0.00112  1.0000
  C   C137      1.0  0.05817  0.32034  0.98258  1.0000
  H   H169      1.0  0.27900  0.44689  0.64463  1.0000
  C   C138      1.0  0.02497  0.31349  0.02710  1.0000
  C   C139      1.0  0.25022  0.26303  0.08710  1.0000
  H   H170      1.0  0.29777  0.47986  0.68008  1.0000
  H   H171      1.0  0.11744  0.25960  0.21810  1.0000
  H   H172      1.0  0.11628  0.34982  0.98473  1.0000
  H   H173      1.0  0.32606  0.27586  0.67981  1.0000
  H   H174      1.0  0.22817  0.25686  0.53090  1.0000
  C   C140      1.0  0.27821  0.26981  0.48739  1.0000
  H   H175      1.0  0.29827  0.26424  0.87101  1.0000
  H   H176      1.0  0.30397  0.47909  0.73984  1.0000
  C   C141      1.0  0.10015  0.34183  0.98301  1.0000
  C   C142      1.0  0.09871  0.31917  0.97227  1.0000
  C   C143      1.0  0.31407  0.25685  0.80700  1.0000
  C   C144      1.0  0.24685  0.25481  0.16717  1.0000
  C   C145      1.0  0.32195  0.25835  0.68923  1.0000
  H   H177      1.0  0.20542  0.25040  0.11628  1.0000
  C   C146      1.0  0.32409  0.30248  0.80470  1.0000
  C   C147      1.0  0.26967  0.25108  0.62678  1.0000
  C   C148      1.0  0.24328  0.25403  0.51205  1.0000
  Fe  Fe20      1.0  0.02495  0.25151  0.17486  1.0000
  C   C149      1.0  0.32630  0.26524  0.76941  1.0000
  S   S40       1.0  0.32700  0.37004  0.68896  1.0000
  H   H178      1.0  0.32803  0.44559  0.71917  1.0000
  Fe  Fe21      1.0  0.32806  0.33630  0.65552  1.0000
  H   H179      1.0  0.09564  0.25009  0.25358  1.0000
  H   H180      1.0  0.18399  0.24931  0.07402  1.0000
  H   H181      1.0  0.32794  0.32023  0.80374  1.0000
  C   C150      1.0  0.28373  0.24961  0.46643  1.0000
  Fe  Fe22      1.0  0.22395  0.54056  0.37808  1.0000
  S   S41       1.0  0.25157  0.54420  0.32748  1.0000
  S   S42       1.0  0.19475  0.56451  0.36845  1.0000
  Fe  Fe23      1.0  0.27371  0.54052  0.38810  1.0000
  S   S43       1.0  0.30326  0.56336  0.40050  1.0000
  S   S44       1.0  0.24608  0.53828  0.43938  1.0000
  C   C151      1.0  0.21423  0.63115  0.32039  1.0000
  Fe  Fe24      1.0  0.16542  0.68737  0.45068  1.0000
  S   S45       1.0  0.16766  0.69892  0.37847  1.0000
  S   S46       1.0  0.18469  0.65682  0.47590  1.0000
  Fe  Fe25      1.0  0.14278  0.73126  0.48226  1.0000
  C   C152      1.0  0.27316  0.73824  0.89004  1.0000
  H   H182      1.0  0.28912  0.73113  0.82670  1.0000
  Fe  Fe26      1.0  0.13270  0.71226  0.38759  1.0000
  S   S47       1.0  0.10620  0.70594  0.33324  1.0000
  Fe  Fe27      1.0  0.17848  0.73144  0.40875  1.0000
  C   C153      1.0  0.27338  0.73409  0.84361  1.0000
  S   S48       1.0  0.12943  0.69799  0.45847  1.0000
  S   S49       1.0  0.17819  0.71957  0.48072  1.0000
  S   S50       1.0  0.01155  0.73530  0.13965  1.0000
  C   C154      1.0  0.25809  0.72414  0.45213  1.0000
  C   C155      1.0  0.08779  0.72516  0.30582  1.0000
  C   C156      1.0  0.07238  0.71696  0.27405  1.0000
  C   C157      1.0  0.05666  0.73136  0.25323  1.0000
  H   H183      1.0  0.28088  0.55864  0.25352  1.0000
  H   H184      1.0  0.26054  0.66985  0.29714  1.0000
  C   C158      1.0  0.26297  0.68567  0.27977  1.0000
  H   H185      1.0  0.07234  0.69926  0.26610  1.0000
  H   H186      1.0  0.04464  0.72470  0.22959  1.0000
  H   H187      1.0  0.25675  0.61131  0.38354  1.0000
  H   H188      1.0  0.22598  0.67761  0.38089  1.0000
  C   C159      1.0  0.21301  0.65311  0.33613  1.0000
  C   C160      1.0  0.27394  0.67230  0.40320  1.0000
  C   C161      1.0  0.32801  0.62449  0.36711  1.0000
  N   N11       1.0  0.21227  0.74102  0.81220  1.0000
  C   C162      1.0  0.07911  0.73302  0.10407  1.0000
  N   N12       1.0  0.31043  0.53853  0.24588  1.0000
  H   H189      1.0  0.31331  0.73127  0.13530  1.0000
  C   C163      1.0  0.31945  0.52216  0.21279  1.0000
  Fe  Fe28      1.0  0.32820  0.72153  0.39515  1.0000
  C   C164      1.0  0.20656  0.71828  0.79605  1.0000
  H   H190      1.0  0.09051  0.72922  0.40990  1.0000
  H   H191      1.0  0.09028  0.73947  0.18835  1.0000
  C   C165      1.0  0.31643  0.63023  0.32755  1.0000
  C   C166      1.0  0.23669  0.72859  0.43518  1.0000
  C   C167      1.0  0.29495  0.59570  0.33453  1.0000
  C   C168      1.0  0.23381  0.74290  0.39800  1.0000
  H   H192      1.0  0.28223  0.58472  0.32169  1.0000
  H   H193      1.0  0.25467  0.73097  0.78295  1.0000
  C   C169      1.0  0.19217  0.59009  0.39870  1.0000
  C   C170      1.0  0.20543  0.59473  0.43650  1.0000
  C   C171      1.0  0.20278  0.61513  0.45994  1.0000
  C   C172      1.0  0.18730  0.63136  0.44521  1.0000
  C   C173      1.0  0.17419  0.62684  0.40713  1.0000
  C   C174      1.0  0.17644  0.60618  0.38437  1.0000
  H   H194      1.0  0.21743  0.58243  0.44814  1.0000
  H   H195      1.0  0.21268  0.61823  0.48986  1.0000
  H   H196      1.0  0.16211  0.63910  0.39560  1.0000
  H   H197      1.0  0.16605  0.60270  0.35528  1.0000
  C   C175      1.0  0.24722  0.66372  0.46177  1.0000
  H   H198      1.0  0.23698  0.67856  0.45235  1.0000
  H   H199      1.0  0.25836  0.66923  0.48971  1.0000
  H   H200      1.0  0.23557  0.65108  0.47580  1.0000
  C   C176      1.0  0.29977  0.61583  0.31159  1.0000
  H   H201      1.0  0.29074  0.62010  0.28099  1.0000
  C   C177      1.0  0.30710  0.58955  0.37316  1.0000
  H   H202      1.0  0.28830  0.67222  0.23757  1.0000
  H   H203      1.0  0.30473  0.74424  0.18664  1.0000
  C   C178      1.0  0.27880  0.68717  0.24526  1.0000
  C   C179      1.0  0.25047  0.70445  0.29204  1.0000
  H   H204      1.0  0.09381  0.72253  0.09508  1.0000
  Fe  Fe29      1.0  0.25189  0.50646  0.32390  1.0000
  C   C180      1.0  0.27504  0.63677  0.44120  1.0000
  H   H205      1.0  0.26393  0.68680  0.39085  1.0000
  C   C181      1.0  0.28750  0.54487  0.23190  1.0000
  H   H206      1.0  0.26023  0.71364  0.48177  1.0000
  H   H207      1.0  0.28590  0.67912  0.42852  1.0000
  C   C182      1.0  0.24521  0.62377  0.37088  1.0000
  C   C183      1.0  0.22786  0.66054  0.36926  1.0000
  H   H208      1.0  0.19093  0.71850  0.77562  1.0000
  C   C184      1.0  0.29411  0.69169  0.14971  1.0000
  N   N13       1.0  0.29931  0.70860  0.18495  1.0000
  H   H209      1.0  0.20003  0.66423  0.32365  1.0000
  H   H210      1.0  0.28388  0.66590  0.37402  1.0000
  H   H211      1.0  0.25305  0.74625  0.94790  1.0000
  H   H212      1.0  0.27680  0.69390  0.13698  1.0000
  C   C185      1.0  0.27397  0.74647  0.39199  1.0000
  C   C186      1.0  0.24440  0.64608  0.38782  1.0000
  H   H213      1.0  0.26555  0.62279  0.45688  1.0000
  C   C187      1.0  0.23031  0.61655  0.33764  1.0000
  C   C188      1.0  0.25357  0.73449  0.81877  1.0000
  H   H214      1.0  0.05658  0.71092  0.38598  1.0000
  H   H215      1.0  0.22759  0.74886  0.74739  1.0000
  C   C189      1.0  0.28258  0.70759  0.22177  1.0000
  C   C190      1.0  0.23292  0.73979  0.83960  1.0000
  S   S51       1.0  0.32341  0.65425  0.29526  1.0000
  N   N14       1.0  0.25992  0.65441  0.42291  1.0000
  C   C191      1.0  0.06479  0.71582  0.47844  1.0000
  C   C192      1.0  0.08727  0.74190  0.43665  1.0000
  H   H216      1.0  0.28594  0.62977  0.41425  1.0000
  C   C193      1.0  0.23321  0.74337  0.88731  1.0000
  H   H217      1.0  0.15728  0.73043  0.59570  1.0000
  S   S52       1.0  0.31662  0.71505  0.32464  1.0000
  H   H218      1.0  0.23056  0.59919  0.32667  1.0000
  H   H219      1.0  0.27145  0.74284  0.22026  1.0000
  C   C194      1.0  0.25378  0.72476  0.26986  1.0000
  H   H220      1.0  0.28638  0.64345  0.46774  1.0000
  S   S53       1.0  0.22231  0.50298  0.36916  1.0000
  C   C195      1.0  0.08766  0.74808  0.31572  1.0000
  H   H221      1.0  0.20217  0.62514  0.29602  1.0000
  H   H222      1.0  0.07686  0.71396  0.50699  1.0000
  H   H223      1.0  0.28419  0.73531  0.14585  1.0000
  H   H224      1.0  0.20411  0.70660  0.82510  1.0000
  C   C196      1.0  0.01643  0.74710  0.35219  1.0000
  Fe  Fe30      1.0  0.24720  0.50087  0.42656  1.0000
  H   H225      1.0  0.27583  0.53048  0.23465  1.0000
  S   S54       1.0  0.14399  0.74595  0.41168  1.0000
  H   H226      1.0  0.28865  0.73872  0.90885  1.0000
  H   H227      1.0  0.22249  0.72121  0.45142  1.0000
  C   C197      1.0  0.25309  0.74254  0.91191  1.0000
  C   C198      1.0  0.27676  0.73285  0.43023  1.0000
  H   H228      1.0  0.30182  0.53826  0.31679  1.0000
  H   H229      1.0  0.11537  0.74292  0.15620  1.0000
  H   H230      1.0  0.29790  0.51206  0.28874  1.0000
  H   H231      1.0  0.21982  0.71100  0.77423  1.0000
  H   H232      1.0  0.16800  0.73740  0.67586  1.0000
  C   C199      1.0  0.26962  0.72647  0.23537  1.0000
  H   H233      1.0  0.23825  0.70345  0.31890  1.0000
  H   H234      1.0  0.29582  0.67425  0.16266  1.0000
  C   C200      1.0  0.15050  0.74475  0.61356  1.0000
  C   C201      1.0  0.30889  0.52698  0.29041  1.0000
  C   C202      1.0  0.30030  0.73081  0.16218  1.0000
  S   S55       1.0  0.27679  0.50295  0.38068  1.0000
  H   H235      1.0  0.10099  0.74037  0.46166  1.0000
  C   C203      1.0  0.32660  0.57246  0.20774  1.0000
  H   H236      1.0  0.18811  0.73878  0.86635  1.0000
  C   C204      1.0  0.04787  0.74140  0.42335  1.0000
  H   H237      1.0  0.30556  0.69297  0.12015  1.0000
  S   S56       1.0  0.30340  0.72659  0.45123  1.0000
  H   H238      1.0  0.28652  0.55057  0.19611  1.0000
  H   H239      1.0  0.06830  0.73506  0.07354  1.0000
  H   H240      1.0  0.04793  0.71191  0.49155  1.0000
  H   H241      1.0  0.06922  0.72321  0.12901  1.0000
  H   H242      1.0  0.32537  0.52075  0.30232  1.0000
  H   H243      1.0  0.24404  0.73932  0.27977  1.0000
  H   H244      1.0  0.31969  0.52895  0.17770  1.0000
  H   H245      1.0  0.02870  0.71568  0.32686  1.0000
  H   H246      1.0  0.31836  0.56813  0.17642  1.0000
  C   C205      1.0  0.32172  0.70364  0.20361  1.0000
  C   C206      1.0  0.04561  0.72532  0.38821  1.0000
  C   C207      1.0  0.02987  0.72803  0.35370  1.0000
  H   H247      1.0  0.06958  0.70255  0.45380  1.0000
  N   N15       1.0  0.06539  0.73868  0.45834  1.0000
  H   H248      1.0  0.30921  0.50663  0.21176  1.0000
  H   H249      1.0  0.32277  0.68690  0.22013  1.0000
  H   H250      1.0  0.32643  0.71623  0.22953  1.0000
  C   C208      1.0  0.32459  0.55874  0.24691  1.0000
  C   C209      1.0  0.32355  0.60410  0.38943  1.0000
  H   H251      1.0  0.09904  0.74560  0.03267  1.0000
  H   H252      1.0  0.21847  0.74768  0.90635  1.0000
  C   C210      1.0  0.15653  0.74875  0.65909  1.0000
  C   C211      1.0  0.21867  0.79392  0.47994  1.0000
  H   H253      1.0  0.22140  0.77262  0.78247  1.0000
  S   S57       1.0  0.20013  0.96652  0.90794  1.0000
  H   H254      1.0  0.06059  0.75180  0.94299  1.0000
  S   S58       1.0  0.30654  0.95899  0.86379  1.0000
  C   C212      1.0  0.18114  0.78291  0.49435  1.0000
  S   S59       1.0  0.30242  0.79053  0.85663  1.0000
  Fe  Fe31      1.0  0.17694  0.80934  0.88044  1.0000
  S   S60       1.0  0.18253  0.81786  0.80770  1.0000
  S   S61       1.0  0.20411  0.79971  0.92965  1.0000
  Fe  Fe32      1.0  0.12731  0.81981  0.87561  1.0000
  S   S62       1.0  0.12930  0.82963  0.80112  1.0000
  S   S63       1.0  0.09790  0.82484  0.92406  1.0000
  Fe  Fe33      1.0  0.15121  0.79885  0.79339  1.0000
  S   S64       1.0  0.15583  0.77096  0.74065  1.0000
  Fe  Fe34      1.0  0.16077  0.84781  0.82104  1.0000
  S   S65       1.0  0.17527  0.88005  0.79254  1.0000
  S   S66       1.0  0.14712  0.78805  0.86663  1.0000
  S   S67       1.0  0.15721  0.84038  0.89499  1.0000
  Fe  Fe35      1.0  0.01088  0.76565  0.18455  1.0000
  C   C213      1.0  0.19659  0.83084  0.63034  1.0000
  H   H255      1.0  0.03456  0.77401  0.44549  1.0000
  S   S68       1.0  0.00997  0.79057  0.12682  1.0000
  C   C214      1.0  0.08103  0.80478  0.95228  1.0000
  C   C215      1.0  0.07804  0.78309  0.93544  1.0000
  C   C216      1.0  0.06311  0.76835  0.95693  1.0000
  C   C217      1.0  0.05116  0.77496  0.99573  1.0000
  C   C218      1.0  0.05463  0.79640  0.01336  1.0000
  C   C219      1.0  0.06927  0.81127  0.99146  1.0000
  H   H256      1.0  0.08681  0.77788  0.90520  1.0000
  C   C220      1.0  0.15187  0.97100  0.82366  1.0000
  H   H257      1.0  0.04582  0.80164  0.04342  1.0000
  H   H258      1.0  0.07141  0.82801  0.00471  1.0000
  H   H259      1.0  0.17431  0.80620  0.65717  1.0000
  C   C221      1.0  0.04087  0.83984  0.89939  1.0000
  C   C222      1.0  0.14766  0.76710  0.68319  1.0000
  C   C223      1.0  0.13274  0.78153  0.66111  1.0000
  C   C224      1.0  0.00065  0.83671  0.04723  1.0000
  H   H260      1.0  0.00808  0.77832  0.38389  1.0000
  H   H261      1.0  0.12575  0.79569  0.67917  1.0000
  C   C225      1.0  0.27540  0.79474  0.87752  1.0000
  C   C226      1.0  0.25767  0.79624  0.84684  1.0000
  C   C227      1.0  0.23582  0.79864  0.86267  1.0000
  C   C228      1.0  0.23152  0.79901  0.90918  1.0000
  C   C229      1.0  0.24927  0.79783  0.93991  1.0000
  C   C230      1.0  0.27121  0.79587  0.92411  1.0000
  H   H262      1.0  0.26085  0.79536  0.81079  1.0000
  H   H263      1.0  0.22230  0.79966  0.83891  1.0000
  H   H264      1.0  0.24603  0.79804  0.97600  1.0000
  H   H265      1.0  0.28473  0.79433  0.94801  1.0000
  H   H266      1.0  0.13311  0.94216  0.84480  1.0000
  C   C231      1.0  0.31224  0.93491  0.89725  1.0000
  C   C232      1.0  0.31268  0.93597  0.94463  1.0000
  Fe  Fe36      1.0  0.23112  0.98748  0.89686  1.0000
  H   H267      1.0  0.30817  0.95144  0.96148  1.0000
  C   C233      1.0  0.01681  0.85407  0.95858  1.0000
  C   C234      1.0  0.19489  0.94149  0.87743  1.0000
  C   C235      1.0  0.17839  0.92681  0.89306  1.0000
  C   C236      1.0  0.17298  0.90732  0.86858  1.0000
  C   C237      1.0  0.18345  0.90279  0.82725  1.0000
  C   C238      1.0  0.19996  0.91744  0.81163  1.0000
  C   C239      1.0  0.20595  0.93647  0.83696  1.0000
  H   H268      1.0  0.16963  0.93062  0.92415  1.0000
  H   H269      1.0  0.16009  0.89631  0.88078  1.0000
  H   H270      1.0  0.20802  0.91416  0.77954  1.0000
  H   H271      1.0  0.21868  0.94755  0.82448  1.0000
  H   H272      1.0  0.25041  0.76317  0.34808  1.0000
  C   C240      1.0  0.03375  0.76061  0.42106  1.0000
  C   C241      1.0  0.21036  0.83670  0.59432  1.0000
  H   H273      1.0  0.01679  0.82831  0.05485  1.0000
  H   H274      1.0  0.22363  0.82805  0.53026  1.0000
  H   H275      1.0  0.00342  0.85507  0.04803  1.0000
  S   S69       1.0  0.12676  0.75449  0.53474  1.0000
  H   H276      1.0  0.07151  0.78004  0.30401  1.0000
  H   H277      1.0  0.08843  0.75872  0.42051  1.0000
  C   C242      1.0  0.05606  0.75415  0.26432  1.0000
  C   C243      1.0  0.03218  0.81851  0.90560  1.0000
  H   H278      1.0  0.01139  0.86838  0.97816  1.0000
  H   H279      1.0  0.20632  0.99366  0.76011  1.0000
  C   C244      1.0  0.11660  0.77505  0.01661  1.0000
  H   H280      1.0  0.11482  0.78857  0.59911  1.0000
  S   S70       1.0  0.25979  0.98451  0.94561  1.0000
  H   H281      1.0  0.32114  0.91867  0.00673  1.0000
  H   H282      1.0  0.12343  0.82058  0.08359  1.0000
  H   H283      1.0  0.19959  0.75567  0.55531  1.0000
  C   C245      1.0  0.01834  0.76333  0.38580  1.0000
  N   N16       1.0  0.08582  0.75509  0.12272  1.0000
  S   S71       1.0  0.32727  0.81090  0.97561  1.0000
  C   C246      1.0  0.16517  0.98097  0.78935  1.0000
  H   H284      1.0  0.01083  0.79752  0.94278  1.0000
  N   N17       1.0  0.24579  0.87187  0.88773  1.0000
  C   C247      1.0  0.25381  0.88176  0.84458  1.0000
  C   C248      1.0  0.26324  0.85667  0.90614  1.0000
  C   C249      1.0  0.22604  0.85803  0.87686  1.0000
  C   C250      1.0  0.24113  0.89000  0.92069  1.0000
  C   C251      1.0  0.25817  0.90511  0.93334  1.0000
  C   C252      1.0  0.21985  0.89351  0.94051  1.0000
  C   C253      1.0  0.25401  0.92298  0.96273  1.0000
  C   C254      1.0  0.21592  0.91142  0.97007  1.0000
  C   C255      1.0  0.23287  0.92627  0.98068  1.0000
  H   H285      1.0  0.24157  0.89422  0.83109  1.0000
  H   H286      1.0  0.26993  0.89053  0.84866  1.0000
  H   H287      1.0  0.25645  0.86875  0.81808  1.0000
  H   H288      1.0  0.26705  0.84268  0.88238  1.0000
  H   H289      1.0  0.25791  0.84907  0.93886  1.0000
  H   H290      1.0  0.27922  0.86540  0.91245  1.0000
  H   H291      1.0  0.22997  0.84485  0.85142  1.0000
  H   H292      1.0  0.21966  0.84913  0.90740  1.0000
  H   H293      1.0  0.21235  0.86834  0.86195  1.0000
  H   H294      1.0  0.27483  0.90341  0.92009  1.0000
  H   H295      1.0  0.20580  0.88297  0.93307  1.0000
  H   H296      1.0  0.26718  0.93454  0.97111  1.0000
  H   H297      1.0  0.19943  0.91420  0.98379  1.0000
  H   H298      1.0  0.22953  0.94054  0.00240  1.0000
  Fe  Fe37      1.0  0.00934  0.76030  0.08215  1.0000
  C   C256      1.0  0.12655  0.77742  0.61569  1.0000
  C   C257      1.0  0.21156  0.76409  0.53229  1.0000
  S   S72       1.0  0.03579  0.77281  0.24132  1.0000
  Fe  Fe38      1.0  0.28074  0.98550  0.88274  1.0000
  C   C258      1.0  0.11828  0.80396  0.07344  1.0000
  C   C259      1.0  0.18504  0.81073  0.62907  1.0000
  H   H299      1.0  0.19625  0.76697  0.85151  1.0000
  H   H300      1.0  0.17780  0.75148  0.81605  1.0000
  C   C260      1.0  0.06520  0.76729  0.13526  1.0000
  C   C261      1.0  0.14641  0.93779  0.77796  1.0000
  H   H301      1.0  0.18226  0.77205  0.46369  1.0000
  C   C262      1.0  0.10629  0.79045  0.10340  1.0000
  C   C263      1.0  0.15935  0.94704  0.74374  1.0000
  H   H302      1.0  0.21293  0.81000  0.46455  1.0000
  H   H303      1.0  0.10264  0.79718  0.13659  1.0000
  H   H304      1.0  0.05407  0.84244  0.87495  1.0000
  S   S73       1.0  0.03170  0.75604  0.01996  1.0000
  H   H305      1.0  0.04011  0.87415  0.92085  1.0000
  H   H306      1.0  0.03870  0.80463  0.88582  1.0000
  S   S74       1.0  0.25196  0.98710  0.83399  1.0000
  C   C264      1.0  0.01609  0.81468  0.93881  1.0000
  C   C265      1.0  0.32015  0.91739  0.97019  1.0000
  C   C266      1.0  0.21268  0.82246  0.55688  1.0000
  H   H307      1.0  0.13996  0.92095  0.77434  1.0000
  C   C267      1.0  0.18716  0.79644  0.59177  1.0000
  C   C268      1.0  0.14259  0.94978  0.81767  1.0000
  C   C269      1.0  0.19288  0.74995  0.83780  1.0000
  H   H308      1.0  0.10234  0.76642  0.18384  1.0000
  H   H309      1.0  0.19479  0.84190  0.65930  1.0000
  C   C270      1.0  0.20110  0.80178  0.55455  1.0000
  H   H310      1.0  0.17774  0.78113  0.59228  1.0000
  H   H311      1.0  0.16272  0.93736  0.71341  1.0000
  C   C271      1.0  0.09885  0.76884  0.09056  1.0000
  H   H312      1.0  0.16911  0.77473  0.51753  1.0000
  N   N18       1.0  0.20321  0.78612  0.51582  1.0000
  H   H313      1.0  0.05459  0.75710  0.15809  1.0000
  C   C272      1.0  0.03311  0.85762  0.92562  1.0000
  C   C273      1.0  0.32545  0.89601  0.90150  1.0000
  C   C274      1.0  0.06353  0.75498  0.49627  1.0000
  H   H314      1.0  0.17367  0.79920  0.48365  1.0000
  H   H315      1.0  0.13220  0.80696  0.00644  1.0000
  H   H316      1.0  0.21928  0.85242  0.59547  1.0000
  H   H317      1.0  0.22757  0.76590  0.55084  1.0000
  H   H318      1.0  0.21984  0.78172  0.45142  1.0000
  H   H319      1.0  0.05523  0.77151  0.10455  1.0000
  C   C275      1.0  0.32688  0.89745  0.94877  1.0000
  C   C276      1.0  0.07177  0.76243  0.29536  1.0000
  C   C277      1.0  0.12338  0.79628  0.03009  1.0000
  C   C278      1.0  0.13534  0.75901  0.59170  1.0000
  C   C279      1.0  0.00805  0.83240  0.96675  1.0000
  H   H320      1.0  0.20579  0.98779  0.81964  1.0000
  H   H321      1.0  0.23589  0.79585  0.49317  1.0000
  C   C280      1.0  0.16856  0.96833  0.74913  1.0000
  C   C281      1.0  0.31854  0.91479  0.87585  1.0000
  H   H322      1.0  0.06843  0.78311  0.15389  1.0000
  H   H323      1.0  0.31849  0.91390  0.83921  1.0000
  H   H324      1.0  0.17887  0.97456  0.72201  1.0000
  H   H325      1.0  0.99962  0.79440  0.01802  1.0000
  H   H326      1.0  0.14901  0.97884  0.85611  1.0000
  H   H327      1.0  0.09967  0.75474  0.33932  1.0000
  H   H328      1.0  0.19982  0.75828  0.75270  1.0000
  H   H329      1.0  0.21450  0.75228  0.50376  1.0000
  C   C282      1.0  0.25250  0.75192  0.37659  1.0000
  H   H330      1.0  0.06645  0.77247  0.48468  1.0000
  H   H331      1.0  0.32493  0.78964  0.17439  1.0000
  C   C283      1.0  0.21550  0.75579  0.77212  1.0000
  H   H332      1.0  0.28834  0.75337  0.37510  1.0000
  H   H333      1.0  0.12023  0.76941  0.98245  1.0000
  C   C284      1.0  0.10437  0.76150  0.04605  1.0000
  S   S75       1.0  0.20709  0.75064  0.37905  1.0000
  C   C285      1.0  0.09906  0.75083  0.16443  1.0000
  H   H334      1.0  0.04700  0.75399  0.51299  1.0000
  H   H335      1.0  0.07640  0.75181  0.52291  1.0000
  H   H336      1.0  0.00494  0.74957  0.32418  1.0000
  H   H337      1.0  0.49802  0.19011  0.66050  1.0000
  H   H338      1.0  0.48451  0.15984  0.74218  1.0000
  C   C286      1.0  0.51378  0.19117  0.77183  1.0000
  Fe  Fe39      1.0  0.64563  0.23218  0.96661  1.0000
  Fe  Fe40      1.0  0.48141  0.23849  0.61133  1.0000
  C   C287      1.0  0.65116  0.20051  0.14174  1.0000
  Fe  Fe41      1.0  0.63197  0.21071  0.87614  1.0000
  S   S76       1.0  0.60652  0.20285  0.82106  1.0000
  H   H339      1.0  0.64744  0.15246  0.07963  1.0000
  S   S77       1.0  0.62963  0.19924  0.94880  1.0000
  C   C288      1.0  0.50902  0.18712  0.69040  1.0000
  H   H340      1.0  0.64745  0.15586  0.14037  1.0000
  H   H341      1.0  0.47864  0.22137  0.75829  1.0000
  H   H342      1.0  0.46656  0.17901  0.71283  1.0000
  S   S78       1.0  0.46093  0.20658  0.60893  1.0000
  H   H343      1.0  0.51388  0.16916  0.68880  1.0000
  C   C289      1.0  0.47902  0.17765  0.74087  1.0000
  C   C290      1.0  0.62907  0.20820  0.14933  1.0000
  S   S79       1.0  0.35525  0.21414  0.61910  1.0000
  C   C291      1.0  0.43155  0.20843  0.61247  1.0000
  C   C292      1.0  0.42100  0.22863  0.62339  1.0000
  C   C293      1.0  0.39767  0.22989  0.62527  1.0000
  C   C294      1.0  0.38456  0.21102  0.61649  1.0000
  C   C295      1.0  0.39506  0.19069  0.60591  1.0000
  C   C296      1.0  0.41849  0.18941  0.60405  1.0000
  C   C297      1.0  0.42709  0.24744  0.51807  1.0000
  C   C298      1.0  0.53413  0.20692  0.83660  1.0000
  H   H344      1.0  0.38517  0.17600  0.59904  1.0000
  H   H345      1.0  0.42651  0.17368  0.59558  1.0000
  C   C299      1.0  0.58662  0.22173  0.79773  1.0000
  C   C300      1.0  0.57546  0.21574  0.75765  1.0000
  C   C301      1.0  0.55890  0.22977  0.73888  1.0000
  H   H346      1.0  0.61268  0.23683  0.62882  1.0000
  H   H347      1.0  0.37312  0.23245  0.51434  1.0000
  H   H348      1.0  0.51044  0.22543  0.79898  1.0000
  H   H349      1.0  0.57951  0.20002  0.74131  1.0000
  H   H350      1.0  0.55032  0.22478  0.70843  1.0000
  N   N19       1.0  0.49784  0.19314  0.73364  1.0000
  H   H351      1.0  0.61566  0.20354  0.12692  1.0000
  H   H352      1.0  0.52282  0.15631  0.75826  1.0000
  H   H353      1.0  0.65357  0.18587  0.03024  1.0000
  C   C302      1.0  0.54157  0.16886  0.81371  1.0000
  H   H354      1.0  0.41029  0.21607  0.51060  1.0000
  H   H355      1.0  0.33511  0.21651  0.70858  1.0000
  H   H356      1.0  0.57675  0.24725  0.61386  1.0000
  C   C303      1.0  0.63336  0.23660  0.73551  1.0000
  H   H357      1.0  0.63146  0.20031  0.05804  1.0000
  H   H358      1.0  0.33718  0.22002  0.76850  1.0000
  H   H359      1.0  0.52428  0.19720  0.68537  1.0000
  C   C304      1.0  0.54596  0.18696  0.84200  1.0000
  H   H360      1.0  0.63634  0.21426  0.67893  1.0000
  H   H361      1.0  0.38975  0.24573  0.63250  1.0000
  C   C305      1.0  0.32885  0.22675  0.73757  1.0000
  C   C306      1.0  0.51828  0.20915  0.80210  1.0000
  H   H362      1.0  0.36416  0.24159  0.69752  1.0000
  H   H363      1.0  0.55098  0.15343  0.81793  1.0000
  C   C307      1.0  0.62922  0.22986  0.69112  1.0000
  H   H364      1.0  0.63663  0.24112  0.24214  1.0000
  C   C308      1.0  0.48843  0.21607  0.72813  1.0000
  H   H365      1.0  0.47681  0.21712  0.69874  1.0000
  S   S80       1.0  0.51845  0.23704  0.62227  1.0000
  C   C309      1.0  0.52558  0.17079  0.77939  1.0000
  H   H366      1.0  0.53795  0.22112  0.85811  1.0000
  H   H367      1.0  0.55894  0.18572  0.86750  1.0000
  C   C310      1.0  0.40834  0.23410  0.51367  1.0000
  C   C311      1.0  0.64955  0.19655  0.06002  1.0000
  H   H368      1.0  0.50176  0.22858  0.72207  1.0000
  C   C312      1.0  0.58116  0.24204  0.81872  1.0000
  C   C313      1.0  0.38711  0.24370  0.51567  1.0000
  H   H369      1.0  0.47030  0.18145  0.77327  1.0000
  H   H370      1.0  0.60705  0.22863  0.18982  1.0000
  H   H371      1.0  0.62526  0.16730  0.10646  1.0000
  C   C314      1.0  0.62391  0.22250  0.18538  1.0000
  H   H372      1.0  0.43080  0.24341  0.62957  1.0000
  S   S81       1.0  0.64532  0.24461  0.89405  1.0000
  H   H373      1.0  0.64342  0.22620  0.75787  1.0000
  C   C315      1.0  0.64352  0.16439  0.10769  1.0000
  C   C316      1.0  0.64050  0.22947  0.21501  1.0000
  H   H374      1.0  0.44348  0.23976  0.51791  1.0000
  N   N20       1.0  0.65617  0.18550  0.10305  1.0000
  H   H375      1.0  0.65248  0.00288  0.72265  1.0000
  C   C317      1.0  0.61560  0.24288  0.66283  1.0000
  H   H376      1.0  0.65830  0.21271  0.05559  1.0000
  H   H377      1.0  0.58954  0.24680  0.84970  1.0000
  H   H378      1.0  0.66124  0.04057  0.73715  1.0000
  S   S82       1.0  0.47601  0.26454  0.66509  1.0000
  H   H379      1.0  0.57087  0.29246  0.69960  1.0000
  C   C318      1.0  0.63018  0.27099  0.11004  1.0000
  H   H380      1.0  0.61269  0.27393  0.10364  1.0000
  Fe  Fe42      1.0  0.65760  0.35422  0.29094  1.0000
  C   C319      1.0  0.60550  0.26303  0.67841  1.0000
  H   H381      1.0  0.34381  0.30875  0.52502  1.0000
  Fe  Fe43      1.0  0.62826  0.32010  0.34076  1.0000
  S   S83       1.0  0.59280  0.32063  0.36803  1.0000
  H   H382      1.0  0.35783  0.27506  0.45020  1.0000
  S   S84       1.0  0.63316  0.32840  0.26676  1.0000
  C   C320      1.0  0.64324  0.26032  0.07680  1.0000
  Fe  Fe44      1.0  0.48029  0.28881  0.60760  1.0000
  H   H383      1.0  0.59461  0.30841  0.68002  1.0000
  S   S85       1.0  0.45718  0.31867  0.59679  1.0000
  H   H384      1.0  0.62677  0.26117  0.78675  1.0000
  H   H385      1.0  0.57278  0.41722  0.38412  1.0000
  S   S86       1.0  0.51724  0.29220  0.61903  1.0000
  N   N21       1.0  0.59064  0.27614  0.64809  1.0000
  S   S87       1.0  0.35562  0.31014  0.65342  1.0000
  C   C321      1.0  0.42923  0.31697  0.61508  1.0000
  C   C322      1.0  0.41465  0.33525  0.60865  1.0000
  C   C323      1.0  0.39215  0.33389  0.62178  1.0000
  C   C324      1.0  0.38413  0.31414  0.64124  1.0000
  C   C325      1.0  0.39878  0.29605  0.64804  1.0000
  C   C326      1.0  0.42117  0.29743  0.63506  1.0000
  H   H386      1.0  0.42078  0.35047  0.59322  1.0000
  H   H387      1.0  0.38101  0.34793  0.61610  1.0000
  H   H388      1.0  0.39284  0.28081  0.66328  1.0000
  H   H389      1.0  0.43216  0.28328  0.64013  1.0000
  C   C327      1.0  0.58227  0.30418  0.41340  1.0000
  C   C328      1.0  0.59424  0.28611  0.43167  1.0000
  C   C329      1.0  0.58476  0.27278  0.46603  1.0000
  C   C330      1.0  0.56338  0.27753  0.48298  1.0000
  C   C331      1.0  0.55166  0.29597  0.46560  1.0000
  C   C332      1.0  0.56101  0.30911  0.43075  1.0000
  H   H390      1.0  0.61055  0.28205  0.41854  1.0000
  H   H391      1.0  0.65839  0.32331  0.17474  1.0000
  H   H392      1.0  0.53516  0.29976  0.47813  1.0000
  H   H393      1.0  0.55155  0.32297  0.41674  1.0000
  C   C333      1.0  0.63675  0.44261  0.34954  1.0000
  C   C334      1.0  0.63954  0.27783  0.15161  1.0000
  H   H394      1.0  0.60834  0.26854  0.58597  1.0000
  S   S88       1.0  0.63058  0.25239  0.02482  1.0000
  H   H395      1.0  0.55985  0.27169  0.61258  1.0000
  H   H396      1.0  0.36268  0.27024  0.71295  1.0000
  C   C335      1.0  0.65702  0.32159  0.07929  1.0000
  S   S89       1.0  0.65513  0.29354  0.34110  1.0000
  H   H397      1.0  0.57012  0.30606  0.64585  1.0000
  S   S90       1.0  0.65066  0.34774  0.36429  1.0000
  H   H398      1.0  0.61717  0.37241  0.31653  1.0000
  C   C336      1.0  0.33099  0.28852  0.76937  1.0000
  C   C337      1.0  0.35791  0.25317  0.72425  1.0000
  C   C338      1.0  0.63112  0.40460  0.40356  1.0000
  Fe  Fe45      1.0  0.51338  0.26504  0.67146  1.0000
  H   H399      1.0  0.60273  0.28407  0.73941  1.0000
  C   C339      1.0  0.61557  0.40875  0.36803  1.0000
  C   C340      1.0  0.60112  0.38168  0.31506  1.0000
  H   H400      1.0  0.60913  0.43143  0.31116  1.0000
  C   C341      1.0  0.58129  0.29667  0.66952  1.0000
  H   H401      1.0  0.62922  0.28571  0.17711  1.0000
  C   C342      1.0  0.60283  0.28309  0.60673  1.0000
  S   S91       1.0  0.65518  0.38768  0.25457  1.0000
  H   H402      1.0  0.63745  0.30390  0.02966  1.0000
  H   H403      1.0  0.56016  0.27155  0.81690  1.0000
  H   H404      1.0  0.36978  0.30931  0.49509  1.0000
  H   H405      1.0  0.60237  0.39335  0.28572  1.0000
  C   C343      1.0  0.55321  0.24995  0.76015  1.0000
  H   H406      1.0  0.58798  0.36917  0.30731  1.0000
  S   S92       1.0  0.48433  0.26265  0.55306  1.0000
  S   S93       1.0  0.53172  0.26775  0.73907  1.0000
  H   H407      1.0  0.57560  0.41772  0.32337  1.0000
  C   C344      1.0  0.65364  0.31076  0.03783  1.0000
  H   H408      1.0  0.64799  0.43092  0.21880  1.0000
  C   C345      1.0  0.61931  0.42792  0.34054  1.0000
  H   H409      1.0  0.59052  0.38444  0.42796  1.0000
  C   C346      1.0  0.59312  0.37654  0.39423  1.0000
  H   H410      1.0  0.57830  0.36600  0.38712  1.0000
  H   H411      1.0  0.59212  0.29340  0.58370  1.0000
  H   H412      1.0  0.60723  0.36445  0.39663  1.0000
  Fe  Fe46      1.0  0.52100  0.26406  0.56888  1.0000
  H   H413      1.0  0.59392  0.25849  0.47905  1.0000
  H   H414      1.0  0.56111  0.39543  0.34949  1.0000
  N   N22       1.0  0.59676  0.39360  0.35823  1.0000
  C   C347      1.0  0.36103  0.30181  0.52461  1.0000
  C   C348      1.0  0.61007  0.26941  0.72395  1.0000
  S   S94       1.0  0.55195  0.25943  0.52465  1.0000
  H   H415      1.0  0.63940  0.45708  0.32796  1.0000
  H   H416      1.0  0.63029  0.38997  0.42506  1.0000
  H   H417      1.0  0.43928  0.28080  0.52926  1.0000
  C   C349      1.0  0.57572  0.40662  0.35363  1.0000
  H   H418      1.0  0.33997  0.29622  0.74177  1.0000
  H   H419      1.0  0.35990  0.27106  0.59450  1.0000
  H   H420      1.0  0.33203  0.27839  0.48044  1.0000
  H   H421      1.0  0.61779  0.29304  0.61555  1.0000
  H   H422      1.0  0.56224  0.25615  0.66399  1.0000
  C   C350      1.0  0.65145  0.43827  0.38500  1.0000
  H   H423      1.0  0.36894  0.30799  0.55618  1.0000
  H   H424      1.0  0.64878  0.35017  0.15305  1.0000
  H   H425      1.0  0.64281  0.32261  0.10150  1.0000
  C   C351      1.0  0.64876  0.41921  0.41170  1.0000
  C   C352      1.0  0.34973  0.26838  0.56338  1.0000
  H   H426      1.0  0.34650  0.25011  0.56114  1.0000
  C   C353      1.0  0.40355  0.28029  0.52604  1.0000
  C   C354      1.0  0.57167  0.26210  0.63414  1.0000
  N   N23       1.0  0.36135  0.27692  0.52265  1.0000
  C   C355      1.0  0.62393  0.25638  0.75175  1.0000
  H   H427      1.0  0.40306  0.29814  0.53205  1.0000
  H   H428      1.0  0.34580  0.25191  0.48009  1.0000
  C   C356      1.0  0.56449  0.25603  0.80004  1.0000
  C   C357      1.0  0.34871  0.27028  0.48158  1.0000
  C   C358      1.0  0.38405  0.26717  0.52108  1.0000
  H   H429      1.0  0.36723  0.24936  0.75599  1.0000
  C   C359      1.0  0.42469  0.27046  0.52452  1.0000
  H   H430      1.0  0.33340  0.27683  0.56874  1.0000
  H   H431      1.0  0.66066  0.41554  0.43840  1.0000
  N   N24       1.0  0.33358  0.25097  0.73107  1.0000
  C   C360      1.0  0.66091  0.43247  0.24415  1.0000
  H   H432      1.0  0.37062  0.73474  0.19295  1.0000
  S   S95       1.0  0.34907  0.69038  0.39914  1.0000
  H   H433      1.0  0.33580  0.55652  0.31800  1.0000
  Fe  Fe47      1.0  0.34632  0.73477  0.30188  1.0000
  C   C361      1.0  0.63897  0.62998  0.61748  1.0000
  H   H434      1.0  0.60296  0.64384  0.65239  1.0000
  Fe  Fe48      1.0  0.37653  0.71236  0.37256  1.0000
  S   S96       1.0  0.41062  0.70745  0.40589  1.0000
  C   C362      1.0  0.38422  0.72675  0.51687  1.0000
  S   S97       1.0  0.36863  0.70433  0.29895  1.0000
  H   H435      1.0  0.34099  0.63534  0.37958  1.0000
  C   C363      1.0  0.36636  0.74168  0.51878  1.0000
  H   H436      1.0  0.64564  0.68806  0.86630  1.0000
  S   S98       1.0  0.55795  0.71417  0.59903  1.0000
  H   H437      1.0  0.63127  0.61831  0.64224  1.0000
  H   H438      1.0  0.33477  0.70406  0.17690  1.0000
  C   C364      1.0  0.34978  0.59881  0.24799  1.0000
  S   S99       1.0  0.64187  0.67962  0.71100  1.0000
  C   C365      1.0  0.58209  0.70757  0.63101  1.0000
  C   C366      1.0  0.60171  0.70140  0.60821  1.0000
  C   C367      1.0  0.62056  0.69395  0.63248  1.0000
  C   C368      1.0  0.61968  0.69180  0.67967  1.0000
  C   C369      1.0  0.60026  0.69846  0.70253  1.0000
  C   C370      1.0  0.58161  0.70652  0.67839  1.0000
  H   H439      1.0  0.60216  0.70204  0.57155  1.0000
  H   H440      1.0  0.63555  0.68930  0.61465  1.0000
  H   H441      1.0  0.59944  0.69698  0.73906  1.0000
  H   H442      1.0  0.56656  0.71108  0.69631  1.0000
  C   C371      1.0  0.42649  0.72696  0.43787  1.0000
  C   C372      1.0  0.40138  0.72786  0.54887  1.0000
  H   H443      1.0  0.61988  0.60672  0.52029  1.0000
  C   C373      1.0  0.60330  0.63834  0.57850  1.0000
  C   C374      1.0  0.45824  0.73392  0.48820  1.0000
  C   C375      1.0  0.44475  0.71906  0.46337  1.0000
  N   N25       1.0  0.41852  0.74537  0.61959  1.0000
  H   H444      1.0  0.35702  0.59068  0.31741  1.0000
  H   H445      1.0  0.47243  0.72758  0.50694  1.0000
  H   H446      1.0  0.44863  0.70133  0.46349  1.0000
  C   C376      1.0  0.34878  0.58536  0.28653  1.0000
  H   H447      1.0  0.41487  0.71603  0.54455  1.0000
  H   H448      1.0  0.55780  0.65117  0.51241  1.0000
  H   H449      1.0  0.54267  0.66261  0.58677  1.0000
  H   H450      1.0  0.33677  0.51716  0.22181  1.0000
  H   H451      1.0  0.64458  0.60105  0.55186  1.0000
  C   C377      1.0  0.63872  0.64567  0.54254  1.0000
  H   H452      1.0  0.61785  0.59569  0.57687  1.0000
  H   H453      1.0  0.38148  0.73763  0.11179  1.0000
  C   C378      1.0  0.57202  0.65277  0.62360  1.0000
  H   H454      1.0  0.38493  0.71438  0.48993  1.0000
  C   C379      1.0  0.62716  0.60752  0.55487  1.0000
  H   H455      1.0  0.64168  0.67429  0.81324  1.0000
  C   C380      1.0  0.36281  0.74718  0.17129  1.0000
  H   H456      1.0  0.65669  0.64120  0.54030  1.0000
  H   H457      1.0  0.64658  0.65799  0.86378  1.0000
  C   C381      1.0  0.33640  0.56562  0.28630  1.0000
  H   H458      1.0  0.63998  0.64694  0.63298  1.0000
  H   H459      1.0  0.65460  0.73985  0.62900  1.0000
  H   H460      1.0  0.63228  0.64498  0.50729  1.0000
  Fe  Fe49      1.0  0.33935  0.68513  0.32664  1.0000
  C   C382      1.0  0.55917  0.65524  0.58459  1.0000
  C   C383      1.0  0.65134  0.67359  0.84558  1.0000
  H   H461      1.0  0.35876  0.61450  0.24907  1.0000
  H   H462      1.0  0.63757  0.66338  0.55402  1.0000
  H   H463      1.0  0.59557  0.63612  0.50627  1.0000
  C   C384      1.0  0.33890  0.59226  0.20851  1.0000
  C   C385      1.0  0.56783  0.64897  0.54270  1.0000
  H   H464      1.0  0.56537  0.65826  0.65594  1.0000
  S   S100      1.0  0.35605  0.74405  0.37368  1.0000
  C   C386      1.0  0.59377  0.64448  0.62090  1.0000
  H   H465      1.0  0.65637  0.62401  0.61281  1.0000
  H   H466      1.0  0.33309  0.59946  0.41920  1.0000
  N   N26       1.0  0.62662  0.63054  0.57383  1.0000
  H   H467      1.0  0.42146  0.74317  0.69257  1.0000
  S   S101      1.0  0.49468  0.73648  0.61499  1.0000
  H   H468      1.0  0.42839  0.71052  0.61798  1.0000
  H   H469      1.0  0.33979  0.60279  0.17858  1.0000
  C   C387      1.0  0.58951  0.64051  0.53958  1.0000
  C   C388      1.0  0.40095  0.74397  0.58441  1.0000
  C   C389      1.0  0.43576  0.72753  0.61569  1.0000
  H   H470      1.0  0.44827  0.72862  0.64355  1.0000
  H   H471      1.0  0.39878  0.72770  0.66863  1.0000
  H   H472      1.0  0.35315  0.74072  0.49370  1.0000
  Fe  Fe50      1.0  0.53197  0.74016  0.61957  1.0000
  C   C390      1.0  0.40851  0.74341  0.66544  1.0000
  H   H473      1.0  0.44518  0.72898  0.58333  1.0000
  H   H474      1.0  0.43010  0.74482  0.78979  1.0000
  C   C391      1.0  0.36891  0.74885  0.12524  1.0000
  H   H475      1.0  0.61636  0.74893  0.61586  1.0000
  Fe  Fe51      1.0  0.36001  0.79300  0.98441  1.0000
  S   S102      1.0  0.36178  0.78078  0.91183  1.0000
  S   S103      1.0  0.36930  0.76791  0.04035  1.0000
  Fe  Fe52      1.0  0.49474  0.76796  0.57365  1.0000
  C   C392      1.0  0.43090  0.82036  0.16662  1.0000
  C   C393      1.0  0.37583  0.92115  0.90252  1.0000
  C   C394      1.0  0.57205  0.86743  0.54040  1.0000
  Fe  Fe53      1.0  0.37973  0.81275  0.89625  1.0000
  S   S104      1.0  0.40940  0.81964  0.84963  1.0000
  C   C395      1.0  0.43548  0.76488  0.46206  1.0000
  S   S105      1.0  0.38025  0.82384  0.96948  1.0000
  H   H476      1.0  0.37538  0.91204  0.93419  1.0000
  S   S106      1.0  0.49185  0.79103  0.63370  1.0000
  C   C396      1.0  0.38289  0.92519  0.82205  1.0000
  C   C397      1.0  0.40384  0.85567  0.12998  1.0000
  Fe  Fe54      1.0  0.52931  0.78998  0.63649  1.0000
  S   S107      1.0  0.55041  0.82074  0.65008  1.0000
  Fe  Fe55      1.0  0.49310  0.75969  0.67550  1.0000
  H   H477      1.0  0.53520  0.80668  0.44400  1.0000
  C   C398      1.0  0.39132  0.87333  0.11142  1.0000
  S   S108      1.0  0.64090  0.84058  0.54592  1.0000
  C   C399      1.0  0.57641  0.82472  0.62301  1.0000
  C   C400      1.0  0.58213  0.81301  0.58363  1.0000
  C   C401      1.0  0.60199  0.81796  0.56066  1.0000
  C   C402      1.0  0.61683  0.83397  0.57776  1.0000
  C   C403      1.0  0.61152  0.84512  0.61806  1.0000
  C   C404      1.0  0.59120  0.84080  0.64009  1.0000
  H   H478      1.0  0.57096  0.80064  0.57007  1.0000
  H   H479      1.0  0.60577  0.80948  0.52919  1.0000
  H   H480      1.0  0.62269  0.85763  0.63138  1.0000
  H   H481      1.0  0.58691  0.84998  0.67048  1.0000
  C   C405      1.0  0.42449  0.80037  0.81502  1.0000
  C   C406      1.0  0.42038  0.77731  0.81559  1.0000
  H   H482      1.0  0.38095  0.88199  0.78945  1.0000
  C   C407      1.0  0.45020  0.77080  0.76024  1.0000
  C   C408      1.0  0.45406  0.79389  0.75908  1.0000
  C   C409      1.0  0.44133  0.80854  0.78644  1.0000
  H   H483      1.0  0.40755  0.77073  0.83743  1.0000
  C   C410      1.0  0.62856  0.79566  0.67787  1.0000
  H   H484      1.0  0.46708  0.80044  0.73768  1.0000
  H   H485      1.0  0.44473  0.82631  0.78572  1.0000
  H   H486      1.0  0.40478  0.78677  0.18953  1.0000
  C   C411      1.0  0.35927  0.76519  0.09670  1.0000
  C   C412      1.0  0.34301  0.77955  0.11449  1.0000
  H   H487      1.0  0.40297  0.79005  0.08831  1.0000
  C   C413      1.0  0.45387  0.75698  0.48714  1.0000
  H   H488      1.0  0.41787  0.89520  0.80987  1.0000
  C   C414      1.0  0.36724  0.94298  0.90350  1.0000
  H   H489      1.0  0.44257  0.82950  0.14404  1.0000
  S   S109      1.0  0.34829  0.83214  0.88114  1.0000
  S   S110      1.0  0.47154  0.77655  0.51471  1.0000
  H   H490      1.0  0.50493  0.85786  0.47680  1.0000
  N   N27       1.0  0.41048  0.81373  0.14180  1.0000
  H   H491      1.0  0.43192  0.78266  0.46097  1.0000
  C   C415      1.0  0.58010  0.85664  0.46344  1.0000
  H   H492      1.0  0.57547  0.78445  0.70974  1.0000
  H   H493      1.0  0.38346  0.85750  0.82332  1.0000
  C   C416      1.0  0.37866  0.82917  0.09556  1.0000
  C   C417      1.0  0.55215  0.85548  0.53894  1.0000
  C   C418      1.0  0.59133  0.78245  0.69277  1.0000
  H   H494      1.0  0.41851  0.78163  0.62265  1.0000
  H   H495      1.0  0.41808  0.86031  0.15006  1.0000
  C   C419      1.0  0.64895  0.77444  0.57069  1.0000
  C   C420      1.0  0.61468  0.76290  0.63886  1.0000
  C   C421      1.0  0.36606  0.95572  0.86397  1.0000
  C   C422      1.0  0.53054  0.80694  0.48040  1.0000
  C   C423      1.0  0.51397  0.82738  0.54167  1.0000
  H   H496      1.0  0.39612  0.89056  0.11741  1.0000
  C   C424      1.0  0.60840  0.79751  0.70113  1.0000
  C   C425      1.0  0.39610  0.80149  0.17413  1.0000
  H   H497      1.0  0.64083  0.80823  0.68537  1.0000
  H   H498      1.0  0.54463  0.79943  0.49985  1.0000
  H   H499      1.0  0.51608  0.79543  0.48349  1.0000
  H   H500      1.0  0.38140  0.77210  0.61037  1.0000
  H   H501      1.0  0.50781  0.84371  0.55496  1.0000
  C   C426      1.0  0.58616  0.86770  0.50305  1.0000
  S   S111      1.0  0.53054  0.76032  0.68384  1.0000
  C   C427      1.0  0.54578  0.84340  0.49950  1.0000
  S   S112      1.0  0.53207  0.76991  0.57278  1.0000
  H   H502      1.0  0.36063  0.87652  0.83241  1.0000
  C   C428      1.0  0.41735  0.79817  0.10502  1.0000
  H   H503      1.0  0.42232  0.87033  0.84248  1.0000
  H   H504      1.0  0.49360  0.83083  0.46297  1.0000
  H   H505      1.0  0.44372  0.76861  0.64120  1.0000
  H   H506      1.0  0.51617  0.84194  0.43055  1.0000
  H   H507      1.0  0.55613  0.83662  0.42985  1.0000
  H   H508      1.0  0.38103  0.79485  0.15745  1.0000
  N   N28       1.0  0.52526  0.82985  0.49716  1.0000
  H   H509      1.0  0.49916  0.81632  0.53943  1.0000
  H   H510      1.0  0.35158  0.84359  0.05705  1.0000
  C   C429      1.0  0.41555  0.88781  0.84413  1.0000
  C   C430      1.0  0.50931  0.84060  0.46542  1.0000
  H   H511      1.0  0.52534  0.81980  0.56733  1.0000
  H   H512      1.0  0.42675  0.80710  0.07807  1.0000
  C   C431      1.0  0.56009  0.84488  0.46135  1.0000
  H   H513      1.0  0.57703  0.87573  0.57145  1.0000
  N   N29       1.0  0.39193  0.88804  0.85847  1.0000
  C   C432      1.0  0.39054  0.87565  0.90210  1.0000
  C   C433      1.0  0.37868  0.87556  0.82446  1.0000
  Fe  Fe56      1.0  0.34738  0.84085  0.95475  1.0000
  C   C434      1.0  0.38368  0.91145  0.86143  1.0000
  C   C435      1.0  0.63223  0.77837  0.64547  1.0000
  H   H514      1.0  0.37310  0.81242  0.08817  1.0000
  C   C436      1.0  0.37404  0.94692  0.82339  1.0000
  H   H515      1.0  0.38871  0.91906  0.78970  1.0000
  H   H516      1.0  0.42689  0.83099  0.19656  1.0000
  H   H517      1.0  0.37308  0.87458  0.91421  1.0000
  H   H518      1.0  0.39673  0.85811  0.89880  1.0000
  H   H519      1.0  0.40084  0.88354  0.92897  1.0000
  C   C437      1.0  0.37255  0.86895  0.08524  1.0000
  H   H520      1.0  0.60567  0.81117  0.72471  1.0000
  H   H521      1.0  0.54255  0.85532  0.56988  1.0000
  H   H522      1.0  0.42604  0.89740  0.86830  1.0000
  H   H523      1.0  0.63968  0.78952  0.55863  1.0000
  H   H524      1.0  0.59122  0.85686  0.43456  1.0000
  C   C438      1.0  0.34713  0.76205  0.18944  1.0000
  H   H525      1.0  0.64863  0.97426  0.66399  1.0000
  H   H526      1.0  0.33534  0.79213  0.09297  1.0000
  H   H527      1.0  0.37289  0.95689  0.79267  1.0000
  H   H528      1.0  0.44009  0.80547  0.18007  1.0000
  H   H529      1.0  0.43710  0.76965  0.58171  1.0000
  H   H530      1.0  0.60205  0.87612  0.50522  1.0000
  C   C439      1.0  0.36620  0.84692  0.07750  1.0000
  H   H531      1.0  0.35843  0.97225  0.86464  1.0000
  H   H532      1.0  0.36286  0.88262  0.07074  1.0000
  H   H533      1.0  0.36053  0.94977  0.93476  1.0000
  C   C440      1.0  0.43321  0.76265  0.78846  1.0000
  H   H534      1.0  0.39027  0.81258  0.20209  1.0000
  C   C441      1.0  0.39788  0.83294  0.12240  1.0000
  C   C442      1.0  0.59446  0.76520  0.66170  1.0000
  H   H535      1.0  0.42790  0.78413  0.11790  1.0000
  N   N30       1.0  0.65336  0.77586  0.62018  1.0000
  H   H536      1.0  0.58103  0.75368  0.65495  1.0000
  H   H537      1.0  0.63923  0.75942  0.56127  1.0000
  S   S113      1.0  0.33954  0.76152  0.24758  1.0000
  S   S114      1.0  0.33841  0.87543  0.98205  1.0000
  C   C443      1.0  0.33716  0.77811  0.16071  1.0000
  H   H538      1.0  0.39736  0.75772  0.67376  1.0000
  C   C444      1.0  0.36561  0.75791  0.55266  1.0000
  C   C445      1.0  0.38263  0.75913  0.58496  1.0000
  C   C446      1.0  0.42989  0.76727  0.61613  1.0000
  H   H539      1.0  0.40773  0.75629  0.41858  1.0000
  H   H540      1.0  0.35175  0.76960  0.55372  1.0000
  Fe  Fe57      1.0  0.33044  0.80105  0.90240  1.0000
  H   H541      1.0  0.33033  0.88071  0.88466  1.0000
  S   S115      1.0  0.46606  0.75147  0.72726  1.0000
  C   C447      1.0  0.42173  0.74996  0.43792  1.0000
  H   H542      1.0  0.66085  0.81112  0.61755  1.0000
  Fe  Fe58      1.0  0.72648  0.04031  0.89051  1.0000
  S   S116      1.0  0.75668  0.04139  0.84586  1.0000
  S   S117      1.0  0.69869  0.06419  0.86924  1.0000
  Fe  Fe59      1.0  0.77560  0.03900  0.91114  1.0000
  S   S118      1.0  0.80325  0.06267  0.93165  1.0000
  S   S119      1.0  0.74539  0.03937  0.95614  1.0000
  Fe  Fe60      1.0  0.84383  0.18168  0.84482  1.0000
  S   S120      1.0  0.84400  0.19198  0.91770  1.0000
  S   S121      1.0  0.82964  0.14913  0.81809  1.0000
  Fe  Fe61      1.0  0.86309  0.22656  0.81277  1.0000
  H   H543      1.0  0.91552  0.23453  0.16574  1.0000
  S   S122      1.0  0.98813  0.24808  0.15932  1.0000
  Fe  Fe62      1.0  0.87793  0.20620  0.90379  1.0000
  S   S123      1.0  0.90469  0.19776  0.95600  1.0000
  Fe  Fe63      1.0  0.83097  0.22484  0.89164  1.0000
  S   S124      1.0  0.66583  0.19490  0.86674  1.0000
  S   S125      1.0  0.87877  0.19346  0.83193  1.0000
  S   S126      1.0  0.82827  0.21369  0.81925  1.0000
  H   H544      1.0  0.73817  0.14809  0.82017  1.0000
  H   H545      1.0  0.84656  0.05052  0.88159  1.0000
  C   C448      1.0  0.69729  0.11332  0.96520  1.0000
  C   C449      1.0  0.92467  0.21715  0.97618  1.0000
  C   C450      1.0  0.93765  0.21152  0.01436  1.0000
  Fe  Fe64      1.0  0.75544  0.00361  0.84723  1.0000
  H   H546      1.0  0.88826  0.09926  0.94342  1.0000
  H   H547      1.0  0.70320  0.11560  0.99953  1.0000
  H   H548      1.0  0.75068  0.08876  0.91708  1.0000
  H   H549      1.0  0.93503  0.19566  0.03129  1.0000
  H   H550      1.0  0.86816  0.14804  0.88836  1.0000
  C   C451      1.0  0.68498  0.13048  0.94397  1.0000
  C   C452      1.0  0.73378  0.24076  0.87129  1.0000
  C   C453      1.0  0.77703  0.24084  0.90766  1.0000
  C   C454      1.0  0.95420  0.22613  0.03050  1.0000
  H   H551      1.0  0.68501  0.20343  0.16940  1.0000
  H   H552      1.0  0.85569  0.23279  0.99744  1.0000
  C   C455      1.0  0.88528  0.14345  0.89939  1.0000
  H   H553      1.0  0.67567  0.10455  0.84287  1.0000
  S   S127      1.0  0.87741  0.24818  0.75634  1.0000
  H   H554      1.0  0.69051  0.19455  0.09367  1.0000
  C   C456      1.0  0.67932  0.04295  0.74285  1.0000
  H   H555      1.0  0.77417  0.09589  0.98394  1.0000
  H   H556      1.0  0.84792  0.07103  0.80891  1.0000
  H   H557      1.0  0.86645  0.06495  0.94842  1.0000
  S   S128      1.0  0.68048  0.21856  0.96318  1.0000
  C   C457      1.0  0.85670  0.06541  0.87852  1.0000
  C   C458      1.0  0.69412  0.08979  0.89826  1.0000
  C   C459      1.0  0.70189  0.09309  0.94245  1.0000
  S   S129      1.0  0.77785  0.00120  0.90848  1.0000
  C   C460      1.0  0.68190  0.10701  0.87691  1.0000
  H   H558      1.0  0.71115  0.07992  0.95942  1.0000
  H   H559      1.0  0.72361  0.17418  0.82545  1.0000
  C   C461      1.0  0.80815  0.08775  0.90108  1.0000
  C   C462      1.0  0.80231  0.08987  0.85534  1.0000
  C   C463      1.0  0.80853  0.10906  0.83074  1.0000
  C   C464      1.0  0.82010  0.12656  0.85184  1.0000
  C   C465      1.0  0.82486  0.12499  0.89821  1.0000
  C   C466      1.0  0.81931  0.10546  0.92244  1.0000
  H   H560      1.0  0.79387  0.07632  0.83842  1.0000
  H   H561      1.0  0.80475  0.11014  0.79492  1.0000
  H   H562      1.0  0.83325  0.13850  0.91527  1.0000
  H   H563      1.0  0.82379  0.10398  0.95786  1.0000
  Fe  Fe65      1.0  0.67897  0.22803  0.88961  1.0000
  H   H564      1.0  0.93691  0.23775  0.12284  1.0000
  S   S130      1.0  0.72381  0.00268  0.88679  1.0000
  H   H565      1.0  0.86873  0.10536  0.80166  1.0000
  N   N31       1.0  0.69080  0.02175  0.75537  1.0000
  H   H566      1.0  0.96429  0.22141  0.05942  1.0000
  H   H567      1.0  0.68337  0.02394  0.82701  1.0000
  H   H568      1.0  0.68327  0.16823  0.06948  1.0000
  C   C467      1.0  0.67745  0.12734  0.89953  1.0000
  C   C468      1.0  0.92830  0.23766  0.95449  1.0000
  H   H569      1.0  0.71830  0.17284  0.93032  1.0000
  H   H570      1.0  0.91928  0.11673  0.91997  1.0000
  C   C469      1.0  0.85749  0.07701  0.83757  1.0000
  H   H571      1.0  0.78441  0.13472  0.00402  1.0000
  C   C470      1.0  0.86791  0.07364  0.91622  1.0000
  H   H572      1.0  0.89528  0.15907  0.89949  1.0000
  C   C471      1.0  0.86962  0.09684  0.83395  1.0000
  C   C472      1.0  0.88022  0.09335  0.91297  1.0000
  C   C473      1.0  0.91818  0.12155  0.88362  1.0000
  H   H573      1.0  0.90648  0.15129  0.82153  1.0000
  S   S131      1.0  0.70709  0.24124  0.84719  1.0000
  S   S132      1.0  0.67888  0.15528  0.97460  1.0000
  H   H574      1.0  0.92890  0.13660  0.87987  1.0000
  H   H575      1.0  0.77467  0.18490  0.88952  1.0000
  Fe  Fe66      1.0  0.74615  0.00169  0.94840  1.0000
  Fe  Fe67      1.0  0.66466  0.18639  0.94053  1.0000
  H   H576      1.0  0.74266  0.18967  0.93780  1.0000
  C   C474      1.0  0.68860  0.00533  0.71804  1.0000
  H   H577      1.0  0.77121  0.16635  0.95826  1.0000
  H   H578      1.0  0.90308  0.12392  0.79782  1.0000
  C   C475      1.0  0.68050  0.01278  0.79733  1.0000
  N   N32       1.0  0.89498  0.12623  0.86897  1.0000
  C   C476      1.0  0.92603  0.24681  0.14736  1.0000
  H   H579      1.0  0.88431  0.13778  0.93522  1.0000
  C   C477      1.0  0.68010  0.17942  0.09910  1.0000
  C   C478      1.0  0.77383  0.23850  0.86094  1.0000
  H   H580      1.0  0.87915  0.14140  0.81055  1.0000
  C   C479      1.0  0.89595  0.13602  0.82262  1.0000
  H   H581      1.0  0.78877  0.22509  0.47578  1.0000
  H   H582      1.0  0.75878  0.19106  0.83998  1.0000
  C   C480      1.0  0.88166  0.10548  0.87157  1.0000
  C   C481      1.0  0.71424  0.02726  0.76625  1.0000
  H   H583      1.0  0.68615  0.17020  0.12958  1.0000
  H   H584      1.0  0.73647  0.11921  0.87119  1.0000
  H   H585      1.0  0.77461  0.16534  0.84346  1.0000
  H   H586      1.0  0.72423  0.19536  0.89193  1.0000
  H   H587      1.0  0.92567  0.10775  0.86324  1.0000
  S   S133      1.0  0.80395  0.24257  0.93063  1.0000
  H   H588      1.0  0.72288  0.03511  0.73700  1.0000
  N   N33       1.0  0.74446  0.16559  0.88283  1.0000
  C   C482      1.0  0.72953  0.15922  0.84486  1.0000
  C   C483      1.0  0.73195  0.18152  0.91202  1.0000
  C   C484      1.0  0.76394  0.17721  0.86313  1.0000
  C   C485      1.0  0.75224  0.14624  0.91027  1.0000
  C   C486      1.0  0.76606  0.14970  0.94867  1.0000
  C   C487      1.0  0.74683  0.12368  0.89963  1.0000
  C   C488      1.0  0.77369  0.13174  0.97513  1.0000
  C   C489      1.0  0.75473  0.10586  0.92611  1.0000
  C   C490      1.0  0.76793  0.10988  0.96397  1.0000
  H   H589      1.0  0.71438  0.15065  0.85762  1.0000
  H   H590      1.0  0.78789  0.23703  0.83858  1.0000
  H   H591      1.0  0.72377  0.01209  0.77704  1.0000
  H   H592      1.0  0.66779  0.14035  0.88295  1.0000
  C   C491      1.0  0.75853  0.24289  0.93622  1.0000
  H   H593      1.0  0.71533  0.03952  0.79450  1.0000
  H   H594      1.0  0.68643  0.05016  0.71124  1.0000
  C   C492      1.0  0.75228  0.23887  0.84275  1.0000
  C   C493      1.0  0.88024  0.22413  0.04770  1.0000
  H   H595      1.0  0.74990  0.23751  0.80647  1.0000
  H   H596      1.0  0.87941  0.20633  0.04042  1.0000
  H   H597      1.0  0.72404  0.00175  0.70046  1.0000
  H   H598      1.0  0.77582  0.24421  0.40903  1.0000
  S   S134      1.0  0.86476  0.24012  0.88413  1.0000
  H   H599      1.0  0.68093  0.05578  0.77020  1.0000
  H   H600      1.0  0.91850  0.24218  0.92502  1.0000
  H   H601      1.0  0.67523  0.22837  0.23106  1.0000
  H   H602      1.0  0.83196  0.24360  0.72151  1.0000
  H   H603      1.0  0.90530  0.21949  0.09707  1.0000
  C   C494      1.0  0.89517  0.23200  0.08029  1.0000
  H   H604      1.0  0.66220  0.01110  0.79443  1.0000
  C   C495      1.0  0.86695  0.23903  0.02318  1.0000
  H   H605      1.0  0.76092  0.24484  0.97239  1.0000
  C   C496      1.0  0.73690  0.24252  0.91815  1.0000
  H   H606      1.0  0.72270  0.24424  0.94033  1.0000
  C   C497      1.0  0.95827  0.24633  0.00793  1.0000
  C   C498      1.0  0.66770  0.20795  0.17267  1.0000
  C   C499      1.0  0.66231  0.22219  0.20871  1.0000
  H   H607      1.0  0.76277  0.22786  0.50571  1.0000
  C   C500      1.0  0.77875  0.23634  0.49803  1.0000
  H   H608      1.0  0.78819  0.23776  0.53039  1.0000
  H   H609      1.0  0.74865  0.24555  0.43370  1.0000
  Fe  Fe68      1.0  0.67785  0.32193  0.35926  1.0000
  H   H610      1.0  0.78662  0.32347  0.67804  1.0000
  S   S135      1.0  0.79668  0.45037  0.34918  1.0000
  C   C501      1.0  0.68818  0.36512  0.12724  1.0000
  S   S136      1.0  0.75923  0.49469  0.29496  1.0000
  S   S137      1.0  0.74192  0.47806  0.39636  1.0000
  Fe  Fe69      1.0  0.84470  0.30440  0.51852  1.0000
  S   S138      1.0  0.85064  0.28590  0.45313  1.0000
  S   S139      1.0  0.82930  0.28645  0.57923  1.0000
  Fe  Fe70      1.0  0.85159  0.35016  0.47189  1.0000
  S   S140      1.0  0.85825  0.33480  0.40368  1.0000
  S   S141      1.0  0.85142  0.38777  0.48344  1.0000
  Fe  Fe71      1.0  0.82942  0.31266  0.42075  1.0000
  S   S142      1.0  0.80362  0.30427  0.36761  1.0000
  Fe  Fe72      1.0  0.87899  0.30963  0.44190  1.0000
  S   S143      1.0  0.91344  0.29706  0.42186  1.0000
  S   S144      1.0  0.82152  0.32965  0.48648  1.0000
  S   S145      1.0  0.87451  0.32662  0.50990  1.0000
  S   S146      1.0  0.70266  0.32124  0.41634  1.0000
  H   H611      1.0  0.74044  0.47832  0.51472  1.0000
  C   C502      1.0  0.89934  0.27615  0.15979  1.0000
  S   S147      1.0  0.95209  0.29559  0.22049  1.0000
  C   C503      1.0  0.69203  0.31631  0.01805  1.0000
  N   N34       1.0  0.77477  0.25848  0.47644  1.0000
  C   C504      1.0  0.92361  0.29600  0.36545  1.0000
  C   C505      1.0  0.91134  0.30461  0.32896  1.0000
  C   C506      1.0  0.92039  0.30434  0.28492  1.0000
  C   C507      1.0  0.94170  0.29536  0.27678  1.0000
  C   C508      1.0  0.95396  0.28669  0.31320  1.0000
  C   C509      1.0  0.94495  0.28708  0.35733  1.0000
  H   H612      1.0  0.89500  0.31169  0.33481  1.0000
  H   H613      1.0  0.91082  0.31123  0.25707  1.0000
  H   H614      1.0  0.97037  0.27975  0.30746  1.0000
  C   C510      1.0  0.72721  0.29503  0.52186  1.0000
  C   C511      1.0  0.77571  0.31173  0.37845  1.0000
  C   C512      1.0  0.76968  0.32274  0.41844  1.0000
  C   C513      1.0  0.74723  0.32616  0.42910  1.0000
  C   C514      1.0  0.73058  0.31889  0.39953  1.0000
  C   C515      1.0  0.73649  0.30866  0.35858  1.0000
  C   C516      1.0  0.75904  0.30506  0.34811  1.0000
  H   H615      1.0  0.78221  0.32833  0.44166  1.0000
  H   H616      1.0  0.74275  0.33419  0.46069  1.0000
  H   H617      1.0  0.72371  0.30287  0.33569  1.0000
  H   H618      1.0  0.76354  0.29655  0.31704  1.0000
  C   C517      1.0  0.84341  0.27453  0.62645  1.0000
  H   H619      1.0  0.79113  0.28592  0.86666  1.0000
  C   C518      1.0  0.66204  0.27379  0.16053  1.0000
  H   H620      1.0  0.76496  0.42520  0.46601  1.0000
  H   H621      1.0  0.72554  0.31125  0.58677  1.0000
  C   C519      1.0  0.80907  0.43338  0.39153  1.0000
  C   C520      1.0  0.82302  0.44253  0.42455  1.0000
  C   C521      1.0  0.83527  0.42838  0.45372  1.0000
  C   C522      1.0  0.83394  0.40498  0.44968  1.0000
  C   C523      1.0  0.81970  0.39582  0.41720  1.0000
  C   C524      1.0  0.80749  0.40997  0.38801  1.0000
  H   H622      1.0  0.82515  0.46049  0.42614  1.0000
  H   H623      1.0  0.84636  0.43558  0.47857  1.0000
  H   H624      1.0  0.81850  0.37780  0.41378  1.0000
  H   H625      1.0  0.79709  0.40273  0.36195  1.0000
  H   H626      1.0  0.70355  0.36698  0.10680  1.0000
  C   C525      1.0  0.69437  0.43714  0.30935  1.0000
  C   C526      1.0  0.93516  0.36009  0.33867  1.0000
  H   H627      1.0  0.70724  0.43893  0.33473  1.0000
  H   H628      1.0  0.69084  0.40120  0.31923  1.0000
  C   C527      1.0  0.91934  0.35622  0.41327  1.0000
  C   C528      1.0  0.93520  0.35001  0.38129  1.0000
  C   C529      1.0  0.82858  0.30666  0.84783  1.0000
  C   C530      1.0  0.94517  0.25203  0.97002  1.0000
  N   N35       1.0  0.81513  0.29392  0.81457  1.0000
  H   H629      1.0  0.78116  0.28250  0.81040  1.0000
  C   C531      1.0  0.82354  0.27058  0.81317  1.0000
  H   H630      1.0  0.93721  0.27231  0.07468  1.0000
  C   C532      1.0  0.81717  0.30401  0.76884  1.0000
  C   C533      1.0  0.79843  0.31045  0.74216  1.0000
  C   C534      1.0  0.83844  0.30685  0.74893  1.0000
  C   C535      1.0  0.80105  0.31911  0.69833  1.0000
  H   H631      1.0  0.93729  0.25422  0.17335  1.0000
  C   C536      1.0  0.76076  0.27259  0.50641  1.0000
  H   H632      1.0  0.80088  0.47270  0.48665  1.0000
  H   H633      1.0  0.80150  0.44325  0.58797  1.0000
  H   H634      1.0  0.94041  0.28665  0.12765  1.0000
  H   H635      1.0  0.81423  0.26052  0.78780  1.0000
  H   H636      1.0  0.80670  0.27012  0.50062  1.0000
  H   H637      1.0  0.91934  0.29540  0.08905  1.0000
  C   C537      1.0  0.79566  0.43159  0.56279  1.0000
  Fe  Fe73      1.0  0.72723  0.49346  0.33375  1.0000
  H   H638      1.0  0.73258  0.27830  0.45987  1.0000
  H   H639      1.0  0.78159  0.30859  0.75397  1.0000
  C   C538      1.0  0.67514  0.26329  0.12716  1.0000
  H   H640      1.0  0.69091  0.37427  0.15978  1.0000
  H   H641      1.0  0.71759  0.33236  0.14076  1.0000
  H   H642      1.0  0.85798  0.27344  0.01218  1.0000
  C   C539      1.0  0.86835  0.26194  0.03146  1.0000
  C   C540      1.0  0.92791  0.28036  0.10296  1.0000
  C   C541      1.0  0.86607  0.27796  0.63404  1.0000
  H   H643      1.0  0.87566  0.28749  0.60982  1.0000
  S   S148      1.0  0.67439  0.28047  0.21346  1.0000
  C   C542      1.0  0.66815  0.41347  0.26801  1.0000
  C   C543      1.0  0.80402  0.40967  0.56568  1.0000
  H   H644      1.0  0.76908  0.49285  0.55780  1.0000
  H   H645      1.0  0.89117  0.37634  0.42860  1.0000
  C   C544      1.0  0.90351  0.37270  0.40298  1.0000
  C   C545      1.0  0.78316  0.39937  0.49918  1.0000
  H   H646      1.0  0.79415  0.28708  0.45753  1.0000
  H   H647      1.0  0.80472  0.37681  0.53571  1.0000
  C   C546      1.0  0.84083  0.31578  0.70539  1.0000
  H   H648      1.0  0.95458  0.28046  0.38541  1.0000
  H   H649      1.0  0.80675  0.26077  0.44324  1.0000
  H   H650      1.0  0.74256  0.45314  0.48356  1.0000
  C   C547      1.0  0.79648  0.26951  0.46925  1.0000
  H   H651      1.0  0.82416  0.32771  0.64546  1.0000
  C   C548      1.0  0.77510  0.42132  0.49534  1.0000
  H   H652      1.0  0.94707  0.33678  0.38915  1.0000
  C   C549      1.0  0.67114  0.30785  0.00757  1.0000
  C   C550      1.0  0.79769  0.39359  0.53413  1.0000
  C   C551      1.0  0.78256  0.47163  0.48233  1.0000
  H   H653      1.0  0.81593  0.40519  0.59187  1.0000
  H   H654      1.0  0.77623  0.48897  0.47642  1.0000
  C   C552      1.0  0.73519  0.30039  0.56482  1.0000
  H   H655      1.0  0.82194  0.26219  0.84673  1.0000
  H   H656      1.0  0.88728  0.39979  0.27643  1.0000
  H   H657      1.0  0.94713  0.35455  0.31349  1.0000
  H   H658      1.0  0.76977  0.46863  0.59392  1.0000
  H   H659      1.0  0.78449  0.31038  0.83384  1.0000
  C   C553      1.0  0.79193  0.29328  0.83186  1.0000
  C   C554      1.0  0.90312  0.38360  0.36011  1.0000
  H   H660      1.0  0.86358  0.37528  0.32351  1.0000
  C   C555      1.0  0.87626  0.26949  0.67368  1.0000
  H   H661      1.0  0.84141  0.26959  0.80377  1.0000
  S   S149      1.0  0.68661  0.33061  0.28760  1.0000
  C   C556      1.0  0.68653  0.45618  0.28588  1.0000
  C   C557      1.0  0.78072  0.43804  0.52758  1.0000
  H   H662      1.0  0.89041  0.29110  0.14635  1.0000
  S   S150      1.0  0.69549  0.48391  0.29726  1.0000
  C   C558      1.0  0.88870  0.41180  0.30513  1.0000
  C   C559      1.0  0.91942  0.37668  0.32798  1.0000
  H   H663      1.0  0.90511  0.42026  0.30337  1.0000
  H   H664      1.0  0.82655  0.29997  0.88292  1.0000
  C   C560      1.0  0.68503  0.41578  0.30068  1.0000
  N   N36       1.0  0.88564  0.40046  0.34955  1.0000
  H   H665      1.0  0.85961  0.38185  0.38200  1.0000
  C   C561      1.0  0.86378  0.38923  0.34855  1.0000
  N   N37       1.0  0.77208  0.46123  0.52249  1.0000
  H   H666      1.0  0.71145  0.30196  0.51018  1.0000
  H   H667      1.0  0.79480  0.47878  0.56666  1.0000
  S   S151      1.0  0.97998  0.26458  0.02468  1.0000
  H   H668      1.0  0.85003  0.40111  0.33989  1.0000
  H   H669      1.0  0.87570  0.42489  0.29912  1.0000
  H   H670      1.0  0.76197  0.27054  0.41259  1.0000
  H   H671      1.0  0.94818  0.26759  0.95225  1.0000
  Fe  Fe74      1.0  0.77445  0.48096  0.35938  1.0000
  C   C562      1.0  0.83121  0.26209  0.65831  1.0000
  H   H672      1.0  0.92021  0.38350  0.29414  1.0000
  C   C563      1.0  0.82218  0.32171  0.67998  1.0000
  C   C564      1.0  0.77669  0.47583  0.56217  1.0000
  H   H673      1.0  0.84668  0.30562  0.84057  1.0000
  H   H674      1.0  0.85345  0.30141  0.76613  1.0000
  H   H675      1.0  0.71201  0.33378  0.06567  1.0000
  N   N38       1.0  0.91236  0.26431  0.12434  1.0000
  H   H676      1.0  0.77889  0.38699  0.47373  1.0000
  H   H677      1.0  0.69258  0.26015  0.13375  1.0000
  H   H678      1.0  0.85723  0.31720  0.69045  1.0000
  H   H679      1.0  0.90160  0.42630  0.38841  1.0000
  H   H680      1.0  0.88051  0.41153  0.41887  1.0000
  C   C565      1.0  0.86403  0.25723  0.70574  1.0000
  H   H681      1.0  0.87245  0.43136  0.37729  1.0000
  C   C566      1.0  0.88512  0.41815  0.38495  1.0000
  C   C567      1.0  0.89703  0.25529  0.08961  1.0000
  H   H682      1.0  0.89372  0.27255  0.67962  1.0000
  H   H683      1.0  0.88683  0.26485  0.17536  1.0000
  H   H684      1.0  0.91893  0.34762  0.44575  1.0000
  H   H685      1.0  0.69873  0.31184  0.16236  1.0000
  H   H686      1.0  0.82370  0.32469  0.84798  1.0000
  C   C568      1.0  0.73967  0.28128  0.49299  1.0000
  H   H687      1.0  0.77949  0.46192  0.45081  1.0000
  H   H688      1.0  0.73925  0.45193  0.54409  1.0000
  C   C569      1.0  0.70159  0.33018  0.15882  1.0000
  H   H689      1.0  0.66846  0.29884  0.97613  1.0000
  C   C570      1.0  0.66986  0.45359  0.25323  1.0000
  C   C571      1.0  0.74758  0.46103  0.51598  1.0000
  Fe  Fe75      1.0  0.98465  0.28233  0.19091  1.0000
  H   H690      1.0  0.76205  0.29626  0.61243  1.0000
  C   C572      1.0  0.75569  0.29198  0.57918  1.0000
  C   C573      1.0  0.76475  0.25450  0.43109  1.0000
  H   H691      1.0  0.78425  0.27242  0.56296  1.0000
  C   C574      1.0  0.76831  0.27828  0.55053  1.0000
  C   C575      1.0  0.84148  0.25329  0.69756  1.0000
  H   H692      1.0  0.66365  0.46808  0.23497  1.0000
  H   H693      1.0  0.81368  0.25933  0.65270  1.0000
  H   H694      1.0  0.91019  0.28230  0.18770  1.0000
  H   H695      1.0  0.70420  0.33699  0.19355  1.0000
  H   H696      1.0  0.88358  0.28791  0.06946  1.0000
  C   C576      1.0  0.88310  0.27001  0.06421  1.0000
  S   S152      1.0  0.99115  0.30023  0.12529  1.0000
  N   N39       1.0  0.68260  0.34129  0.13537  1.0000
  C   C577      1.0  0.69555  0.32744  0.05915  1.0000
  H   H697      1.0  0.70560  0.31402  0.99431  1.0000
  C   C578      1.0  0.66587  0.25676  0.08536  1.0000
  C   C579      1.0  0.66336  0.34082  0.16684  1.0000
  C   C580      1.0  0.67824  0.33005  0.09148  1.0000
  H   H698      1.0  0.67446  0.37391  0.10889  1.0000
  H   H699      1.0  0.66733  0.34894  0.19978  1.0000
  H   H700      1.0  0.67626  0.24910  0.05975  1.0000
  H   H701      1.0  0.66535  0.44939  0.39083  1.0000
  Fe  Fe76      1.0  0.66179  0.30410  0.26868  1.0000
  C   C581      1.0  0.72836  0.56027  0.14182  1.0000
  S   S153      1.0  0.94926  0.70979  0.15747  1.0000
  H   H702      1.0  0.90711  0.68893  0.17302  1.0000
  Fe  Fe77      1.0  0.72066  0.65117  0.70704  1.0000
  S   S154      1.0  0.73361  0.65198  0.63510  1.0000
  S   S155      1.0  0.74022  0.63567  0.76569  1.0000
  S   S156      1.0  0.68413  0.67120  0.60628  1.0000
  Fe  Fe78      1.0  0.70067  0.63740  0.61534  1.0000
  S   S157      1.0  0.69322  0.61277  0.55795  1.0000
  Fe  Fe79      1.0  0.71620  0.68550  0.63128  1.0000
  S   S158      1.0  0.72889  0.71482  0.59056  1.0000
  S   S159      1.0  0.68865  0.63427  0.68740  1.0000
  S   S160      1.0  0.70596  0.68587  0.70452  1.0000
  Fe  Fe80      1.0  0.83806  0.66954  0.04595  1.0000
  S   S161      1.0  0.82764  0.65834  0.11519  1.0000
  S   S162      1.0  0.87219  0.68066  0.02278  1.0000
  Fe  Fe81      1.0  0.79012  0.66921  0.00853  1.0000
  S   S163      1.0  0.77574  0.65827  0.07559  1.0000
  S   S164      1.0  0.76942  0.68299  0.94967  1.0000
  Fe  Fe82      1.0  0.79950  0.68280  0.10636  1.0000
  S   S165      1.0  0.79250  0.70623  0.16394  1.0000
  Fe  Fe83      1.0  0.80488  0.63442  0.07923  1.0000
  S   S166      1.0  0.80193  0.59753  0.09876  1.0000
  S   S167      1.0  0.81155  0.69569  0.03995  1.0000
  S   S168      1.0  0.81772  0.64356  0.00945  1.0000
  Fe  Fe84      1.0  0.74836  0.51362  0.41927  1.0000
  S   S169      1.0  0.73057  0.52872  0.35992  1.0000
  S   S170      1.0  0.74527  0.52465  0.49312  1.0000
  Fe  Fe85      1.0  0.76388  0.52884  0.32534  1.0000
  S   S171      1.0  0.77190  0.56284  0.29385  1.0000
  S   S172      1.0  0.78215  0.51532  0.38656  1.0000
  C   C582      1.0  0.77989  0.57175  0.23887  1.0000
  C   C583      1.0  0.78075  0.59488  0.23000  1.0000
  C   C584      1.0  0.78703  0.60299  0.18706  1.0000
  C   C585      1.0  0.79285  0.58801  0.15262  1.0000
  C   C586      1.0  0.79205  0.56484  0.16144  1.0000
  C   C587      1.0  0.78556  0.55671  0.20434  1.0000
  H   H703      1.0  0.77634  0.60664  0.25647  1.0000
  H   H704      1.0  0.78736  0.62085  0.18069  1.0000
  H   H705      1.0  0.79655  0.55313  0.13498  1.0000
  H   H706      1.0  0.78518  0.53887  0.21081  1.0000
  C   C588      1.0  0.70931  0.58932  0.53964  1.0000
  C   C589      1.0  0.70541  0.58048  0.49617  1.0000
  C   C590      1.0  0.71682  0.56117  0.48097  1.0000
  C   C591      1.0  0.73193  0.55012  0.50954  1.0000
  C   C592      1.0  0.73583  0.55893  0.55307  1.0000
  C   C593      1.0  0.72479  0.57857  0.56791  1.0000
  H   H707      1.0  0.69346  0.58861  0.47405  1.0000
  H   H708      1.0  0.71354  0.55459  0.44752  1.0000
  H   H709      1.0  0.74745  0.55053  0.57552  1.0000
  H   H710      1.0  0.72788  0.58507  0.60153  1.0000
  C   C594      1.0  0.74938  0.64947  0.81544  1.0000
  C   C595      1.0  0.74495  0.67218  0.82307  1.0000
  C   C596      1.0  0.75136  0.68219  0.86426  1.0000
  C   C597      1.0  0.76257  0.66971  0.89787  1.0000
  C   C598      1.0  0.76759  0.64717  0.88974  1.0000
  C   C599      1.0  0.76086  0.63708  0.84881  1.0000
  H   H711      1.0  0.73649  0.68196  0.79735  1.0000
  H   H712      1.0  0.74744  0.69966  0.87028  1.0000
  H   H713      1.0  0.77623  0.63739  0.91528  1.0000
  H   H714      1.0  0.76443  0.61951  0.84307  1.0000
  H   H715      1.0  0.72347  0.72996  0.68354  1.0000
  Fe  Fe86      1.0  0.97399  0.73736  0.14169  1.0000
  N   N40       1.0  0.83084  0.70500  0.89678  1.0000
  C   C600      1.0  0.71152  0.67096  0.96399  1.0000
  C   C601      1.0  0.88568  0.74733  0.16212  1.0000
  H   H716      1.0  0.81805  0.69193  0.83341  1.0000
  C   C602      1.0  0.73230  0.60417  0.17305  1.0000
  H   H717      1.0  0.67637  0.63888  0.81935  1.0000
  H   H718      1.0  0.72130  0.67080  0.99494  1.0000
  C   C603      1.0  0.92698  0.70377  0.12031  1.0000
  C   C604      1.0  0.92810  0.70875  0.07402  1.0000
  C   C605      1.0  0.91092  0.70203  0.04469  1.0000
  C   C606      1.0  0.89222  0.69081  0.06149  1.0000
  C   C607      1.0  0.89056  0.68681  0.10813  1.0000
  C   C608      1.0  0.90807  0.69289  0.13727  1.0000
  H   H719      1.0  0.94264  0.71694  0.06051  1.0000
  H   H720      1.0  0.91238  0.70515  0.00867  1.0000
  H   H721      1.0  0.87629  0.67809  0.12145  1.0000
  N   N41       1.0  0.86003  0.60242  0.19422  1.0000
  C   C609      1.0  0.87167  0.59947  0.23835  1.0000
  C   C610      1.0  0.84047  0.61711  0.20208  1.0000
  C   C611      1.0  0.85215  0.57999  0.17979  1.0000
  C   C612      1.0  0.87408  0.61252  0.15844  1.0000
  C   C613      1.0  0.89546  0.62158  0.16741  1.0000
  C   C614      1.0  0.86595  0.61465  0.11335  1.0000
  C   C615      1.0  0.90784  0.63186  0.13312  1.0000
  C   C616      1.0  0.87846  0.62497  0.07942  1.0000
  C   C617      1.0  0.89938  0.63348  0.08924  1.0000
  H   H722      1.0  0.86089  0.59108  0.26389  1.0000
  H   H723      1.0  0.88689  0.58891  0.23458  1.0000
  H   H724      1.0  0.87630  0.61588  0.25348  1.0000
  H   H725      1.0  0.82989  0.61853  0.17132  1.0000
  H   H726      1.0  0.84555  0.63441  0.21140  1.0000
  H   H727      1.0  0.82962  0.61056  0.22961  1.0000
  H   H728      1.0  0.86636  0.56869  0.17150  1.0000
  H   H729      1.0  0.84193  0.57180  0.20653  1.0000
  H   H730      1.0  0.84120  0.58079  0.14944  1.0000
  H   H731      1.0  0.90292  0.62128  0.20070  1.0000
  H   H732      1.0  0.84954  0.60893  0.10414  1.0000
  H   H733      1.0  0.92390  0.63915  0.14073  1.0000
  H   H734      1.0  0.87166  0.62696  0.04552  1.0000
  H   H735      1.0  0.90876  0.64201  0.06306  1.0000
  C   C618      1.0  0.69199  0.53789  0.19519  1.0000
  H   H736      1.0  0.85541  0.69758  0.84532  1.0000
  H   H737      1.0  0.69991  0.54078  0.28355  1.0000
  C   C619      1.0  0.78645  0.73371  0.14623  1.0000
  H   H738      1.0  0.67925  0.55128  0.19000  1.0000
  H   H739      1.0  0.84498  0.68185  0.94529  1.0000
  C   C620      1.0  0.73907  0.59879  0.12925  1.0000
  H   H740      1.0  0.69356  0.56806  0.26192  1.0000
  H   H741      1.0  0.67545  0.71038  0.83294  1.0000
  C   C621      1.0  0.78066  0.73845  0.10122  1.0000
  H   H742      1.0  0.83487  0.66903  0.89438  1.0000
  H   H743      1.0  0.67300  0.69664  0.77988  1.0000
  Fe  Fe87      1.0  0.67487  0.66925  0.67947  1.0000
  C   C622      1.0  0.70219  0.65421  0.89173  1.0000
  H   H744      1.0  0.72149  0.56118  0.28079  1.0000
  H   H745      1.0  0.73326  0.52070  0.18809  1.0000
  C   C623      1.0  0.72150  0.56508  0.18687  1.0000
  H   H746      1.0  0.72731  0.54352  0.12820  1.0000
  H   H747      1.0  0.72519  0.63988  0.94007  1.0000
  H   H748      1.0  0.85764  0.72931  0.10123  1.0000
  C   C624      1.0  0.68542  0.68959  0.91376  1.0000
  H   H749      1.0  0.67461  0.70386  0.90803  1.0000
  H   H750      1.0  0.69531  0.52998  0.16177  1.0000
  C   C625      1.0  0.83875  0.74485  0.99648  1.0000
  H   H751      1.0  0.84998  0.72183  0.15813  1.0000
  C   C626      1.0  0.72896  0.52871  0.22086  1.0000
  H   H752      1.0  0.74465  0.53500  0.23606  1.0000
  H   H753      1.0  0.71967  0.59288  0.23574  1.0000
  H   H754      1.0  0.86688  0.70627  0.89758  1.0000
  H   H755      1.0  0.73443  0.62113  0.18541  1.0000
  H   H756      1.0  0.70547  0.64055  0.86863  1.0000
  H   H757      1.0  0.77848  0.72498  0.07726  1.0000
  H   H758      1.0  0.74650  0.61148  0.10779  1.0000
  C   C627      1.0  0.73717  0.57688  0.11370  1.0000
  N   N42       1.0  0.71241  0.54710  0.21605  1.0000
  N   N43       1.0  0.67562  0.67405  0.83704  1.0000
  H   H759      1.0  0.85884  0.72021  0.96430  1.0000
  H   H760      1.0  0.67171  0.65726  0.77268  1.0000
  C   C628      1.0  0.82621  0.72234  0.93156  1.0000
  C   C629      1.0  0.84280  0.72847  0.96353  1.0000
  C   C630      1.0  0.68111  0.69540  0.81382  1.0000
  C   C631      1.0  0.70659  0.55475  0.26250  1.0000
  C   C632      1.0  0.72379  0.58763  0.20175  1.0000
  H   H761      1.0  0.81576  0.67910  0.93640  1.0000
  C   C633      1.0  0.68779  0.67246  0.88067  1.0000
  C   C634      1.0  0.85255  0.70914  0.87438  1.0000
  C   C635      1.0  0.83172  0.68277  0.91907  1.0000
  H   H762      1.0  0.69894  0.65522  0.79639  1.0000
  H   H763      1.0  0.83256  0.74012  0.12612  1.0000
  C   C636      1.0  0.81367  0.70417  0.86049  1.0000
  C   C637      1.0  0.68095  0.65550  0.80521  1.0000
  C   C638      1.0  0.71370  0.65354  0.93295  1.0000
  H   H764      1.0  0.74305  0.57270  0.07999  1.0000
  H   H765      1.0  0.79739  0.69843  0.87379  1.0000
  H   H766      1.0  0.69581  0.70248  0.97876  1.0000
  H   H767      1.0  0.69936  0.69689  0.80872  1.0000
  C   C639      1.0  0.72463  0.74443  0.66168  1.0000
  C   C640      1.0  0.72760  0.74163  0.61502  1.0000
  C   C641      1.0  0.69730  0.68889  0.95456  1.0000
  H   H768      1.0  0.89441  0.74046  0.13185  1.0000
  H   H769      1.0  0.72267  0.51507  0.24315  1.0000
  H   H770      1.0  0.68450  0.52459  0.21695  1.0000
  H   H771      1.0  0.88544  0.73355  0.18763  1.0000
  C   C642      1.0  0.85025  0.73589  0.13322  1.0000
  H   H772      1.0  0.85342  0.72664  0.86136  1.0000
  H   H773      1.0  0.81127  0.72085  0.84417  1.0000
  C   C643      1.0  0.80501  0.73278  0.93629  1.0000
  H   H774      1.0  0.79094  0.72832  0.91549  1.0000
  H   H775      1.0  0.79237  0.74763  0.21240  1.0000
  C   C644      1.0  0.80111  0.74901  0.96954  1.0000
  Fe  Fe88      1.0  0.97262  0.78758  0.12959  1.0000
  C   C645      1.0  0.70714  0.99693  0.69321  1.0000
  S   S173      1.0  0.94852  0.81633  0.11511  1.0000
  Fe  Fe89      1.0  0.71937  0.87087  0.54961  1.0000
  S   S174      1.0  0.73037  0.87241  0.62301  1.0000
  S   S175      1.0  0.74688  0.87851  0.49843  1.0000
  Fe  Fe90      1.0  0.71197  0.84011  0.63103  1.0000
  S   S176      1.0  0.72321  0.81179  0.67638  1.0000
  Fe  Fe91      1.0  0.69759  0.88921  0.63636  1.0000
  S   S177      1.0  0.69147  0.91692  0.68854  1.0000
  S   S178      1.0  0.70362  0.83705  0.55737  1.0000
  S   S179      1.0  0.68740  0.88997  0.56233  1.0000
  Fe  Fe92      1.0  0.82866  0.84660  0.20482  1.0000
  S   S180      1.0  0.82117  0.85098  0.13091  1.0000
  S   S181      1.0  0.86005  0.82957  0.23144  1.0000
  Fe  Fe93      1.0  0.78100  0.86004  0.23371  1.0000
  S   S182      1.0  0.77022  0.86467  0.16080  1.0000
  S   S183      1.0  0.75235  0.86350  0.28420  1.0000
  Fe  Fe94      1.0  0.78949  0.83306  0.14694  1.0000
  S   S184      1.0  0.77785  0.80623  0.09864  1.0000
  Fe  Fe95      1.0  0.80260  0.88233  0.15132  1.0000
  S   S185      1.0  0.80738  0.91517  0.11260  1.0000
  S   S186      1.0  0.79776  0.82708  0.21998  1.0000
  S   S187      1.0  0.81269  0.87954  0.22520  1.0000
  H   H776      1.0  0.74177  0.82898  0.45950  1.0000
  C   C646      1.0  0.74361  0.92942  0.35073  1.0000
  S   S188      1.0  0.73765  0.97499  0.00106  1.0000
  N   N44       1.0  0.86291  0.75535  0.15059  1.0000
  H   H777      1.0  0.68161  0.95961  0.62371  1.0000
  H   H778      1.0  0.89859  0.77605  0.10448  1.0000
  C   C647      1.0  0.78776  0.93067  0.07979  1.0000
  C   C648      1.0  0.76510  0.92553  0.07928  1.0000
  C   C649      1.0  0.75000  0.93923  0.05496  1.0000
  C   C650      1.0  0.75740  0.95794  0.03020  1.0000
  C   C651      1.0  0.78010  0.96271  0.02973  1.0000
  C   C652      1.0  0.79513  0.94927  0.05473  1.0000
  H   H779      1.0  0.75916  0.91116  0.09794  1.0000
  H   H780      1.0  0.73247  0.93535  0.05547  1.0000
  H   H781      1.0  0.78606  0.97705  0.01096  1.0000
  H   H782      1.0  0.81262  0.95341  0.05489  1.0000
  C   C653      1.0  0.77990  0.77836  0.11809  1.0000
  C   C654      1.0  0.78501  0.77347  0.16332  1.0000
  C   C655      1.0  0.77726  0.76074  0.08729  1.0000
  H   H783      1.0  0.78639  0.78672  0.18764  1.0000
  H   H784      1.0  0.77273  0.76436  0.05255  1.0000
  C   C656      1.0  0.71170  0.93351  0.71661  1.0000
  C   C657      1.0  0.73346  0.93548  0.70048  1.0000
  C   C658      1.0  0.74855  0.94994  0.72227  1.0000
  C   C659      1.0  0.74218  0.96235  0.76070  1.0000
  C   C660      1.0  0.72063  0.95988  0.77757  1.0000
  C   C661      1.0  0.70542  0.94576  0.75533  1.0000
  H   H785      1.0  0.73853  0.92620  0.67070  1.0000
  H   H786      1.0  0.76520  0.95164  0.70900  1.0000
  H   H787      1.0  0.71563  0.96898  0.80746  1.0000
  H   H788      1.0  0.68865  0.94433  0.76808  1.0000
  C   C662      1.0  0.72531  0.78496  0.65226  1.0000
  C   C663      1.0  0.72362  0.76605  0.68028  1.0000
  H   H789      1.0  0.73474  0.88223  0.73513  1.0000
  C   C664      1.0  0.72830  0.78218  0.60558  1.0000
  H   H790      1.0  0.72145  0.76815  0.71645  1.0000
  H   H791      1.0  0.72983  0.79670  0.58397  1.0000
  C   C665      1.0  0.74798  0.87436  0.43879  1.0000
  C   C666      1.0  0.76842  0.87689  0.41626  1.0000
  C   C667      1.0  0.77020  0.87340  0.36909  1.0000
  C   C668      1.0  0.75145  0.86749  0.34386  1.0000
  C   C669      1.0  0.73099  0.86510  0.36634  1.0000
  C   C670      1.0  0.72925  0.86840  0.41355  1.0000
  H   H792      1.0  0.78302  0.88151  0.43545  1.0000
  H   H793      1.0  0.78604  0.87536  0.35228  1.0000
  H   H794      1.0  0.71636  0.86063  0.34707  1.0000
  H   H795      1.0  0.71340  0.86646  0.43033  1.0000
  C   C671      1.0  0.92362  0.81928  0.14688  1.0000
  C   C672      1.0  0.91979  0.80652  0.18592  1.0000
  C   C673      1.0  0.90019  0.80977  0.21122  1.0000
  C   C674      1.0  0.88397  0.82541  0.19728  1.0000
  C   C675      1.0  0.88753  0.83778  0.15762  1.0000
  C   C676      1.0  0.90741  0.83493  0.13291  1.0000
  H   H796      1.0  0.93215  0.79454  0.19730  1.0000
  H   H797      1.0  0.89769  0.80027  0.24205  1.0000
  H   H798      1.0  0.87523  0.84994  0.14662  1.0000
  H   H799      1.0  0.91019  0.84492  0.10286  1.0000
  C   C677      1.0  0.84123  0.80126  0.07208  1.0000
  C   C678      1.0  0.86256  0.77360  0.11646  1.0000
  N   N45       1.0  0.76983  0.93868  0.23395  1.0000
  C   C679      1.0  0.76286  0.91689  0.21451  1.0000
  C   C680      1.0  0.76101  0.95660  0.20379  1.0000
  C   C681      1.0  0.79449  0.93924  0.23292  1.0000
  C   C682      1.0  0.76205  0.94225  0.28107  1.0000
  C   C683      1.0  0.74948  0.92608  0.30536  1.0000
  C   C684      1.0  0.76766  0.96215  0.30468  1.0000
  C   C685      1.0  0.72949  0.76055  0.58703  1.0000
  C   C686      1.0  0.76155  0.96540  0.34999  1.0000
  C   C687      1.0  0.81807  0.81122  0.39105  1.0000
  H   H800      1.0  0.74445  0.91550  0.21248  1.0000
  C   C688      1.0  0.68343  0.97278  0.64874  1.0000
  H   H801      1.0  0.76935  0.90257  0.23490  1.0000
  H   H802      1.0  0.74251  0.95708  0.20452  1.0000
  H   H803      1.0  0.76617  0.95391  0.16782  1.0000
  H   H804      1.0  0.76707  0.97347  0.21335  1.0000
  H   H805      1.0  0.80174  0.92667  0.25678  1.0000
  H   H806      1.0  0.80111  0.93541  0.19850  1.0000
  H   H807      1.0  0.80119  0.95590  0.24215  1.0000
  H   H808      1.0  0.79601  0.82257  0.51948  1.0000
  C   C689      1.0  0.66490  0.98093  0.67181  1.0000
  H   H809      1.0  0.86001  0.82351  0.02979  1.0000
  H   H810      1.0  0.76894  0.77278  0.47109  1.0000
  H   H811      1.0  0.97264  0.80312  0.03657  1.0000
  N   N46       1.0  0.77048  0.80871  0.47598  1.0000
  C   C690      1.0  0.74605  0.81179  0.47140  1.0000
  C   C691      1.0  0.77444  0.78601  0.49516  1.0000
  C   C692      1.0  0.77856  0.82566  0.50879  1.0000
  C   C693      1.0  0.78264  0.81111  0.43256  1.0000
  H   H812      1.0  0.81630  0.81808  0.31940  1.0000
  C   C694      1.0  0.66881  0.79486  0.62709  1.0000
  H   H813      1.0  0.75413  0.81868  0.38798  1.0000
  H   H814      1.0  0.81551  0.80524  0.46196  1.0000
  H   H815      1.0  0.73740  0.80964  0.50442  1.0000
  C   C695      1.0  0.78824  0.75123  0.17739  1.0000
  H   H816      1.0  0.77539  0.82233  0.31900  1.0000
  H   H817      1.0  0.83604  0.80956  0.39097  1.0000
  H   H818      1.0  0.76526  0.78354  0.52759  1.0000
  S   S189      1.0  0.76142  0.98126  0.78553  1.0000
  C   C696      1.0  0.66483  0.75502  0.63501  1.0000
  H   H819      1.0  0.77783  0.84279  0.49374  1.0000
  H   H820      1.0  0.76836  0.82608  0.54032  1.0000
  H   H821      1.0  0.89592  0.76100  0.17686  1.0000
  C   C697      1.0  0.88215  0.78219  0.09604  1.0000
  H   H822      1.0  0.97408  0.86031  0.99167  1.0000
  H   H823      1.0  0.95807  0.83938  0.01967  1.0000
  H   H824      1.0  0.73874  0.79938  0.44765  1.0000
  C   C698      1.0  0.85239  0.76338  0.19314  1.0000
  C   C699      1.0  0.84208  0.78357  0.10312  1.0000
  N   N47       1.0  0.74786  0.92315  0.89640  1.0000
  C   C700      1.0  0.72784  0.92434  0.92578  1.0000
  C   C701      1.0  0.76548  0.91115  0.92233  1.0000
  C   C702      1.0  0.75524  0.94643  0.88796  1.0000
  C   C703      1.0  0.74390  0.91174  0.85253  1.0000
  C   C704      1.0  0.76155  0.90889  0.82107  1.0000
  C   C705      1.0  0.72272  0.90348  0.83938  1.0000
  C   C706      1.0  0.75828  0.89817  0.77947  1.0000
  C   C707      1.0  0.71965  0.89281  0.79762  1.0000
  C   C708      1.0  0.73739  0.89007  0.76786  1.0000
  H   H825      1.0  0.72151  0.90735  0.93409  1.0000
  H   H826      1.0  0.73148  0.93259  0.95879  1.0000
  H   H827      1.0  0.71435  0.93450  0.90977  1.0000
  H   H828      1.0  0.76099  0.89328  0.92787  1.0000
  H   H829      1.0  0.76825  0.91889  0.95631  1.0000
  H   H830      1.0  0.78181  0.91148  0.90484  1.0000
  H   H831      1.0  0.74270  0.95589  0.86773  1.0000
  H   H832      1.0  0.75790  0.95568  0.92025  1.0000
  H   H833      1.0  0.77113  0.94722  0.86889  1.0000
  H   H834      1.0  0.77795  0.91528  0.82809  1.0000
  H   H835      1.0  0.70814  0.90529  0.86032  1.0000
  H   H836      1.0  0.77187  0.89655  0.75560  1.0000
  H   H837      1.0  0.70329  0.88712  0.78750  1.0000
  H   H838      1.0  0.82533  0.80893  0.06354  1.0000
  C   C709      1.0  0.98504  0.80514  0.00895  1.0000
  C   C710      1.0  0.86071  0.80944  0.05304  1.0000
  H   H839      1.0  0.79224  0.78279  0.50297  1.0000
  H   H840      1.0  0.96377  0.83692  0.95989  1.0000
  H   H841      1.0  0.73453  0.91655  0.36886  1.0000
  H   H842      1.0  0.68393  0.79324  0.60575  1.0000
  H   H843      1.0  0.82653  0.77802  0.11727  1.0000
  C   C711      1.0  0.74969  0.94897  0.37306  1.0000
  H   H844      1.0  0.74418  0.91051  0.29041  1.0000
  H   H845      1.0  0.76933  0.91453  0.17947  1.0000
  H   H846      1.0  0.76626  0.98060  0.36752  1.0000
  S   S190      1.0  0.67983  0.85673  0.64992  1.0000
  H   H847      1.0  0.66877  0.75556  0.67191  1.0000
  H   H848      1.0  0.67484  0.79586  0.66277  1.0000
  C   C712      1.0  0.70443  0.98098  0.65901  1.0000
  C   C713      1.0  0.88110  0.79980  0.06472  1.0000
  Fe  Fe96      1.0  0.67231  0.85593  0.57566  1.0000
  C   C714      1.0  0.77185  0.81605  0.39068  1.0000
  S   S191      1.0  0.97353  0.76586  0.19162  1.0000
  C   C715      1.0  0.78395  0.81831  0.35046  1.0000
  H   H849      1.0  0.97713  0.79832  0.97783  1.0000
  C   C716      1.0  0.97101  0.84198  0.99307  1.0000
  H   H850      1.0  0.74527  0.95129  0.40839  1.0000
  S   S192      1.0  0.97184  0.75910  0.07987  1.0000
  H   H851      1.0  0.77711  0.97521  0.28840  1.0000
  C   C717      1.0  0.66734  0.99713  0.70566  1.0000
  H   H852      1.0  0.86045  0.77902  0.20546  1.0000
  C   C718      1.0  0.80615  0.80877  0.43145  1.0000
  C   C719      1.0  0.80699  0.81599  0.35063  1.0000
  H   H853      1.0  0.78474  0.75659  0.97278  1.0000
  H   H854      1.0  0.73174  0.75839  0.55090  1.0000
  H   H855      1.0  0.83442  0.76728  0.18878  1.0000
  N   N48       1.0  0.99151  0.82895  0.00321  1.0000
  H   H856      1.0  0.68745  0.99601  0.80600  1.0000
  C   C720      1.0  0.81796  0.75516  0.99933  1.0000
  H   H857      1.0  0.98916  0.83308  0.07591  1.0000
  H   H858      1.0  0.89632  0.80649  0.05067  1.0000
  H   H859      1.0  0.81467  0.76758  0.02529  1.0000
  H   H860      1.0  0.71885  0.97414  0.64169  1.0000
  H   H861      1.0  0.68079  0.75245  0.61660  1.0000
  H   H862      1.0  0.66465  0.77346  0.55080  1.0000
  H   H863      1.0  0.85347  0.75065  0.22069  1.0000
  H   H864      1.0  0.85166  0.74923  0.02049  1.0000
