data_image0
_chemical_formula_structural       H7C2HCH3C4N2C2H2CHCHCH4CSCFeSFeS2FeHFeCS2FeSFeSFeHFeSHC6H5CHCSHC3NC9H3CH8CH2SH2S2HSH2CFeSFeS2FeSFeS3FeSFeSHFeSFeCS2HSC6H4CH4CHC2HSH8CNC9H9C2HC2H6NH2CH2FeSCFeSHFeSFeS3H2CH2C6HCH2C6H4C3H6CHSCHC2H2NC5H9SCHC2H5C3SCHSCH2C5H2C5H3C2H3CHCH2CNCHC4HC2HC2NH5CHCHCHCH5CH4C3HCHSH3FeS2FeS2FeSFeS3HSCHC7H4C6H4C3HC4H2NC9H16C2H2CHCH2C2SC2H5NH2C6H2CHFeS2FeS2FeSFeS3CHC6H2CHC6H4C2HCH4N2HCHSHCH4NC2H2C3HCHCH2C3H3C2NHC2H4C2HCH5C2HNH2C4H2CHCH3CH3CH4CH2C2H2CHSHC3HCHCHCH3C2HC2HCNH2CH5CH2CH2CHC2HC2SFeSCFeS2FeSFeS3HC5H3C10H4CH3C2H2CHC2H2CNHC4H2C2H4CNCH7C2H4C3H5C4H3C2H3SC3HCHC3HC2FeSHFeSFeSFeS3FeSFeSHFeSFeSCSC6H5C2H3CNH2C2HCSH2CH5C2HNHSCH3CH4CHSH2C3H2CH2CH3FeS2FeHSFe2S2FeS2FeSHFeHFeCS2H2CHC6H4CH7SH2C3HCH3C2NC3HNSCHC2SCH2CH6C2HCH2NCH3CH6CH2NCHSH2CH4C5HC3
_chemical_formula_sum              "H432 C360 N24 S96 Fe48"
_cell_length_a       30.3647
_cell_length_b       30.684
_cell_length_c       46.9032
_cell_angle_alpha    90.8563
_cell_angle_beta     89.0785
_cell_angle_gamma    90.082

_space_group_name_H-M_alt    "P 1"
_space_group_IT_number       1

loop_
  _space_group_symop_operation_xyz
  'x, y, z'

loop_
  _atom_site_type_symbol
  _atom_site_label
  _atom_site_symmetry_multiplicity
  _atom_site_fract_x
  _atom_site_fract_y
  _atom_site_fract_z
  _atom_site_occupancy
  H   H1        1.0  0.27721  0.14310  0.32994  1.0000
  H   H2        1.0  0.18312  0.07454  0.31033  1.0000
  H   H3        1.0  0.39536  0.08579  0.27732  1.0000
  H   H4        1.0  0.21949  0.14046  0.32527  1.0000
  H   H5        1.0  0.48219  0.25128  0.30208  1.0000
  H   H6        1.0  0.52132  0.29307  0.19841  1.0000
  H   H7        1.0  0.22232  0.45311  0.29249  1.0000
  C   C1        1.0  0.52555  0.35239  0.26167  1.0000
  C   C2        1.0  0.29451  0.05976  0.30691  1.0000
  H   H8        1.0  0.45804  0.06828  0.02660  1.0000
  C   C3        1.0  0.25133  0.12733  0.31672  1.0000
  H   H9        1.0  0.26304  0.51948  0.27661  1.0000
  H   H10       1.0  0.31424  0.49121  0.27382  1.0000
  H   H11       1.0  0.27357  0.42509  0.28528  1.0000
  C   C4        1.0  0.36858  0.06577  0.28534  1.0000
  C   C5        1.0  0.47886  0.04657  0.01399  1.0000
  C   C6        1.0  0.25399  0.44293  0.30199  1.0000
  C   C7        1.0  0.33021  0.08535  0.29644  1.0000
  N   N1        1.0  0.27836  0.48108  0.31344  1.0000
  N   N2        1.0  0.25302  0.07901  0.31837  1.0000
  C   C8        1.0  0.49510  0.35715  0.28420  1.0000
  C   C9        1.0  0.49385  0.27935  0.29038  1.0000
  H   H12       1.0  0.48475  0.38940  0.29132  1.0000
  H   H13       1.0  0.25457  0.13854  0.29434  1.0000
  C   C10       1.0  0.21514  0.06144  0.30215  1.0000
  H   H14       1.0  0.21810  0.06937  0.27914  1.0000
  C   C11       1.0  0.47953  0.32078  0.29863  1.0000
  H   H15       1.0  0.32929  0.12052  0.29657  1.0000
  C   C12       1.0  0.29187  0.50881  0.28908  1.0000
  H   H16       1.0  0.34289  0.45116  0.31089  1.0000
  H   H17       1.0  0.21214  0.02549  0.30351  1.0000
  H   H18       1.0  0.45733  0.32485  0.31684  1.0000
  H   H19       1.0  0.24603  0.41887  0.31890  1.0000
  C   C13       1.0  0.31920  0.46529  0.32683  1.0000
  S   S1        1.0  0.02649  0.21129  0.32550  1.0000
  C   C14       1.0  0.52378  0.27410  0.26762  1.0000
  Fe  Fe1       1.0  0.36427  0.39773  0.38770  1.0000
  S   S2        1.0  0.29485  0.37031  0.38066  1.0000
  Fe  Fe2       1.0  0.42571  0.44787  0.42904  1.0000
  S   S3        1.0  0.47649  0.46095  0.39486  1.0000
  S   S4        1.0  0.42843  0.47255  0.47516  1.0000
  Fe  Fe3       1.0  0.41855  0.47665  0.36742  1.0000
  H   H20       1.0  0.07021  0.02825  0.45658  1.0000
  Fe  Fe4       1.0  0.46456  0.39162  0.38089  1.0000
  C   C15       1.0  0.13102  0.17093  0.50629  1.0000
  S   S5        1.0  0.36825  0.46811  0.40234  1.0000
  S   S6        1.0  0.41755  0.37669  0.41729  1.0000
  Fe  Fe5       1.0  0.05941  0.16446  0.35558  1.0000
  S   S7        1.0  0.08913  0.18457  0.39737  1.0000
  Fe  Fe6       1.0  0.09934  0.07319  0.35761  1.0000
  S   S8        1.0  0.13206  0.08586  0.39962  1.0000
  Fe  Fe7       1.0  0.06800  0.11799  0.41270  1.0000
  H   H21       1.0  0.18634  0.13778  0.46518  1.0000
  Fe  Fe8       1.0  0.15081  0.15141  0.38149  1.0000
  S   S9        1.0  0.22192  0.17455  0.38693  1.0000
  H   H22       1.0  0.16475  0.16979  0.43713  1.0000
  C   C16       1.0  0.27562  0.31549  0.38245  1.0000
  C   C17       1.0  0.30354  0.28054  0.38818  1.0000
  C   C18       1.0  0.28661  0.23767  0.38934  1.0000
  C   C19       1.0  0.24167  0.22914  0.38479  1.0000
  C   C20       1.0  0.21375  0.26407  0.37909  1.0000
  C   C21       1.0  0.23066  0.30691  0.37794  1.0000
  H   H23       1.0  0.33815  0.28654  0.39177  1.0000
  H   H24       1.0  0.30852  0.21099  0.39393  1.0000
  H   H25       1.0  0.17912  0.25814  0.37552  1.0000
  H   H26       1.0  0.20870  0.33361  0.37352  1.0000
  H   H27       1.0  0.10148  0.15004  0.50231  1.0000
  C   C22       1.0  0.25028  0.50418  0.33490  1.0000
  H   H28       1.0  0.43991  0.50187  0.53306  1.0000
  C   C23       1.0  0.04839  0.03226  0.47490  1.0000
  S   S10       1.0  0.41088  0.40807  0.35053  1.0000
  H   H29       1.0  0.07967  0.19879  0.46588  1.0000
  C   C24       1.0  0.46908  0.51136  0.52114  1.0000
  C   C25       1.0  0.24742  0.06757  0.34883  1.0000
  C   C26       1.0  0.23783  0.48343  0.36068  1.0000
  N   N3        1.0  0.14682  0.19218  0.47974  1.0000
  C   C27       1.0  0.10998  0.21875  0.46902  1.0000
  C   C28       1.0  0.15722  0.15701  0.45867  1.0000
  C   C29       1.0  0.51078  0.51258  0.47685  1.0000
  C   C30       1.0  0.18606  0.22026  0.48360  1.0000
  C   C31       1.0  0.20517  0.24206  0.45991  1.0000
  C   C32       1.0  0.20628  0.22704  0.51047  1.0000
  C   C33       1.0  0.24203  0.26896  0.46288  1.0000
  C   C34       1.0  0.24327  0.25403  0.51318  1.0000
  C   C35       1.0  0.26107  0.27493  0.48945  1.0000
  H   H30       1.0  0.11786  0.23358  0.44810  1.0000
  H   H31       1.0  0.51440  0.50371  0.45458  1.0000
  H   H32       1.0  0.10150  0.24580  0.48418  1.0000
  C   C36       1.0  0.21147  0.50455  0.38130  1.0000
  H   H33       1.0  0.12079  0.19537  0.52286  1.0000
  H   H34       1.0  0.19424  0.21184  0.52968  1.0000
  H   H35       1.0  0.24849  0.45064  0.36516  1.0000
  H   H36       1.0  0.24699  0.03185  0.35206  1.0000
  H   H37       1.0  0.25834  0.25877  0.53380  1.0000
  H   H38       1.0  0.19184  0.23832  0.43877  1.0000
  H   H39       1.0  0.12911  0.13398  0.45614  1.0000
  H   H40       1.0  0.25598  0.28517  0.44439  1.0000
  C   C37       1.0  0.47283  0.50016  0.49198  1.0000
  H   H41       1.0  0.28975  0.29578  0.49158  1.0000
  H   H42       1.0  0.15657  0.14914  0.51508  1.0000
  S   S11       1.0  0.03356  0.10075  0.37179  1.0000
  H   H43       1.0  0.31278  0.43932  0.34258  1.0000
  H   H44       1.0  0.20297  0.48811  0.40096  1.0000
  S   S12       1.0  0.03448  0.11708  0.45674  1.0000
  S   S13       1.0  0.12287  0.13587  0.33859  1.0000
  H   H45       1.0  0.33640  0.49215  0.33816  1.0000
  S   S14       1.0  0.51766  0.34254  0.36876  1.0000
  H   H46       1.0  0.21594  0.08059  0.35803  1.0000
  H   H47       1.0  0.27460  0.08132  0.36186  1.0000
  C   C38       1.0  0.02650  0.07187  0.47954  1.0000
  Fe  Fe9       1.0  0.38394  0.07537  0.86793  1.0000
  S   S15       1.0  0.36927  0.11962  0.90561  1.0000
  Fe  Fe10      1.0  0.47806  0.11003  0.86133  1.0000
  S   S16       1.0  0.47088  0.15687  0.89841  1.0000
  S   S17       1.0  0.04984  0.45404  0.96347  1.0000
  Fe  Fe11      1.0  0.43712  0.10055  0.92037  1.0000
  S   S18       1.0  0.44544  0.08917  0.96795  1.0000
  Fe  Fe12      1.0  0.40380  0.17227  0.88110  1.0000
  S   S19       1.0  0.38015  0.24072  0.87038  1.0000
  S   S20       1.0  0.44892  0.05232  0.88430  1.0000
  S   S21       1.0  0.41392  0.12933  0.84242  1.0000
  Fe  Fe13      1.0  0.08828  0.41779  0.85977  1.0000
  S   S22       1.0  0.08725  0.38244  0.90117  1.0000
  Fe  Fe14      1.0  0.16073  0.47936  0.87935  1.0000
  S   S23       1.0  0.16540  0.44821  0.92256  1.0000
  H   H48       1.0  0.45101  0.23799  0.82556  1.0000
  Fe  Fe15      1.0  0.16133  0.38402  0.89882  1.0000
  S   S24       1.0  0.19590  0.32127  0.91180  1.0000
  Fe  Fe16      1.0  0.09118  0.44891  0.92229  1.0000
  C   C39       1.0  0.44029  0.02928  0.79943  1.0000
  S   S25       1.0  0.16222  0.41485  0.85587  1.0000
  S   S26       1.0  0.08662  0.48465  0.88048  1.0000
  H   H49       1.0  0.18516  0.18886  0.94591  1.0000
  S   S27       1.0  0.05363  0.39678  0.81904  1.0000
  C   C40       1.0  0.33031  0.26467  0.88332  1.0000
  C   C41       1.0  0.31319  0.30121  0.86951  1.0000
  C   C42       1.0  0.27262  0.31980  0.87835  1.0000
  C   C43       1.0  0.24899  0.30221  0.90131  1.0000
  C   C44       1.0  0.26675  0.26643  0.91555  1.0000
  C   C45       1.0  0.30695  0.24750  0.90652  1.0000
  H   H50       1.0  0.33113  0.31491  0.85165  1.0000
  H   H51       1.0  0.25944  0.34743  0.86725  1.0000
  H   H52       1.0  0.24913  0.25311  0.93365  1.0000
  H   H53       1.0  0.31989  0.21973  0.91759  1.0000
  C   C46       1.0  0.09502  0.48208  0.75993  1.0000
  H   H54       1.0  0.41234  0.02201  0.81425  1.0000
  H   H55       1.0  0.21585  0.12133  0.96589  1.0000
  H   H56       1.0  0.52005  0.34603  0.78981  1.0000
  H   H57       1.0  0.08038  0.27166  0.82766  1.0000
  C   C47       1.0  0.04477  0.27184  0.82971  1.0000
  H   H58       1.0  0.25910  0.07063  0.93489  1.0000
  C   C48       1.0  0.48259  0.29501  0.80852  1.0000
  C   C49       1.0  0.03656  0.49980  0.98563  1.0000
  H   H59       1.0  0.27207  0.08656  0.88476  1.0000
  S   S28       1.0  0.32963  0.03845  0.84494  1.0000
  H   H60       1.0  0.12190  0.46168  0.75039  1.0000
  H   H61       1.0  0.50344  0.18679  0.80227  1.0000
  H   H62       1.0  0.45953  0.31716  0.81909  1.0000
  H   H63       1.0  0.07119  0.45903  0.76996  1.0000
  H   H64       1.0  0.19731  0.20679  0.89651  1.0000
  H   H65       1.0  0.11085  0.46609  0.81398  1.0000
  H   H66       1.0  0.16301  0.47219  0.79700  1.0000
  H   H67       1.0  0.03633  0.23570  0.79151  1.0000
  C   C50       1.0  0.47881  0.04922  0.98406  1.0000
  N   N4        1.0  0.24640  0.15847  0.85504  1.0000
  C   C51       1.0  0.29479  0.15896  0.85019  1.0000
  C   C52       1.0  0.22698  0.12440  0.83632  1.0000
  C   C53       1.0  0.22919  0.20145  0.84618  1.0000
  C   C54       1.0  0.23640  0.14837  0.88526  1.0000
  C   C55       1.0  0.21094  0.17631  0.90352  1.0000
  C   C56       1.0  0.25268  0.10954  0.89734  1.0000
  C   C57       1.0  0.20362  0.16638  0.93222  1.0000
  C   C58       1.0  0.24525  0.09998  0.92606  1.0000
  C   C59       1.0  0.22094  0.12846  0.94351  1.0000
  H   H68       1.0  0.30968  0.12620  0.85186  1.0000
  H   H69       1.0  0.30431  0.17112  0.82873  1.0000
  H   H70       1.0  0.31114  0.18004  0.86623  1.0000
  H   H71       1.0  0.23303  0.13136  0.81336  1.0000
  H   H72       1.0  0.19080  0.12177  0.84008  1.0000
  H   H73       1.0  0.24144  0.09164  0.84003  1.0000
  H   H74       1.0  0.24355  0.22849  0.85918  1.0000
  H   H75       1.0  0.23788  0.20852  0.82357  1.0000
  H   H76       1.0  0.19268  0.20304  0.84815  1.0000
  C   C60       1.0  0.47761  0.25033  0.81219  1.0000
  C   C61       1.0  0.50720  0.22155  0.79901  1.0000
  H   H77       1.0  0.42700  0.04040  0.77882  1.0000
  C   C62       1.0  0.13314  0.49045  0.80428  1.0000
  C   C63       1.0  0.51737  0.31110  0.79177  1.0000
  H   H78       1.0  0.45794  0.05767  0.80891  1.0000
  H   H79       1.0  0.14317  0.51294  0.82170  1.0000
  H   H80       1.0  0.04528  0.31022  0.86842  1.0000
  H   H81       1.0  0.17512  0.51925  0.75881  1.0000
  H   H82       1.0  0.04033  0.48713  0.81233  1.0000
  H   H83       1.0  0.07768  0.49854  0.74236  1.0000
  N   N5        1.0  0.11219  0.51434  0.78083  1.0000
  H   H84       1.0  0.52436  0.13472  0.99082  1.0000
  H   H85       1.0  0.52370  0.03452  0.78544  1.0000
  C   C64       1.0  0.50587  0.02101  0.96798  1.0000
  H   H86       1.0  0.50633  0.02282  0.94497  1.0000
  H   H87       1.0  0.51259  0.51447  0.73979  1.0000
  Fe  Fe17      1.0  0.26640  0.82632  0.28397  1.0000
  S   S29       1.0  0.27287  0.82932  0.23621  1.0000
  C   C65       1.0  0.21570  0.91674  0.31959  1.0000
  Fe  Fe18      1.0  0.27598  0.72741  0.28465  1.0000
  S   S30       1.0  0.28279  0.72220  0.23692  1.0000
  H   H88       1.0  0.02720  0.82222  0.21313  1.0000
  Fe  Fe19      1.0  0.32743  0.78073  0.24032  1.0000
  S   S31       1.0  0.38739  0.77756  0.21060  1.0000
  Fe  Fe20      1.0  0.22775  0.77079  0.23553  1.0000
  S   S32       1.0  0.17968  0.76823  0.19869  1.0000
  S   S33       1.0  0.32513  0.78191  0.28827  1.0000
  S   S34       1.0  0.21674  0.77187  0.28315  1.0000
  H   H89       1.0  0.31014  0.53828  0.29655  1.0000
  H   H90       1.0  0.40996  0.88180  0.09426  1.0000
  C   C66       1.0  0.36298  0.83798  0.11376  1.0000
  H   H91       1.0  0.40229  0.00543  0.27572  1.0000
  H   H92       1.0  0.50507  0.01426  0.05077  1.0000
  C   C67       1.0  0.13817  0.72801  0.19542  1.0000
  C   C68       1.0  0.11671  0.72301  0.16927  1.0000
  C   C69       1.0  0.08136  0.69370  0.16627  1.0000
  C   C70       1.0  0.06736  0.66875  0.18943  1.0000
  C   C71       1.0  0.08950  0.67294  0.21542  1.0000
  C   C72       1.0  0.12476  0.70250  0.21845  1.0000
  H   H93       1.0  0.12739  0.74203  0.15122  1.0000
  C   C73       1.0  0.49362  0.78721  0.25143  1.0000
  H   H94       1.0  0.07903  0.65369  0.23344  1.0000
  H   H95       1.0  0.14110  0.70603  0.23870  1.0000
  C   C74       1.0  0.41745  0.82358  0.19896  1.0000
  C   C75       1.0  0.44410  0.81975  0.17428  1.0000
  C   C76       1.0  0.47023  0.85491  0.16507  1.0000
  C   C77       1.0  0.47147  0.89357  0.18115  1.0000
  C   C78       1.0  0.44392  0.89784  0.20542  1.0000
  C   C79       1.0  0.41666  0.86314  0.21417  1.0000
  H   H96       1.0  0.44443  0.78949  0.16217  1.0000
  H   H97       1.0  0.06500  0.69046  0.14603  1.0000
  H   H98       1.0  0.44420  0.92790  0.21777  1.0000
  H   H99       1.0  0.39615  0.86649  0.23315  1.0000
  C   C80       1.0  0.06483  0.81705  0.10587  1.0000
  C   C81       1.0  0.14621  0.94571  0.30327  1.0000
  C   C82       1.0  0.18197  0.91687  0.29966  1.0000
  H   H100      1.0  0.27482  0.99205  0.31375  1.0000
  H   H101      1.0  0.35543  0.65281  0.28539  1.0000
  H   H102      1.0  0.12066  0.94624  0.28746  1.0000
  H   H103      1.0  0.18397  0.89549  0.28113  1.0000
  H   H104      1.0  0.26391  0.75230  0.16574  1.0000
  H   H105      1.0  0.30393  0.78345  0.18438  1.0000
  C   C83       1.0  0.38544  0.90718  0.13429  1.0000
  H   H106      1.0  0.25775  0.80994  0.16795  1.0000
  S   S35       1.0  0.26386  0.88515  0.31413  1.0000
  C   C84       1.0  0.38644  0.60140  0.30902  1.0000
  H   H107      1.0  0.34143  0.95927  0.29426  1.0000
  C   C85       1.0  0.28268  0.78354  0.16532  1.0000
  C   C86       1.0  0.05984  0.81174  0.15731  1.0000
  H   H108      1.0  0.49589  0.85712  0.25206  1.0000
  H   H109      1.0  0.41394  0.59818  0.29418  1.0000
  N   N6        1.0  0.30935  0.78818  0.13872  1.0000
  C   C87       1.0  0.33984  0.75043  0.13683  1.0000
  C   C88       1.0  0.27864  0.78592  0.11448  1.0000
  C   C89       1.0  0.33487  0.82936  0.13754  1.0000
  C   C90       1.0  0.33284  0.86181  0.15951  1.0000
  C   C91       1.0  0.35775  0.90009  0.15772  1.0000
  H   H110      1.0  0.36492  0.75255  0.15388  1.0000
  H   H111      1.0  0.32211  0.71892  0.13949  1.0000
  H   H112      1.0  0.35784  0.74834  0.11608  1.0000
  H   H113      1.0  0.29619  0.78534  0.09351  1.0000
  H   H114      1.0  0.25777  0.75602  0.11525  1.0000
  H   H115      1.0  0.25610  0.81455  0.11488  1.0000
  H   H116      1.0  0.31318  0.85800  0.17869  1.0000
  H   H117      1.0  0.35670  0.92381  0.17509  1.0000
  H   H118      1.0  0.46644  0.78561  0.26668  1.0000
  S   S36       1.0  0.27246  0.67103  0.31577  1.0000
  C   C92       1.0  0.31735  0.63634  0.32278  1.0000
  H   H119      1.0  0.36627  0.81494  0.09623  1.0000
  C   C93       1.0  0.33848  0.99458  0.29482  1.0000
  C   C94       1.0  0.38797  0.87626  0.11231  1.0000
  H   H120      1.0  0.48941  0.85215  0.14553  1.0000
  H   H121      1.0  0.08393  0.82366  0.08670  1.0000
  H   H122      1.0  0.11852  0.83024  0.13410  1.0000
  H   H123      1.0  0.40578  0.93627  0.13352  1.0000
  H   H124      1.0  0.07735  0.81455  0.17714  1.0000
  C   C95       1.0  0.35345  0.63249  0.30404  1.0000
  C   C96       1.0  0.14389  0.97462  0.32677  1.0000
  C   C97       1.0  0.30014  0.01380  0.30596  1.0000
  S   S37       1.0  0.50754  0.93686  0.17218  1.0000
  C   C98       1.0  0.08418  0.82085  0.13253  1.0000
  H   H125      1.0  0.24148  0.56580  0.31207  1.0000
  S   S38       1.0  0.10036  0.01275  0.32907  1.0000
  C   C99       1.0  0.51086  0.74909  0.23930  1.0000
  H   H126      1.0  0.49707  0.71791  0.24544  1.0000
  H   H127      1.0  0.04129  0.76534  0.20742  1.0000
  C   C100      1.0  0.51022  0.82746  0.24316  1.0000
  C   C101      1.0  0.50562  0.01609  0.02776  1.0000
  C   C102      1.0  0.37264  0.02051  0.28444  1.0000
  C   C103      1.0  0.23367  0.54694  0.33077  1.0000
  C   C104      1.0  0.17684  0.97349  0.34720  1.0000
  H   H128      1.0  0.19625  0.60091  0.34817  1.0000
  H   H129      1.0  0.06035  0.96772  0.49075  1.0000
  C   C105      1.0  0.19636  0.54670  0.37678  1.0000
  C   C106      1.0  0.39953  0.70579  0.65638  1.0000
  C   C107      1.0  0.38342  0.57373  0.33258  1.0000
  C   C108      1.0  0.42155  0.56786  0.41997  1.0000
  C   C109      1.0  0.13473  0.87343  0.61000  1.0000
  H   H130      1.0  0.48489  0.56525  0.38222  1.0000
  H   H131      1.0  0.22100  0.73761  0.61476  1.0000
  H   H132      1.0  0.46526  0.66279  0.39652  1.0000
  C   C110      1.0  0.50626  0.64845  0.44810  1.0000
  C   C111      1.0  0.31532  0.60986  0.34694  1.0000
  H   H133      1.0  0.42283  0.58337  0.47324  1.0000
  H   H134      1.0  0.39067  0.58126  0.42969  1.0000
  H   H135      1.0  0.41131  0.65389  0.41152  1.0000
  C   C112      1.0  0.12996  0.86039  0.58166  1.0000
  H   H136      1.0  0.45728  0.67951  0.63456  1.0000
  C   C113      1.0  0.27533  0.80656  0.61793  1.0000
  H   H137      1.0  0.34524  0.55777  0.37015  1.0000
  H   H138      1.0  0.51013  0.55546  0.41595  1.0000
  C   C114      1.0  0.52132  0.66358  0.47449  1.0000
  N   N7        1.0  0.23161  0.80237  0.63227  1.0000
  C   C115      1.0  0.44978  0.60636  0.47227  1.0000
  H   H139      1.0  0.15400  0.81862  0.54776  1.0000
  C   C116      1.0  0.34797  0.57850  0.35177  1.0000
  C   C117      1.0  0.19703  0.82312  0.61514  1.0000
  C   C118      1.0  0.43981  0.63752  0.40065  1.0000
  C   C119      1.0  0.19092  0.81024  0.58626  1.0000
  H   H140      1.0  0.44946  0.61128  0.51818  1.0000
  C   C120      1.0  0.20731  0.56775  0.35154  1.0000
  C   C121      1.0  0.49483  0.58100  0.40272  1.0000
  H   H141      1.0  0.21135  0.78539  0.57627  1.0000
  C   C122      1.0  0.21266  0.94471  0.34356  1.0000
  C   C123      1.0  0.47061  0.61857  0.44618  1.0000
  N   N8        1.0  0.45673  0.60139  0.41802  1.0000
  H   H142      1.0  0.28791  0.61323  0.36181  1.0000
  H   H143      1.0  0.27730  0.78850  0.59727  1.0000
  H   H144      1.0  0.30214  0.79297  0.63119  1.0000
  H   H145      1.0  0.49905  0.54381  0.55734  1.0000
  H   H146      1.0  0.42849  0.62558  0.37939  1.0000
  C   C124      1.0  0.16770  0.85528  0.62658  1.0000
  H   H147      1.0  0.43233  0.53953  0.43267  1.0000
  C   C125      1.0  0.22124  0.75544  0.63553  1.0000
  H   H148      1.0  0.41274  0.55487  0.39855  1.0000
  C   C126      1.0  0.15800  0.82884  0.56980  1.0000
  H   H149      1.0  0.52087  0.60490  0.39708  1.0000
  C   C127      1.0  0.43914  0.68188  0.65456  1.0000
  H   H150      1.0  0.17485  0.99499  0.36566  1.0000
  H   H151      1.0  0.10428  0.87469  0.56896  1.0000
  H   H152      1.0  0.11254  0.89766  0.61928  1.0000
  H   H153      1.0  0.23845  0.94442  0.35921  1.0000
  H   H154      1.0  0.38751  0.72174  0.63764  1.0000
  C   C128      1.0  0.04272  0.99798  0.49434  1.0000
  H   H155      1.0  0.28338  0.84137  0.61392  1.0000
  H   H156      1.0  0.16929  0.86691  0.64838  1.0000
  H   H157      1.0  0.17632  0.56321  0.39293  1.0000
  H   H158      1.0  0.52329  0.65975  0.42922  1.0000
  C   C129      1.0  0.46473  0.62225  0.49849  1.0000
  C   C130      1.0  0.50260  0.53511  0.53499  1.0000
  C   C131      1.0  0.50080  0.65022  0.49964  1.0000
  H   H159      1.0  0.04784  0.93190  0.66241  1.0000
  C   C132      1.0  0.23553  0.82173  0.66130  1.0000
  H   H160      1.0  0.24265  0.85731  0.66070  1.0000
  S   S39       1.0  0.42427  0.53341  0.33698  1.0000
  H   H161      1.0  0.51352  0.66068  0.52012  1.0000
  H   H162      1.0  0.24594  0.73885  0.64898  1.0000
  H   H163      1.0  0.18836  0.75096  0.64599  1.0000
  Fe  Fe21      1.0  0.28607  0.75850  0.72300  1.0000
  S   S40       1.0  0.28929  0.73773  0.76878  1.0000
  S   S41       1.0  0.32479  0.73803  0.68296  1.0000
  Fe  Fe22      1.0  0.21351  0.82600  0.73562  1.0000
  S   S42       1.0  0.21152  0.81168  0.78247  1.0000
  S   S43       1.0  0.17722  0.88069  0.71365  1.0000
  Fe  Fe23      1.0  0.28532  0.80965  0.77948  1.0000
  S   S44       1.0  0.33066  0.83593  0.81373  1.0000
  Fe  Fe24      1.0  0.21525  0.74099  0.76885  1.0000
  S   S45       1.0  0.16586  0.69589  0.79044  1.0000
  S   S46       1.0  0.28757  0.83005  0.73385  1.0000
  S   S47       1.0  0.21182  0.75564  0.72199  1.0000
  H   H164      1.0  0.13472  0.55714  0.74742  1.0000
  S   S48       1.0  0.21066  0.52994  0.86422  1.0000
  C   C133      1.0  0.03651  0.61107  0.79879  1.0000
  H   H165      1.0  0.03087  0.81166  0.70701  1.0000
  C   C134      1.0  0.03620  0.54228  0.97522  1.0000
  C   C135      1.0  0.17966  0.65099  0.81167  1.0000
  C   C136      1.0  0.22223  0.63378  0.81178  1.0000
  C   C137      1.0  0.23137  0.59701  0.82829  1.0000
  C   C138      1.0  0.19785  0.57658  0.84425  1.0000
  C   C139      1.0  0.15527  0.59388  0.84412  1.0000
  C   C140      1.0  0.14645  0.63125  0.82819  1.0000
  H   H166      1.0  0.24787  0.64829  0.79878  1.0000
  H   H167      1.0  0.26440  0.58383  0.82836  1.0000
  H   H168      1.0  0.12931  0.57885  0.85664  1.0000
  H   H169      1.0  0.11364  0.64491  0.82864  1.0000
  C   C141      1.0  0.32985  0.89216  0.82259  1.0000
  C   C142      1.0  0.36176  0.90944  0.84099  1.0000
  C   C143      1.0  0.36212  0.95421  0.84814  1.0000
  C   C144      1.0  0.33045  0.98193  0.83695  1.0000
  C   C145      1.0  0.29846  0.96458  0.81868  1.0000
  C   C146      1.0  0.29815  0.91991  0.81149  1.0000
  H   H170      1.0  0.38634  0.88813  0.84969  1.0000
  H   H171      1.0  0.38646  0.96713  0.86257  1.0000
  H   H172      1.0  0.27381  0.98579  0.80996  1.0000
  H   H173      1.0  0.27340  0.90697  0.79732  1.0000
  C   C147      1.0  0.12204  0.87617  0.70227  1.0000
  C   C148      1.0  0.09541  0.84083  0.70981  1.0000
  C   C149      1.0  0.48696  0.97998  0.82394  1.0000
  H   H174      1.0  0.10844  0.81545  0.72303  1.0000
  C   C150      1.0  0.45463  0.66036  0.67848  1.0000
  C   C151      1.0  0.43052  0.66367  0.70430  1.0000
  C   C152      1.0  0.39127  0.68814  0.70623  1.0000
  C   C153      1.0  0.37537  0.70901  0.68217  1.0000
  H   H175      1.0  0.44215  0.64707  0.72290  1.0000
  H   H176      1.0  0.37294  0.69017  0.72616  1.0000
  N   N9        1.0  0.27583  0.73414  0.86372  1.0000
  C   C154      1.0  0.29695  0.76553  0.88360  1.0000
  C   C155      1.0  0.30962  0.71795  0.84293  1.0000
  C   C156      1.0  0.24248  0.75840  0.84743  1.0000
  C   C157      1.0  0.25708  0.69725  0.87996  1.0000
  C   C158      1.0  0.28516  0.66889  0.89496  1.0000
  C   C159      1.0  0.21109  0.68841  0.88161  1.0000
  C   C160      1.0  0.26843  0.63304  0.90971  1.0000
  C   C161      1.0  0.19471  0.65299  0.89695  1.0000
  C   C162      1.0  0.22331  0.62500  0.91058  1.0000
  H   H177      1.0  0.31070  0.79422  0.87205  1.0000
  H   H178      1.0  0.27281  0.77801  0.89986  1.0000
  H   H179      1.0  0.32475  0.75071  0.89511  1.0000
  H   H180      1.0  0.33870  0.70372  0.85334  1.0000
  H   H181      1.0  0.32273  0.74465  0.82935  1.0000
  H   H182      1.0  0.29561  0.69251  0.82855  1.0000
  H   H183      1.0  0.21714  0.77375  0.86170  1.0000
  H   H184      1.0  0.25769  0.78552  0.83521  1.0000
  H   H185      1.0  0.22579  0.73680  0.83164  1.0000
  H   H186      1.0  0.32037  0.67383  0.89506  1.0000
  H   H187      1.0  0.18702  0.70760  0.87068  1.0000
  H   H188      1.0  0.29050  0.61084  0.92017  1.0000
  H   H189      1.0  0.15965  0.64615  0.89740  1.0000
  H   H190      1.0  0.21050  0.59645  0.92131  1.0000
  H   H191      1.0  0.46000  0.96825  0.83826  1.0000
  H   H192      1.0  0.34862  0.91578  0.75724  1.0000
  C   C163      1.0  0.45161  0.87625  0.76590  1.0000
  C   C164      1.0  0.47165  0.91322  0.77777  1.0000
  H   H193      1.0  0.51262  0.95426  0.82280  1.0000
  H   H194      1.0  0.50594  0.91069  0.78328  1.0000
  C   C165      1.0  0.07524  0.54122  0.79227  1.0000
  H   H195      1.0  0.04656  0.54816  0.95344  1.0000
  C   C166      1.0  0.38324  0.91544  0.76261  1.0000
  H   H196      1.0  0.50251  0.00877  0.83457  1.0000
  H   H197      1.0  0.09658  0.60484  0.77579  1.0000
  C   C167      1.0  0.04055  0.52166  0.80823  1.0000
  C   C168      1.0  0.40744  0.87734  0.75843  1.0000
  S   S49       1.0  0.50281  0.62760  0.67699  1.0000
  C   C169      1.0  0.44779  0.95248  0.78270  1.0000
  C   C170      1.0  0.03409  0.87140  0.68343  1.0000
  H   H198      1.0  0.38150  0.98033  0.77817  1.0000
  H   H199      1.0  0.49591  0.01188  0.75502  1.0000
  H   H200      1.0  0.16166  0.56482  0.78132  1.0000
  H   H201      1.0  0.51050  0.56661  0.72296  1.0000
  H   H202      1.0  0.03522  0.64594  0.79541  1.0000
  N   N10       1.0  0.46983  0.99104  0.79549  1.0000
  H   H203      1.0  0.47022  0.84639  0.76267  1.0000
  H   H204      1.0  0.39168  0.84839  0.74977  1.0000
  C   C171      1.0  0.40277  0.95250  0.77473  1.0000
  C   C172      1.0  0.10455  0.90898  0.68516  1.0000
  C   C173      1.0  0.05146  0.83877  0.70069  1.0000
  C   C174      1.0  0.07186  0.58679  0.78754  1.0000
  C   C175      1.0  0.06090  0.90643  0.67553  1.0000
  C   C176      1.0  0.50724  0.00463  0.77690  1.0000
  H   H205      1.0  0.20496  0.81661  0.67418  1.0000
  H   H206      1.0  0.26264  0.80657  0.67336  1.0000
  C   C177      1.0  0.14728  0.54017  0.76644  1.0000
  H   H207      1.0  0.12494  0.93646  0.67928  1.0000
  Fe  Fe25      1.0  0.71810  0.33285  0.26114  1.0000
  S   S50       1.0  0.72229  0.31623  0.21430  1.0000
  S   S51       1.0  0.66907  0.38327  0.27769  1.0000
  Fe  Fe26      1.0  0.79151  0.26891  0.27598  1.0000
  S   S52       1.0  0.80091  0.24677  0.23052  1.0000
  S   S53       1.0  0.81964  0.23594  0.31453  1.0000
  Fe  Fe27      1.0  0.79570  0.31854  0.22042  1.0000
  S   S54       1.0  0.84699  0.34769  0.19042  1.0000
  Fe  Fe28      1.0  0.72701  0.24634  0.22815  1.0000
  S   S55       1.0  0.67900  0.19170  0.21773  1.0000
  S   S56       1.0  0.79130  0.34047  0.26640  1.0000
  S   S57       1.0  0.71803  0.26354  0.27455  1.0000
  C   C178      1.0  0.62450  0.09010  0.00727  1.0000
  H   H208      1.0  0.79162  0.10053  0.21023  1.0000
  C   C179      1.0  0.84363  0.40171  0.17782  1.0000
  C   C180      1.0  0.87998  0.41995  0.16329  1.0000
  C   C181      1.0  0.87843  0.46296  0.15318  1.0000
  C   C182      1.0  0.84028  0.48790  0.15732  1.0000
  C   C183      1.0  0.80394  0.46959  0.17171  1.0000
  C   C184      1.0  0.80568  0.42685  0.18212  1.0000
  H   H209      1.0  0.90945  0.40066  0.15993  1.0000
  H   H210      1.0  0.90634  0.47643  0.14176  1.0000
  C   C185      1.0  0.90890  0.16361  0.22735  1.0000
  H   H211      1.0  0.77749  0.41320  0.19323  1.0000
  C   C186      1.0  0.68801  0.08368  0.14895  1.0000
  C   C187      1.0  0.71938  0.11746  0.14930  1.0000
  C   C188      1.0  0.71699  0.15111  0.17004  1.0000
  C   C189      1.0  0.68315  0.15111  0.19062  1.0000
  C   C190      1.0  0.65182  0.11736  0.19024  1.0000
  C   C191      1.0  0.65421  0.08376  0.16952  1.0000
  H   H212      1.0  0.74558  0.11762  0.13339  1.0000
  H   H213      1.0  0.74119  0.17703  0.17001  1.0000
  H   H214      1.0  0.62557  0.11706  0.20610  1.0000
  H   H215      1.0  0.62988  0.05795  0.16944  1.0000
  C   C192      1.0  0.87717  0.22913  0.31727  1.0000
  C   C193      1.0  0.90643  0.24859  0.29798  1.0000
  H   H216      1.0  0.77319  0.15445  0.22110  1.0000
  C   C194      1.0  0.94157  0.47758  0.22686  1.0000
  H   H217      1.0  0.56016  0.09737  0.02909  1.0000
  H   H218      1.0  0.01701  0.48828  0.19457  1.0000
  H   H219      1.0  0.89395  0.26796  0.28081  1.0000
  H   H220      1.0  0.59085  0.03652  0.04970  1.0000
  N   N11       1.0  0.79979  0.11608  0.25498  1.0000
  N   N12       1.0  0.57273  0.30398  0.22873  1.0000
  H   H221      1.0  0.93040  0.49000  0.07528  1.0000
  C   C195      1.0  0.62643  0.37118  0.30251  1.0000
  H   H222      1.0  0.97434  0.37753  0.25096  1.0000
  S   S58       1.0  0.69217  0.04216  0.12247  1.0000
  H   H223      1.0  0.71131  0.09595  0.02206  1.0000
  C   C196      1.0  0.79786  0.06960  0.26326  1.0000
  H   H224      1.0  0.96942  0.16981  0.25049  1.0000
  H   H225      1.0  0.53388  0.24127  0.26204  1.0000
  H   H226      1.0  0.87149  0.43514  0.07561  1.0000
  H   H227      1.0  0.76345  0.05693  0.26339  1.0000
  N   N13       1.0  0.96066  0.51857  0.21580  1.0000
  C   C197      1.0  0.68647  0.09118  0.03936  1.0000
  C   C198      1.0  0.98814  0.50905  0.19000  1.0000
  H   H228      1.0  0.64297  0.30351  0.30664  1.0000
  H   H229      1.0  0.86224  0.11387  0.29687  1.0000
  C   C199      1.0  0.88580  0.48667  0.02697  1.0000
  C   C200      1.0  0.86496  0.14974  0.22817  1.0000
  C   C201      1.0  0.61206  0.28054  0.23876  1.0000
  H   H230      1.0  0.67637  0.12396  0.04759  1.0000
  C   C202      1.0  0.55207  0.27747  0.20585  1.0000
  H   H231      1.0  0.63649  0.27503  0.22117  1.0000
  C   C203      1.0  0.91834  0.13980  0.27558  1.0000
  H   H232      1.0  0.68842  0.02664  0.00082  1.0000
  H   H233      1.0  0.63828  0.03879  0.07150  1.0000
  C   C204      1.0  0.66290  0.02323  0.01783  1.0000
  C   C205      1.0  0.77596  0.14270  0.27688  1.0000
  C   C206      1.0  0.77572  0.11994  0.22779  1.0000
  H   H234      1.0  0.77772  0.17791  0.27172  1.0000
  H   H235      1.0  0.82003  0.44590  0.05786  1.0000
  H   H236      1.0  0.87131  0.49434  0.22370  1.0000
  C   C207      1.0  0.89022  0.44284  0.01697  1.0000
  C   C208      1.0  0.90710  0.39801  0.24796  1.0000
  N   N14       1.0  0.64770  0.06589  0.02962  1.0000
  H   H237      1.0  0.72021  0.33929  0.32260  1.0000
  C   C209      1.0  0.58846  0.34533  0.21591  1.0000
  C   C210      1.0  0.96956  0.44303  0.23506  1.0000
  H   H238      1.0  0.77420  0.48857  0.17483  1.0000
  H   H239      1.0  0.97463  0.25830  0.28603  1.0000
  H   H240      1.0  0.96858  0.49199  0.17335  1.0000
  H   H241      1.0  0.84342  0.42623  0.24198  1.0000
  C   C211      1.0  0.02261  0.49276  0.01396  1.0000
  C   C212      1.0  0.84692  0.46071  0.07062  1.0000
  H   H242      1.0  0.81060  0.06431  0.28501  1.0000
  C   C213      1.0  0.95244  0.40384  0.24533  1.0000
  H   H243      1.0  0.53724  0.38215  0.25216  1.0000
  H   H244      1.0  0.74110  0.10808  0.22977  1.0000
  H   H245      1.0  0.60533  0.36639  0.23198  1.0000
  H   H246      1.0  0.62868  0.29945  0.25587  1.0000
  H   H247      1.0  0.61307  0.33933  0.19841  1.0000
  C   C214      1.0  0.57990  0.10379  0.01028  1.0000
  C   C215      1.0  0.95211  0.24307  0.30097  1.0000
  H   H248      1.0  0.74045  0.13378  0.27844  1.0000
  N   N15       1.0  0.86759  0.49808  0.05561  1.0000
  H   H249      1.0  0.89382  0.36716  0.25516  1.0000
  H   H250      1.0  0.02274  0.46001  0.02218  1.0000
  C   C216      1.0  0.84628  0.13069  0.25308  1.0000
  C   C217      1.0  0.59744  0.40443  0.31156  1.0000
  C   C218      1.0  0.61983  0.05702  0.05519  1.0000
  C   C219      1.0  0.93553  0.15855  0.25098  1.0000
  H   H251      1.0  0.70365  0.07445  0.05701  1.0000
  H   H252      1.0  0.00496  0.44590  0.23331  1.0000
  C   C220      1.0  0.89541  0.47061  0.22996  1.0000
  H   H253      1.0  0.57467  0.27306  0.18706  1.0000
  C   C221      1.0  0.87429  0.12660  0.27686  1.0000
  H   H254      1.0  0.60828  0.08761  0.06590  1.0000
  H   H255      1.0  0.84622  0.15495  0.20915  1.0000
  H   H256      1.0  0.79008  0.13941  0.29848  1.0000
  C   C222      1.0  0.87873  0.43144  0.24057  1.0000
  H   H257      1.0  0.60433  0.24769  0.24713  1.0000
  H   H258      1.0  0.54350  0.24409  0.21303  1.0000
  H   H259      1.0  0.92230  0.17881  0.20837  1.0000
  C   C223      1.0  0.62125  0.32943  0.31360  1.0000
  H   H260      1.0  0.01752  0.51855  0.24312  1.0000
  H   H261      1.0  0.83213  0.47095  0.09162  1.0000
  H   H262      1.0  0.56096  0.36400  0.20657  1.0000
  H   H263      1.0  0.60119  0.43684  0.30306  1.0000
  C   C224      1.0  0.90377  0.51467  0.07352  1.0000
  H   H264      1.0  0.87908  0.41542  0.02927  1.0000
  H   H265      1.0  0.81762  0.04893  0.24811  1.0000
  C   C225      1.0  0.90282  0.51972  0.00897  1.0000
  C   C226      1.0  0.54086  0.31051  0.25266  1.0000
  H   H266      1.0  0.77314  0.31633  0.32923  1.0000
  H   H267      1.0  0.93910  0.13659  0.29407  1.0000
  C   C227      1.0  0.96886  0.21765  0.32299  1.0000
  H   H268      1.0  0.64330  0.46774  0.64302  1.0000
  S   S59       1.0  0.84047  0.03350  0.63642  1.0000
  H   H269      1.0  0.70475  0.25086  0.37615  1.0000
  C   C228      1.0  0.99845  0.07648  0.50359  1.0000
  C   C229      1.0  0.76442  0.31207  0.38574  1.0000
  C   C230      1.0  0.66792  0.32325  0.40270  1.0000
  H   H270      1.0  0.77622  0.34493  0.39256  1.0000
  C   C231      1.0  0.67672  0.38141  0.36869  1.0000
  H   H271      1.0  0.58952  0.40113  0.41356  1.0000
  C   C232      1.0  0.71303  0.27095  0.35731  1.0000
  H   H272      1.0  0.87139  0.18880  0.35442  1.0000
  C   C233      1.0  0.66653  0.45733  0.65879  1.0000
  H   H273      1.0  0.68332  0.27211  0.34381  1.0000
  H   H274      1.0  0.75441  0.29436  0.40531  1.0000
  H   H275      1.0  0.61379  0.33091  0.43280  1.0000
  C   C234      1.0  0.63185  0.34510  0.41508  1.0000
  C   C235      1.0  0.61826  0.38487  0.40441  1.0000
  H   H276      1.0  0.95214  0.17840  0.35923  1.0000
  C   C236      1.0  0.64100  0.40323  0.38154  1.0000
  C   C237      1.0  0.84685  0.07771  0.66085  1.0000
  H   H277      1.0  0.79308  0.29403  0.37613  1.0000
  C   C238      1.0  0.69096  0.34029  0.37873  1.0000
  N   N16       1.0  0.72791  0.31556  0.36529  1.0000
  H   H278      1.0  0.62983  0.43390  0.37304  1.0000
  H   H279      1.0  0.69168  0.39699  0.35044  1.0000
  C   C239      1.0  0.74595  0.33604  0.33907  1.0000
  H   H280      1.0  0.89813  0.05348  0.49355  1.0000
  H   H281      1.0  0.67721  0.29258  0.41184  1.0000
  H   H282      1.0  0.76016  0.36881  0.34361  1.0000
  H   H283      1.0  0.58415  0.28885  0.34256  1.0000
  H   H284      1.0  0.97049  0.04595  0.54115  1.0000
  C   C240      1.0  0.99224  0.04194  0.52279  1.0000
  H   H285      1.0  0.82455  0.04852  0.51678  1.0000
  H   H286      1.0  0.77939  0.09818  0.65674  1.0000
  C   C241      1.0  0.55898  0.35443  0.34309  1.0000
  H   H287      1.0  0.98140  0.10700  0.50742  1.0000
  H   H288      1.0  0.73896  0.25256  0.34516  1.0000
  C   C242      1.0  0.89384  0.20389  0.33939  1.0000
  H   H289      1.0  0.64554  0.39005  0.65734  1.0000
  C   C243      1.0  0.58783  0.32117  0.33392  1.0000
  C   C244      1.0  0.93955  0.19796  0.34218  1.0000
  H   H290      1.0  0.54165  0.42195  0.33865  1.0000
  C   C245      1.0  0.88339  0.02179  0.49731  1.0000
  C   C246      1.0  0.56373  0.39611  0.33173  1.0000
  S   S60       1.0  0.85654  0.18576  0.72965  1.0000
  Fe  Fe29      1.0  0.80673  0.23879  0.74220  1.0000
  S   S61       1.0  0.80371  0.25310  0.78952  1.0000
  C   C247      1.0  0.63282  0.49082  0.78828  1.0000
  Fe  Fe30      1.0  0.74375  0.31342  0.72949  1.0000
  S   S62       1.0  0.73769  0.33293  0.77547  1.0000
  S   S63       1.0  0.69645  0.34401  0.69822  1.0000
  Fe  Fe31      1.0  0.81086  0.32328  0.77769  1.0000
  S   S64       1.0  0.84688  0.36873  0.80836  1.0000
  Fe  Fe32      1.0  0.73111  0.26153  0.78408  1.0000
  S   S65       1.0  0.68120  0.24859  0.81943  1.0000
  S   S66       1.0  0.81815  0.30931  0.73050  1.0000
  S   S67       1.0  0.73295  0.24163  0.73779  1.0000
  H   H291      1.0  0.55226  0.17958  0.86319  1.0000
  C   C248      1.0  0.96748  0.39912  0.83952  1.0000
  C   C249      1.0  0.92183  0.39251  0.83667  1.0000
  C   C250      1.0  0.90425  0.37832  0.81057  1.0000
  C   C251      1.0  0.93248  0.37262  0.78700  1.0000
  C   C252      1.0  0.97816  0.37861  0.78992  1.0000
  H   H292      1.0  0.63169  0.24778  0.76597  1.0000
  H   H293      1.0  0.90008  0.39779  0.85489  1.0000
  H   H294      1.0  0.91899  0.36379  0.76652  1.0000
  C   C253      1.0  0.92714  0.46638  0.97366  1.0000
  C   C254      1.0  0.61769  0.46698  0.73157  1.0000
  C   C255      1.0  0.88909  0.11965  0.69534  1.0000
  C   C256      1.0  0.85220  0.14573  0.70217  1.0000
  C   C257      1.0  0.57625  0.14147  0.82735  1.0000
  C   C258      1.0  0.57683  0.17697  0.84632  1.0000
  C   C259      1.0  0.60934  0.20932  0.84354  1.0000
  C   C260      1.0  0.64140  0.20669  0.82169  1.0000
  C   C261      1.0  0.64076  0.17134  0.80251  1.0000
  C   C262      1.0  0.60832  0.13873  0.80542  1.0000
  H   H295      1.0  0.74800  0.49659  0.70086  1.0000
  H   H296      1.0  0.60958  0.23662  0.85842  1.0000
  H   H297      1.0  0.66544  0.16892  0.78567  1.0000
  H   H298      1.0  0.60807  0.11133  0.79065  1.0000
  C   C263      1.0  0.81286  0.13825  0.68783  1.0000
  H   H299      1.0  0.91509  0.39951  0.98375  1.0000
  H   H300      1.0  0.78428  0.15812  0.69281  1.0000
  H   H301      1.0  0.63917  0.50015  0.81023  1.0000
  C   C264      1.0  0.69822  0.39907  0.68716  1.0000
  C   C265      1.0  0.58097  0.13400  0.96286  1.0000
  H   H302      1.0  0.96424  0.31437  0.87253  1.0000
  H   H303      1.0  0.75051  0.41892  0.71494  1.0000
  C   C266      1.0  0.97938  0.29590  0.85509  1.0000
  H   H304      1.0  0.54739  0.30604  0.72353  1.0000
  C   C267      1.0  0.96785  0.20573  0.76738  1.0000
  C   C268      1.0  0.72721  0.42935  0.69921  1.0000
  H   H305      1.0  0.56464  0.21304  0.77358  1.0000
  H   H306      1.0  0.64265  0.34153  0.76843  1.0000
  C   C269      1.0  0.95316  0.27638  0.83427  1.0000
  N   N17       1.0  0.94347  0.23258  0.78902  1.0000
  H   H307      1.0  0.98664  0.17918  0.77751  1.0000
  C   C270      1.0  0.92029  0.26738  0.77373  1.0000
  C   C271      1.0  0.99588  0.39139  0.81624  1.0000
  C   C272      1.0  0.64646  0.10011  0.98119  1.0000
  C   C273      1.0  0.66799  0.41327  0.66687  1.0000
  H   H308      1.0  0.87513  0.06540  0.79491  1.0000
  H   H309      1.0  0.79008  0.06229  0.72300  1.0000
  C   C274      1.0  0.72564  0.47341  0.69122  1.0000
  C   C275      1.0  0.97206  0.25286  0.81081  1.0000
  H   H310      1.0  0.94420  0.28982  0.76334  1.0000
  H   H311      1.0  0.64302  0.28162  0.73617  1.0000
  H   H312      1.0  0.98073  0.40933  0.85983  1.0000
  H   H313      1.0  0.64195  0.12824  0.93938  1.0000
  C   C276      1.0  0.91033  0.20384  0.80288  1.0000
  N   N18       1.0  0.58582  0.30076  0.76140  1.0000
  C   C277      1.0  0.55874  0.12547  0.98834  1.0000
  H   H314      1.0  0.88953  0.18665  0.78689  1.0000
  H   H315      1.0  0.91975  0.12541  0.70618  1.0000
  H   H316      1.0  0.92652  0.17882  0.81603  1.0000
  H   H317      1.0  0.62365  0.31232  0.79911  1.0000
  H   H318      1.0  0.89864  0.28717  0.78821  1.0000
  H   H319      1.0  0.59812  0.24421  0.73442  1.0000
  H   H320      1.0  0.94462  0.45863  0.95386  1.0000
  C   C278      1.0  0.61261  0.32980  0.77984  1.0000
  C   C279      1.0  0.64992  0.45184  0.77729  1.0000
  H   H321      1.0  0.94505  0.18994  0.75190  1.0000
  H   H322      1.0  0.61381  0.45603  0.70979  1.0000
  H   H323      1.0  0.56391  0.14992  0.94574  1.0000
  H   H324      1.0  0.54946  0.35521  0.74475  1.0000
  C   C280      1.0  0.61574  0.26692  0.74902  1.0000
  C   C281      1.0  0.86595  0.05093  0.77463  1.0000
  C   C282      1.0  0.01887  0.25149  0.80898  1.0000
  H   H325      1.0  0.88689  0.22223  0.81692  1.0000
  H   H326      1.0  0.89888  0.25403  0.75672  1.0000
  H   H327      1.0  0.99988  0.37330  0.77170  1.0000
  H   H328      1.0  0.59632  0.33915  0.72364  1.0000
  H   H329      1.0  0.65618  0.40991  0.74045  1.0000
  C   C283      1.0  0.54856  0.28272  0.77832  1.0000
  C   C284      1.0  0.82983  0.06736  0.76035  1.0000
  C   C285      1.0  0.81020  0.10424  0.66738  1.0000
  C   C286      1.0  0.88661  0.08612  0.67455  1.0000
  H   H330      1.0  0.91794  0.28106  0.83630  1.0000
  H   H331      1.0  0.81142  0.09481  0.76920  1.0000
  H   H332      1.0  0.91535  0.06685  0.66914  1.0000
  C   C287      1.0  0.56890  0.32646  0.73736  1.0000
  C   C288      1.0  0.64213  0.43989  0.74908  1.0000
  H   H333      1.0  0.59429  0.35915  0.78736  1.0000
  H   H334      1.0  0.99070  0.22593  0.75429  1.0000
  H   H335      1.0  0.66978  0.43112  0.79052  1.0000
  S   S68       1.0  0.53538  0.10057  0.83012  1.0000
  C   C289      1.0  0.62485  0.12159  0.95933  1.0000
  C   C290      1.0  0.91075  0.43311  0.99070  1.0000
  C   C291      1.0  0.60021  0.50726  0.74198  1.0000
  H   H336      1.0  0.60073  0.51676  0.68268  1.0000
  C   C292      1.0  0.54234  0.23725  0.78241  1.0000
  H   H337      1.0  0.55049  0.48946  0.69396  1.0000
  C   C293      1.0  0.69522  0.48768  0.67109  1.0000
  C   C294      1.0  0.81777  0.04899  0.73432  1.0000
  C   C295      1.0  0.92275  0.50959  0.98265  1.0000
  H   H338      1.0  0.68035  0.09080  0.97737  1.0000
  C   C296      1.0  0.02507  0.29375  0.85277  1.0000
  C   C297      1.0  0.60832  0.51818  0.77097  1.0000
  Fe  Fe33      1.0  0.97502  0.63383  0.14955  1.0000
  S   S69       1.0  0.97373  0.67912  0.11251  1.0000
  H   H339      1.0  0.63494  0.00461  0.00849  1.0000
  Fe  Fe34      1.0  0.89057  0.58804  0.13161  1.0000
  S   S70       1.0  0.88257  0.63037  0.09312  1.0000
  Fe  Fe35      1.0  0.95553  0.61957  0.08639  1.0000
  S   S71       1.0  0.98298  0.61416  0.04090  1.0000
  Fe  Fe36      1.0  0.90092  0.68642  0.12194  1.0000
  S   S72       1.0  0.87384  0.75599  0.12451  1.0000
  S   S73       1.0  0.96219  0.57333  0.12305  1.0000
  S   S74       1.0  0.90367  0.64501  0.16088  1.0000
  Fe  Fe37      1.0  0.56176  0.93496  0.13793  1.0000
  S   S75       1.0  0.56929  0.88613  0.10207  1.0000
  Fe  Fe38      1.0  0.64409  0.98529  0.11979  1.0000
  S   S76       1.0  0.65782  0.93921  0.08289  1.0000
  H   H340      1.0  0.94262  0.58155  0.19979  1.0000
  Fe  Fe39      1.0  0.58520  0.94392  0.07464  1.0000
  S   S77       1.0  0.56687  0.94864  0.02781  1.0000
  Fe  Fe40      1.0  0.64158  0.88544  0.11316  1.0000
  S   S78       1.0  0.67351  0.81790  0.11540  1.0000
  C   C298      1.0  0.83357  0.53262  0.05358  1.0000
  S   S79       1.0  0.63290  0.93098  0.15096  1.0000
  C   C299      1.0  0.81797  0.77255  0.12157  1.0000
  C   C300      1.0  0.78359  0.74242  0.11905  1.0000
  C   C301      1.0  0.73970  0.75701  0.11711  1.0000
  C   C302      1.0  0.72961  0.80179  0.11753  1.0000
  C   C303      1.0  0.76397  0.83194  0.12009  1.0000
  C   C304      1.0  0.80787  0.81734  0.12215  1.0000
  H   H341      1.0  0.79079  0.70790  0.11856  1.0000
  H   H342      1.0  0.71343  0.73339  0.11508  1.0000
  H   H343      1.0  0.75675  0.86646  0.12043  1.0000
  H   H344      1.0  0.83418  0.84095  0.12404  1.0000
  H   H345      1.0  0.90290  0.55363  0.01563  1.0000
  C   C305      1.0  0.95187  0.82053  0.18471  1.0000
  C   C306      1.0  0.63178  0.82378  0.19438  1.0000
  H   H346      1.0  0.96963  0.54539  0.25794  1.0000
  H   H347      1.0  0.96505  0.85436  0.18600  1.0000
  H   H348      1.0  0.62152  0.85810  0.19835  1.0000
  C   C307      1.0  0.57266  0.81457  0.16107  1.0000
  N   N19       1.0  0.98806  0.78831  0.18171  1.0000
  H   H349      1.0  0.96216  0.78640  0.12580  1.0000
  H   H350      1.0  0.93128  0.81472  0.20414  1.0000
  C   C308      1.0  0.00588  0.56979  0.02085  1.0000
  C   C309      1.0  0.53255  0.98777  0.01166  1.0000
  H   H351      1.0  0.92907  0.81896  0.16631  1.0000
  C   C310      1.0  0.01360  0.78921  0.20849  1.0000
  S   S80       1.0  0.83555  0.54129  0.14391  1.0000
  H   H352      1.0  0.55302  0.86201  0.21530  1.0000
  H   H353      1.0  0.95122  0.73370  0.19866  1.0000
  C   C311      1.0  0.96844  0.74418  0.17880  1.0000
  H   H354      1.0  0.90585  0.56102  0.22635  1.0000
  H   H355      1.0  0.63942  0.75693  0.15935  1.0000
  H   H356      1.0  0.84737  0.56405  0.04604  1.0000
  H   H357      1.0  0.99408  0.71956  0.17348  1.0000
  H   H358      1.0  0.56271  0.84896  0.16536  1.0000
  C   C312      1.0  0.61364  0.75269  0.17635  1.0000
  C   C313      1.0  0.56179  0.79167  0.20939  1.0000
  H   H359      1.0  0.58833  0.73095  0.16677  1.0000
  N   N20       1.0  0.59458  0.79521  0.18582  1.0000
  H   H360      1.0  0.99287  0.78038  0.22733  1.0000
  S   S81       1.0  0.57244  0.99320  0.10967  1.0000
  C   C314      1.0  0.00796  0.52760  0.03163  1.0000
  H   H361      1.0  0.64746  0.81173  0.21402  1.0000
  H   H362      1.0  0.59444  0.81491  0.14191  1.0000
  H   H363      1.0  0.94355  0.74224  0.16179  1.0000
  C   C315      1.0  0.02088  0.80456  0.10389  1.0000
  H   H364      1.0  0.67746  0.00249  0.03453  1.0000
  H   H365      1.0  0.65772  0.82539  0.17729  1.0000
  H   H366      1.0  0.00173  0.53944  0.18050  1.0000
  H   H367      1.0  0.55574  0.72025  0.20977  1.0000
  C   C316      1.0  0.01500  0.79836  0.15600  1.0000
  H   H368      1.0  0.80709  0.52254  0.03872  1.0000
  S   S82       1.0  0.02168  0.63298  0.18698  1.0000
  H   H369      1.0  0.62962  0.73579  0.19427  1.0000
  H   H370      1.0  0.00255  0.57085  0.23066  1.0000
  C   C317      1.0  0.98876  0.53909  0.23785  1.0000
  C   C318      1.0  0.92705  0.55115  0.20780  1.0000
  C   C319      1.0  0.99619  0.79566  0.12852  1.0000
  H   H371      1.0  0.90569  0.53861  0.19041  1.0000
  H   H372      1.0  0.00573  0.80146  0.08315  1.0000
  C   C320      1.0  0.54458  0.75101  0.21865  1.0000
  H   H373      1.0  0.91910  0.54462  0.06459  1.0000
  H   H374      1.0  0.54275  0.79568  0.15522  1.0000
  C   C321      1.0  0.54338  0.82985  0.22223  1.0000
  H   H375      1.0  0.81798  0.54028  0.07478  1.0000
  H   H376      1.0  0.89179  0.52300  0.09544  1.0000
  H   H377      1.0  0.99772  0.52166  0.05336  1.0000
  Fe  Fe41      1.0  0.59100  0.60119  0.58217  1.0000
  S   S83       1.0  0.57519  0.56092  0.62100  1.0000
  S   S84       1.0  0.58168  0.58151  0.53535  1.0000
  Fe  Fe42      1.0  0.63593  0.67433  0.61628  1.0000
  H   H378      1.0  0.79048  0.63505  0.61207  1.0000
  S   S85       1.0  0.67243  0.73797  0.62628  1.0000
  Fe  Fe43      1.0  0.64375  0.57804  0.63495  1.0000
  Fe  Fe44      1.0  0.55423  0.62535  0.64091  1.0000
  S   S86       1.0  0.66180  0.61358  0.59479  1.0000
  S   S87       1.0  0.56597  0.66498  0.60138  1.0000
  Fe  Fe45      1.0  0.87862  0.89023  0.59230  1.0000
  S   S88       1.0  0.87601  0.91266  0.63789  1.0000
  S   S89       1.0  0.83686  0.83777  0.57045  1.0000
  Fe  Fe46      1.0  0.95868  0.94963  0.57852  1.0000
  S   S90       1.0  0.96225  0.97633  0.62366  1.0000
  H   H379      1.0  0.86634  0.76497  0.60874  1.0000
  Fe  Fe47      1.0  0.94996  0.90693  0.63704  1.0000
  H   H380      1.0  0.79165  0.97636  0.52657  1.0000
  Fe  Fe48      1.0  0.88808  0.98027  0.62139  1.0000
  C   C322      1.0  0.54006  0.54847  0.51969  1.0000
  S   S91       1.0  0.95182  0.87985  0.59246  1.0000
  S   S92       1.0  0.88548  0.95819  0.57530  1.0000
  H   H381      1.0  0.57281  0.54705  0.47858  1.0000
  H   H382      1.0  0.90276  0.78804  0.65318  1.0000
  C   C323      1.0  0.95560  0.90811  0.47303  1.0000
  H   H383      1.0  0.85481  0.86148  0.48030  1.0000
  C   C324      1.0  0.71850  0.76451  0.61027  1.0000
  C   C325      1.0  0.73547  0.75234  0.58340  1.0000
  C   C326      1.0  0.77154  0.77521  0.57146  1.0000
  C   C327      1.0  0.79128  0.81017  0.58630  1.0000
  C   C328      1.0  0.77468  0.82188  0.61332  1.0000
  C   C329      1.0  0.73842  0.79930  0.62513  1.0000
  H   H384      1.0  0.72035  0.72584  0.57163  1.0000
  H   H385      1.0  0.78410  0.76585  0.55055  1.0000
  H   H386      1.0  0.78949  0.84861  0.62502  1.0000
  H   H387      1.0  0.72553  0.80904  0.64589  1.0000
  C   C330      1.0  0.01465  0.00257  0.51838  1.0000
  H   H388      1.0  0.83128  0.90963  0.51404  1.0000
  H   H389      1.0  0.97877  0.92689  0.48670  1.0000
  H   H390      1.0  0.94049  0.89843  0.52971  1.0000
  H   H391      1.0  0.81175  0.70744  0.60869  1.0000
  H   H392      1.0  0.95136  0.92582  0.45272  1.0000
  H   H393      1.0  0.54963  0.68508  0.47560  1.0000
  H   H394      1.0  0.94127  0.84730  0.51066  1.0000
  S   S93       1.0  0.00878  0.95808  0.54200  1.0000
  H   H395      1.0  0.97256  0.87685  0.46766  1.0000
  H   H396      1.0  0.87570  0.89028  0.44983  1.0000
  C   C331      1.0  0.85831  0.74859  0.62852  1.0000
  C   C332      1.0  0.82691  0.71514  0.62881  1.0000
  C   C333      1.0  0.88872  0.94186  0.49503  1.0000
  H   H397      1.0  0.90340  0.84258  0.46251  1.0000
  C   C334      1.0  0.92173  0.87747  0.51465  1.0000
  H   H398      1.0  0.74549  0.67305  0.61818  1.0000
  H   H399      1.0  0.74062  0.61788  0.62914  1.0000
  H   H400      1.0  0.89107  0.86748  0.52599  1.0000
  C   C335      1.0  0.76421  0.64561  0.62745  1.0000
  C   C336      1.0  0.84637  0.94033  0.50833  1.0000
  N   N21       1.0  0.91272  0.90098  0.48799  1.0000
  C   C337      1.0  0.88545  0.87269  0.46934  1.0000
  C   C338      1.0  0.90657  0.98392  0.48967  1.0000
  C   C339      1.0  0.87874  0.76177  0.65357  1.0000
  H   H401      1.0  0.93882  0.98865  0.48015  1.0000
  N   N22       1.0  0.78246  0.65773  0.65568  1.0000
  S   S94       1.0  0.62177  0.63944  0.65698  1.0000
  C   C340      1.0  0.84196  0.01907  0.51035  1.0000
  H   H402      1.0  0.83215  0.60782  0.65436  1.0000
  C   C341      1.0  0.81535  0.69344  0.65447  1.0000
  C   C342      1.0  0.82341  0.97842  0.51574  1.0000
  S   S95       1.0  0.69393  0.54381  0.66252  1.0000
  C   C343      1.0  0.54396  0.53691  0.49058  1.0000
  H   H403      1.0  0.54916  0.54413  0.68162  1.0000
  H   H404      1.0  0.01932  0.60951  0.98417  1.0000
  C   C344      1.0  0.87739  0.92452  0.71498  1.0000
  H   H405      1.0  0.88392  0.75191  0.69856  1.0000
  H   H406      1.0  0.96725  0.97226  0.74387  1.0000
  H   H407      1.0  0.75490  0.67672  0.69690  1.0000
  H   H408      1.0  0.89669  0.89718  0.70505  1.0000
  H   H409      1.0  0.86054  0.91203  0.73445  1.0000
  H   H410      1.0  0.53239  0.56280  0.75769  1.0000
  C   C345      1.0  0.94260  0.94623  0.73950  1.0000
  C   C346      1.0  0.59907  0.57951  0.72192  1.0000
  H   H411      1.0  0.93022  0.93277  0.76002  1.0000
  C   C347      1.0  0.74497  0.67105  0.67449  1.0000
  H   H412      1.0  0.55314  0.96858  0.96910  1.0000
  H   H413      1.0  0.96118  0.91942  0.72833  1.0000
  N   N23       1.0  0.90593  0.96242  0.72191  1.0000
  C   C348      1.0  0.83677  0.70780  0.67964  1.0000
  H   H414      1.0  0.63244  0.57481  0.71206  1.0000
  H   H415      1.0  0.59628  0.54834  0.78035  1.0000
  H   H416      1.0  0.71859  0.64573  0.67488  1.0000
  C   C349      1.0  0.92552  0.97926  0.69513  1.0000
  H   H417      1.0  0.90002  0.98816  0.67947  1.0000
  H   H418      1.0  0.72982  0.70179  0.66696  1.0000
  H   H419      1.0  0.85155  0.93256  0.69939  1.0000
  H   H420      1.0  0.94726  0.95467  0.68442  1.0000
  H   H421      1.0  0.82925  0.69329  0.69999  1.0000
  H   H422      1.0  0.53325  0.97930  0.77500  1.0000
  C   C350      1.0  0.02061  0.57697  0.99269  1.0000
  H   H423      1.0  0.91834  0.00558  0.77482  1.0000
  H   H424      1.0  0.81330  0.62249  0.68976  1.0000
  N   N24       1.0  0.57520  0.53743  0.72393  1.0000
  C   C351      1.0  0.87948  0.99740  0.73595  1.0000
  H   H425      1.0  0.60327  0.59576  0.74298  1.0000
  S   S96       1.0  0.97814  0.86833  0.67351  1.0000
  H   H426      1.0  0.94576  0.00888  0.69925  1.0000
  H   H427      1.0  0.58097  0.60308  0.70858  1.0000
  C   C352      1.0  0.86800  0.74140  0.67910  1.0000
  H   H428      1.0  0.83242  0.00298  0.70133  1.0000
  H   H429      1.0  0.97964  0.53031  0.83174  1.0000
  H   H430      1.0  0.97634  0.60985  0.82365  1.0000
  H   H431      1.0  0.93690  0.53530  0.96977  1.0000
  C   C353      1.0  0.00345  0.59086  0.81476  1.0000
  C   C354      1.0  0.00539  0.54618  0.81937  1.0000
  C   C355      1.0  0.56874  0.52090  0.69435  1.0000
  C   C356      1.0  0.53089  0.54555  0.73676  1.0000
  C   C357      1.0  0.53247  0.99038  0.98174  1.0000
  H   H432      1.0  0.77928  0.58993  0.66745  1.0000
  C   C358      1.0  0.89056  0.01641  0.76276  1.0000
  C   C359      1.0  0.84222  0.01474  0.72216  1.0000
  C   C360      1.0  0.80280  0.61794  0.66735  1.0000
