data_image0
_chemical_formula_structural       FeS2FeS2FeSFeCS2FeS2FeS2FeSFeS3HFeSCHSH2C2HC6H4C6H4C4H3C6H6CHCHCSH2CH7CSC2H6CH2C2H2CNC8HSH7C2H2CH2C2HFeHSH2C3H2CH3CNHNH2NH2NC2HC4H3CH2C2H2CH11CH3NCHCH2CH3CHCSHC2H2CHCH2CH2NHCH3C2HCH3C4HCHCH2C2H3C2NH2C3H2FeS2FeS2FeSFeS3FeCSC3HSH2C3H3SC2H6C7H4SHCH3FeHC2HCHC4HCH5CH5SCH3CHC3HNH2CHC2H2C2NCH2NC5H3CFeH9CH2CNC6H2CHCSC3HCHSCHCFeCSCH2CH2CH2CFeS2FeSHFeSFeS4FeSFeS2FeS2FeSFeS4CSHC2SC6H6C6H4C6H4C2HC2H2CH2CN2SC2HC2H3CHCHCHSH4C2FeHC3HCHC2H2C3NCHCNH6C3SHC2HC4H2CHCH2CH2CH6CHCNC9H15NC3HFeCH4CHC2SH7CH2CH4SC2H5CHC2H2CFeS2FeS2FeSFeS3FeHSCHC2HSHC2H6CH2SC3SCH2C6H2CH2CH3C2HC7H3CH3SNHC5HCH3CHC2HCH5CHC2NHC2HC2HCHCH3C4H4CHNC4H5C2HSHSNCHC2H4CH4FeCH3CFeH4CNCFeS2FeS2FeSFeS3FeS2FeS2FeSFeS3FeS2FeSFeH3FeHC2HC2H3S2CHC2HC6H4CH2C6H4C2HCH2C6H4C3SCH3NC9H14CNCHCH3CH5SHCHC4H3C2HCHCH2CHSC2H2C2H3SH3CHCH3CHCH4CHCNC2HC3HC2SC4H4SC3H5CH5CFeS2FeS2FeSFeS3HC2SHFeS2FeS2FeSFeS3FeCSC4HCH3CHC2H5C6H4CH4NH2CHSC2H4C6H4SH2C6H5C3HC2HNHCH5C3H4CHCH3C3H3C3HC2SHC2H3NC9H13C2NCH3CHCNCHC2H2FeH2CHC3HC2HCH3FeHC3HCH4C3HCH2C2FeS2FeS2FeSFeS3FeS2FeS2FeSFeS3FeS2FeSFeH2SFeSHCHC5H3CHC6H5NC2HCHC6H4C5H2C2HC6H5C3HCH3CH2CHCH5CSH3C2NHCHC3SH3CHNHCHC2NC6HCH13C3HCH4C2H2C2NC9H15NC9H4CHSC2H2CHSHCHC2H3SHCFeS2FeS2FeSFeS3CS2HFeS2FeS2FeSFeS3FeCSH5CSC2HC2H2C6H4C5H6C5H3C6H4C6H5C4HNC6HSH11CH3C2H2C2H2NCH6NCH11C2H2CH2C2H2CNHNC6H2CH8CH2C2HCH2C3NH3CH6CH3CHCHC3HCHCHCH7C2HNH2C3HNCFeH2SHCSH2C2H2C2H4CHC2H2CHSH3SCNHFeSCSCHSHFeS2FeS2FeHFeCS2HCH4CHC2SH2C6H4C2HC2HCHC3H4C2HCH2SC2NH2C2NH3NHC2H2CH3CHC3FeHC2HCHFeH2SH2CFeCH5CHCHC3HCH2SH2FeH2CHC2H4CHCHCNC2HFeSFeS2HFeCS2FeS2HFeS2FeS2FeSFeS3HFeCFeS2NHCS2H2SHC4FeH2C2HNCH2C6H4CHC6H6C6H6C2HCHC2HCHNCHC2H3C4H2SHC2H3C2FeHNCH2C2SCHCHNCH3Fe2HCH3C3H6CH2SCSHSHCHCH2C3HSC2H6CH2CHCHC2HNC4SCHCH13CHCSH2CH2CH7CHCHCH2CHC3H2C2H2C2NCFeS2HCHCS2HSHNCFeS2FeS2FeCFeCS2HCHCH2C4H3C6H5SC2H14NCH2CH2SH3FeC2HFeC4HC2HCH2C2H3CHFeNC4H3C2H9C4H2CHCFeHFeC3HC3H2C5HC2SFeSFeSFeCSFeSHFeS2FeS2FeSFeS3FeHSFeS2C2HS2C3SHCH2C6H6C6H4FeH2C2HC6H4CH2C2HSHC4HNC9H16CH3C2FeH3CHFeSN2C9H14NC9HCH10CH4SCSH2C2HSCH2C2H2C2H2CFeH2SHC6HC2H2CH2
_chemical_formula_sum              "Fe128 S256 C960 H1152 N64"
_cell_length_a       82.0625
_cell_length_b       41.3677
_cell_length_c       47.0951
_cell_angle_alpha    89.9163
_cell_angle_beta     89.8064
_cell_angle_gamma    90.864

_space_group_name_H-M_alt    "P 1"
_space_group_IT_number       1

loop_
  _space_group_symop_operation_xyz
  'x, y, z'

loop_
  _atom_site_type_symbol
  _atom_site_label
  _atom_site_symmetry_multiplicity
  _atom_site_fract_x
  _atom_site_fract_y
  _atom_site_fract_z
  _atom_site_occupancy
  Fe  Fe1       1.0  0.04802  0.15243  0.14610  1.0000
  S   S1        1.0  0.02177  0.16695  0.13902  1.0000
  S   S2        1.0  0.06670  0.18244  0.17256  1.0000
  Fe  Fe2       1.0  0.04083  0.08445  0.12295  1.0000
  S   S3        1.0  0.01437  0.09369  0.11497  1.0000
  S   S4        1.0  0.05329  0.03862  0.10869  1.0000
  Fe  Fe3       1.0  0.02285  0.14112  0.09646  1.0000
  S   S5        1.0  0.01181  0.16403  0.05590  1.0000
  Fe  Fe4       1.0  0.01474  0.11858  0.15780  1.0000
  C   C1        1.0  0.22581  0.41124  0.19875  1.0000
  S   S6        1.0  0.04963  0.13078  0.10216  1.0000
  S   S7        1.0  0.04062  0.10508  0.16703  1.0000
  Fe  Fe5       1.0  0.15350  0.28407  0.20784  1.0000
  S   S8        1.0  0.14586  0.30684  0.24915  1.0000
  S   S9        1.0  0.13651  0.25670  0.17631  1.0000
  Fe  Fe6       1.0  0.18918  0.31152  0.21384  1.0000
  S   S10       1.0  0.18346  0.33609  0.25499  1.0000
  S   S11       1.0  0.21403  0.32086  0.19260  1.0000
  Fe  Fe7       1.0  0.16994  0.29032  0.26608  1.0000
  S   S12       1.0  0.17492  0.26803  0.30905  1.0000
  Fe  Fe8       1.0  0.16011  0.35093  0.23446  1.0000
  S   S13       1.0  0.15021  0.40077  0.24404  1.0000
  S   S14       1.0  0.17694  0.26426  0.22582  1.0000
  S   S15       1.0  0.16648  0.32965  0.19219  1.0000
  H   H1        1.0  0.18202  0.42366  0.46880  1.0000
  Fe  Fe9       1.0  0.15653  0.32384  0.46395  1.0000
  S   S16       1.0  0.14669  0.33393  0.42007  1.0000
  C   C2        1.0  0.08674  0.10850  0.13188  1.0000
  H   H2        1.0  0.07300  0.07329  0.17309  1.0000
  S   S17       1.0  0.28526  0.29969  0.24407  1.0000
  H   H3        1.0  0.10397  0.29974  0.17334  1.0000
  H   H4        1.0  0.11009  0.06434  0.13140  1.0000
  C   C3        1.0  0.08272  0.09075  0.17981  1.0000
  C   C4        1.0  0.98705  0.12606  0.28346  1.0000
  H   H5        1.0  0.13132  0.36440  0.20128  1.0000
  C   C5        1.0  0.23369  0.31605  0.20791  1.0000
  C   C6        1.0  0.23590  0.29982  0.23363  1.0000
  C   C7        1.0  0.25175  0.29550  0.24447  1.0000
  C   C8        1.0  0.26557  0.30790  0.23013  1.0000
  C   C9        1.0  0.26334  0.32480  0.20469  1.0000
  C   C10       1.0  0.24751  0.32856  0.19355  1.0000
  H   H6        1.0  0.22544  0.28989  0.24488  1.0000
  H   H7        1.0  0.25330  0.28217  0.26403  1.0000
  H   H8        1.0  0.27383  0.33425  0.19325  1.0000
  H   H9        1.0  0.24598  0.34094  0.17351  1.0000
  C   C11       1.0  0.16712  0.28674  0.33974  1.0000
  C   C12       1.0  0.17267  0.27706  0.36659  1.0000
  C   C13       1.0  0.16662  0.29149  0.39145  1.0000
  C   C14       1.0  0.15479  0.31537  0.38955  1.0000
  C   C15       1.0  0.14921  0.32499  0.36272  1.0000
  C   C16       1.0  0.15544  0.31091  0.33787  1.0000
  H   H10       1.0  0.18162  0.25823  0.36811  1.0000
  H   H11       1.0  0.17097  0.28394  0.41204  1.0000
  H   H12       1.0  0.14007  0.34346  0.36113  1.0000
  H   H13       1.0  0.15109  0.31849  0.31728  1.0000
  C   C17       1.0  0.19767  0.40575  0.21165  1.0000
  C   C18       1.0  0.15265  0.46671  0.23937  1.0000
  C   C19       1.0  0.15482  0.43705  0.22547  1.0000
  C   C20       1.0  0.16034  0.43708  0.19733  1.0000
  H   H14       1.0  0.08817  0.08080  0.19951  1.0000
  H   H15       1.0  0.14823  0.46696  0.26104  1.0000
  H   H16       1.0  0.16180  0.41442  0.18623  1.0000
  C   C21       1.0  0.08616  0.20308  0.17294  1.0000
  C   C22       1.0  0.09602  0.20636  0.14873  1.0000
  C   C23       1.0  0.11126  0.22285  0.15024  1.0000
  C   C24       1.0  0.11704  0.23615  0.17595  1.0000
  C   C25       1.0  0.10722  0.23278  0.20018  1.0000
  C   C26       1.0  0.09191  0.21655  0.19862  1.0000
  H   H17       1.0  0.09190  0.19632  0.12878  1.0000
  H   H18       1.0  0.11869  0.22514  0.13131  1.0000
  H   H19       1.0  0.11146  0.24248  0.22020  1.0000
  H   H20       1.0  0.08450  0.21415  0.21757  1.0000
  H   H21       1.0  0.08550  0.32312  0.17560  1.0000
  H   H22       1.0  0.04068  0.01702  0.16360  1.0000
  C   C27       1.0  0.19707  0.38969  0.42407  1.0000
  H   H23       1.0  0.00506  0.17749  0.48129  1.0000
  C   C28       1.0  0.00393  0.12745  0.24021  1.0000
  H   H24       1.0  0.01558  0.13225  0.23011  1.0000
  C   C29       1.0  0.26429  0.23590  0.18098  1.0000
  S   S18       1.0  0.18031  0.34399  0.47993  1.0000
  H   H25       1.0  0.19336  0.45207  0.44660  1.0000
  H   H26       1.0  0.16403  0.47588  0.41632  1.0000
  C   C30       1.0  0.00218  0.15019  0.02371  1.0000
  H   H27       1.0  0.08180  0.13297  0.13621  1.0000
  H   H28       1.0  0.18817  0.40734  0.22855  1.0000
  H   H29       1.0  0.16817  0.46652  0.16167  1.0000
  H   H30       1.0  0.19390  0.42048  0.19307  1.0000
  H   H31       1.0  0.30787  0.25897  0.21524  1.0000
  H   H32       1.0  0.12161  0.16892  0.21877  1.0000
  H   H33       1.0  0.21638  0.35507  0.42039  1.0000
  C   C31       1.0  0.13417  0.14671  0.15313  1.0000
  S   S19       1.0  0.31322  0.34909  0.47134  1.0000
  C   C32       1.0  0.28105  0.24171  0.18335  1.0000
  C   C33       1.0  0.09882  0.22152  0.44238  1.0000
  H   H34       1.0  0.10704  0.39747  0.20280  1.0000
  H   H35       1.0  0.12989  0.32267  0.19119  1.0000
  H   H36       1.0  0.98614  0.14660  0.44993  1.0000
  H   H37       1.0  0.99618  0.06314  0.28795  1.0000
  H   H38       1.0  0.98593  0.13721  0.09193  1.0000
  H   H39       1.0  0.10140  0.38730  0.16748  1.0000
  C   C34       1.0  0.10895  0.34342  0.27460  1.0000
  H   H40       1.0  0.15847  0.39403  0.44966  1.0000
  H   H41       1.0  0.98914  0.19516  0.09693  1.0000
  C   C35       1.0  0.09379  0.29637  0.25901  1.0000
  C   C36       1.0  0.09894  0.32462  0.17250  1.0000
  H   H42       1.0  0.10665  0.27817  0.47005  1.0000
  H   H43       1.0  0.20690  0.33370  0.37410  1.0000
  C   C37       1.0  0.04824  0.99990  0.12258  1.0000
  N   N1        1.0  0.27022  0.30791  0.42096  1.0000
  C   C38       1.0  0.27758  0.28517  0.44147  1.0000
  C   C39       1.0  0.26945  0.34034  0.43430  1.0000
  C   C40       1.0  0.25357  0.29648  0.41353  1.0000
  C   C41       1.0  0.24891  0.28791  0.38541  1.0000
  C   C42       1.0  0.24139  0.29355  0.43489  1.0000
  C   C43       1.0  0.23299  0.27735  0.37934  1.0000
  C   C44       1.0  0.22556  0.28286  0.42866  1.0000
  C   C45       1.0  0.22136  0.27481  0.40091  1.0000
  H   H44       1.0  0.00796  0.02760  0.28626  1.0000
  S   S20       1.0  0.15861  0.27620  0.48655  1.0000
  H   H45       1.0  0.26283  0.33988  0.45490  1.0000
  H   H46       1.0  0.25735  0.28885  0.36777  1.0000
  H   H47       1.0  0.24409  0.29919  0.45674  1.0000
  H   H48       1.0  0.22967  0.27076  0.35779  1.0000
  H   H49       1.0  0.20171  0.39757  0.44436  1.0000
  H   H50       1.0  0.20909  0.26636  0.39614  1.0000
  H   H51       1.0  0.22353  0.42830  0.18097  1.0000
  C   C46       1.0  0.99832  0.11759  0.01859  1.0000
  C   C47       1.0  0.12171  0.15607  0.19871  1.0000
  H   H52       1.0  0.00152  0.09958  0.03421  1.0000
  H   H53       1.0  0.20975  0.39762  0.26440  1.0000
  C   C48       1.0  0.10059  0.31474  0.28087  1.0000
  H   H54       1.0  0.26330  0.35788  0.42015  1.0000
  H   H55       1.0  0.01245  0.14010  0.28216  1.0000
  C   C49       1.0  0.09545  0.30641  0.23075  1.0000
  C   C50       1.0  0.99069  0.11690  0.22384  1.0000
  H   H56       1.0  0.14934  0.43293  0.44529  1.0000
  Fe  Fe10      1.0  0.31101  0.31974  0.23520  1.0000
  H   H57       1.0  0.18213  0.46488  0.39717  1.0000
  S   S21       1.0  0.99228  0.11080  0.18641  1.0000
  H   H58       1.0  0.23085  0.39819  0.25373  1.0000
  H   H59       1.0  0.00060  0.19836  0.00649  1.0000
  C   C51       1.0  0.16388  0.46660  0.18342  1.0000
  C   C52       1.0  0.21819  0.39424  0.24610  1.0000
  C   C53       1.0  0.20038  0.35302  0.38446  1.0000
  H   H60       1.0  0.10115  0.33336  0.15042  1.0000
  H   H61       1.0  0.10055  0.19545  0.43749  1.0000
  C   C54       1.0  0.10183  0.06351  0.15012  1.0000
  H   H62       1.0  0.98597  0.02291  0.35521  1.0000
  H   H63       1.0  0.12039  0.19547  0.47764  1.0000
  H   H64       1.0  0.30861  0.21788  0.22693  1.0000
  C   C55       1.0  0.98354  0.10650  0.47887  1.0000
  N   N2        1.0  0.21398  0.41600  0.22223  1.0000
  H   H65       1.0  0.98863  0.19389  0.13466  1.0000
  N   N3        1.0  0.17307  0.42822  0.42587  1.0000
  H   H66       1.0  0.98810  0.02091  0.20542  1.0000
  H   H67       1.0  0.08735  0.27395  0.26394  1.0000
  N   N4        1.0  0.31020  0.22382  0.18153  1.0000
  H   H68       1.0  0.21731  0.36831  0.23975  1.0000
  H   H69       1.0  0.10877  0.05348  0.16831  1.0000
  N   N5        1.0  0.09995  0.22746  0.47339  1.0000
  C   C56       1.0  0.00210  0.13196  0.26977  1.0000
  C   C57       1.0  0.99780  0.17305  0.00291  1.0000
  H   H70       1.0  0.19751  0.38014  0.20438  1.0000
  C   C58       1.0  0.28144  0.31060  0.39618  1.0000
  C   C59       1.0  0.17036  0.45540  0.40585  1.0000
  C   C60       1.0  0.22956  0.46383  0.24193  1.0000
  C   C61       1.0  0.11065  0.35370  0.24644  1.0000
  H   H71       1.0  0.24049  0.44962  0.24313  1.0000
  H   H72       1.0  0.28182  0.35019  0.43925  1.0000
  H   H73       1.0  0.31524  0.27173  0.35974  1.0000
  C   C62       1.0  0.10033  0.37909  0.18995  1.0000
  H   H74       1.0  0.09193  0.04579  0.14466  1.0000
  H   H75       1.0  0.31239  0.48858  0.26184  1.0000
  C   C63       1.0  0.28617  0.18615  0.17029  1.0000
  C   C64       1.0  0.31536  0.24939  0.16115  1.0000
  H   H76       1.0  0.18915  0.46252  0.22423  1.0000
  H   H77       1.0  0.11750  0.37582  0.24270  1.0000
  C   C65       1.0  0.12454  0.34690  0.18765  1.0000
  H   H78       1.0  0.09001  0.29080  0.21494  1.0000
  H   H79       1.0  0.26470  0.15693  0.16188  1.0000
  H   H80       1.0  0.08724  0.37997  0.19619  1.0000
  H   H81       1.0  0.18210  0.35513  0.35207  1.0000
  H   H82       1.0  0.16253  0.44828  0.38762  1.0000
  H   H83       1.0  0.00546  0.02020  0.33826  1.0000
  H   H84       1.0  0.16635  0.39671  0.37568  1.0000
  H   H85       1.0  0.23865  0.41445  0.20570  1.0000
  H   H86       1.0  0.12717  0.35387  0.16525  1.0000
  H   H87       1.0  0.14992  0.40503  0.41630  1.0000
  H   H88       1.0  0.08684  0.22851  0.43354  1.0000
  C   C66       1.0  0.10414  0.33533  0.22358  1.0000
  H   H89       1.0  0.29013  0.29300  0.44748  1.0000
  H   H90       1.0  0.21656  0.28045  0.44556  1.0000
  H   H91       1.0  0.27845  0.26043  0.43236  1.0000
  N   N6        1.0  0.10682  0.34610  0.19388  1.0000
  C   C67       1.0  0.12158  0.12496  0.14620  1.0000
  H   H92       1.0  0.27059  0.28332  0.46164  1.0000
  C   C68       1.0  0.18271  0.40267  0.41190  1.0000
  H   H93       1.0  0.07647  0.11377  0.18503  1.0000
  H   H94       1.0  0.14379  0.15208  0.13794  1.0000
  C   C69       1.0  0.29253  0.21699  0.17827  1.0000
  H   H95       1.0  0.17388  0.46216  0.46076  1.0000
  H   H96       1.0  0.10825  0.23567  0.43037  1.0000
  H   H97       1.0  0.08518  0.27029  0.46958  1.0000
  C   C70       1.0  0.13423  0.16223  0.17934  1.0000
  H   H98       1.0  0.14374  0.17980  0.18437  1.0000
  C   C71       1.0  0.11700  0.22094  0.48200  1.0000
  S   S22       1.0  0.98584  0.13066  0.32109  1.0000
  H   H99       1.0  0.06662  0.22816  0.46732  1.0000
  C   C72       1.0  0.99319  0.03108  0.33645  1.0000
  C   C73       1.0  0.08764  0.20723  0.48856  1.0000
  H   H100      1.0  0.22491  0.38632  0.18989  1.0000
  H   H101      1.0  0.29390  0.16587  0.16596  1.0000
  C   C74       1.0  0.18103  0.44199  0.45155  1.0000
  H   H102      1.0  0.11445  0.35753  0.29154  1.0000
  C   C75       1.0  0.26935  0.18063  0.16785  1.0000
  H   H103      1.0  0.29372  0.31989  0.40253  1.0000
  H   H104      1.0  0.24542  0.20105  0.17157  1.0000
  C   C76       1.0  0.15702  0.41458  0.43462  1.0000
  H   H105      1.0  0.28494  0.26576  0.18955  1.0000
  H   H106      1.0  0.98972  0.03140  0.26480  1.0000
  N   N7        1.0  0.09518  0.09570  0.15719  1.0000
  H   H107      1.0  0.09487  0.11069  0.11308  1.0000
  C   C77       1.0  0.25844  0.20542  0.17326  1.0000
  H   H108      1.0  0.28360  0.28661  0.38623  1.0000
  H   H109      1.0  0.27683  0.32760  0.37986  1.0000
  H   H110      1.0  0.25579  0.25514  0.18542  1.0000
  C   C78       1.0  0.10896  0.13465  0.19192  1.0000
  C   C79       1.0  0.21471  0.45010  0.23182  1.0000
  H   H111      1.0  0.12197  0.11388  0.12546  1.0000
  C   C80       1.0  0.10856  0.11825  0.16537  1.0000
  H   H112      1.0  0.07639  0.09238  0.12541  1.0000
  H   H113      1.0  0.09938  0.13208  0.20755  1.0000
  H   H114      1.0  0.09951  0.30661  0.30270  1.0000
  C   C81       1.0  0.18641  0.36522  0.37199  1.0000
  C   C82       1.0  0.20568  0.36514  0.41048  1.0000
  C   C83       1.0  0.98965  0.13669  0.47024  1.0000
  C   C84       1.0  0.20100  0.47068  0.23120  1.0000
  H   H115      1.0  0.12595  0.23667  0.47039  1.0000
  C   C85       1.0  0.17755  0.38932  0.38560  1.0000
  H   H116      1.0  0.30876  0.27232  0.16453  1.0000
  C   C86       1.0  0.31348  0.23525  0.21083  1.0000
  H   H117      1.0  0.31310  0.24173  0.13886  1.0000
  H   H118      1.0  0.13226  0.47793  0.48565  1.0000
  C   C87       1.0  0.99521  0.03636  0.28594  1.0000
  C   C88       1.0  0.09683  0.26215  0.47891  1.0000
  H   H119      1.0  0.24197  0.48190  0.16988  1.0000
  H   H120      1.0  0.04604  0.19518  0.49225  1.0000
  H   H121      1.0  0.99472  0.05787  0.33842  1.0000
  C   C89       1.0  0.00038  0.15410  0.48800  1.0000
  C   C90       1.0  0.07078  0.21076  0.48270  1.0000
  N   N8        1.0  0.98526  0.02196  0.30930  1.0000
  H   H122      1.0  0.30153  0.49629  0.43934  1.0000
  H   H123      1.0  0.98623  0.13263  0.12952  1.0000
  C   C91       1.0  0.15627  0.49617  0.22555  1.0000
  C   C92       1.0  0.16194  0.49627  0.19752  1.0000
  C   C93       1.0  0.23061  0.49618  0.25057  1.0000
  H   H124      1.0  0.05948  0.22502  0.72362  1.0000
  H   H125      1.0  0.27308  0.36295  0.58783  1.0000
  Fe  Fe11      1.0  0.02881  0.15006  0.64192  1.0000
  S   S23       1.0  0.05004  0.11694  0.64631  1.0000
  S   S24       1.0  0.01508  0.17543  0.67767  1.0000
  Fe  Fe12      1.0  0.02841  0.14241  0.57663  1.0000
  S   S25       1.0  0.04924  0.10765  0.57683  1.0000
  S   S26       1.0  0.01844  0.16405  0.53616  1.0000
  Fe  Fe13      1.0  0.03664  0.08521  0.61497  1.0000
  S   S27       1.0  0.02852  0.03404  0.62711  1.0000
  Fe  Fe14      1.0  0.06069  0.14292  0.60777  1.0000
  S   S28       1.0  0.08748  0.15956  0.60487  1.0000
  S   S29       1.0  0.01490  0.11770  0.61215  1.0000
  S   S30       1.0  0.04038  0.17829  0.60592  1.0000
  Fe  Fe15      1.0  0.14508  0.29986  0.52265  1.0000
  C   C94       1.0  0.06343  0.16934  0.51694  1.0000
  S   S31       1.0  0.12072  0.28212  0.54225  1.0000
  C   C95       1.0  0.24710  0.36955  0.58455  1.0000
  C   C96       1.0  0.09751  0.28251  0.69254  1.0000
  C   C97       1.0  0.17382  0.47815  0.52429  1.0000
  H   H126      1.0  0.05762  0.02245  0.59260  1.0000
  S   S32       1.0  0.16813  0.31856  0.54358  1.0000
  H   H127      1.0  0.08325  0.14790  0.53944  1.0000
  H   H128      1.0  0.99424  0.05845  0.63922  1.0000
  C   C98       1.0  0.26021  0.31756  0.58533  1.0000
  C   C99       1.0  0.99345  0.16240  0.75507  1.0000
  C   C100      1.0  0.24510  0.30220  0.58248  1.0000
  H   H129      1.0  0.05068  0.17964  0.67817  1.0000
  H   H130      1.0  0.04002  0.22026  0.70704  1.0000
  H   H131      1.0  0.07607  0.27134  0.71590  1.0000
  S   S33       1.0  0.27570  0.34265  0.51567  1.0000
  C   C101      1.0  0.00652  0.03651  0.86758  1.0000
  C   C102      1.0  0.21443  0.39234  0.60624  1.0000
  H   H132      1.0  0.21974  0.30672  0.57705  1.0000
  H   H133      1.0  0.06648  0.18670  0.65285  1.0000
  H   H134      1.0  0.21339  0.37512  0.62438  1.0000
  H   H135      1.0  0.19882  0.33834  0.59095  1.0000
  H   H136      1.0  0.08148  0.22608  0.63318  1.0000
  H   H137      1.0  0.19079  0.37146  0.57160  1.0000
  C   C103      1.0  0.23151  0.35475  0.58105  1.0000
  C   C104      1.0  0.09645  0.19318  0.58632  1.0000
  C   C105      1.0  0.11353  0.19519  0.58334  1.0000
  C   C106      1.0  0.12119  0.22186  0.56965  1.0000
  C   C107      1.0  0.11187  0.24734  0.55929  1.0000
  C   C108      1.0  0.09480  0.24537  0.56238  1.0000
  C   C109      1.0  0.08712  0.21838  0.57545  1.0000
  H   H138      1.0  0.12091  0.17596  0.59172  1.0000
  H   H139      1.0  0.13432  0.22291  0.56756  1.0000
  H   H140      1.0  0.23815  0.24772  0.51625  1.0000
  H   H141      1.0  0.07398  0.21727  0.57736  1.0000
  S   S34       1.0  0.99993  0.12777  0.80453  1.0000
  H   H142      1.0  0.01313  0.04317  0.69224  1.0000
  C   C110      1.0  0.99912  0.11106  0.52282  1.0000
  H   H143      1.0  0.10222  0.29846  0.70892  1.0000
  H   H144      1.0  0.24858  0.39550  0.58551  1.0000
  H   H145      1.0  0.20737  0.41367  0.55342  1.0000
  Fe  Fe16      1.0  0.16579  0.36318  0.51642  1.0000
  H   H146      1.0  0.01491  0.08131  0.85035  1.0000
  C   C111      1.0  0.09183  0.18386  0.50941  1.0000
  C   C112      1.0  0.21854  0.39891  0.55584  1.0000
  H   H147      1.0  0.04633  0.10048  0.88990  1.0000
  C   C113      1.0  0.00391  0.14155  0.76933  1.0000
  H   H148      1.0  0.01145  0.08235  0.70808  1.0000
  C   C114      1.0  0.99716  0.17277  0.72718  1.0000
  C   C115      1.0  0.01109  0.16174  0.71288  1.0000
  C   C116      1.0  0.02153  0.14080  0.72707  1.0000
  C   C117      1.0  0.01801  0.13096  0.75518  1.0000
  H   H149      1.0  0.20317  0.40709  0.60589  1.0000
  C   C118      1.0  0.23934  0.27368  0.51387  1.0000
  H   H150      1.0  0.03240  0.13240  0.71651  1.0000
  H   H151      1.0  0.02621  0.11488  0.76600  1.0000
  H   H152      1.0  0.22875  0.41633  0.55934  1.0000
  H   H153      1.0  0.07145  0.18406  0.68975  1.0000
  H   H154      1.0  0.22476  0.40923  0.61083  1.0000
  C   C119      1.0  0.22525  0.29223  0.51024  1.0000
  H   H155      1.0  0.00273  0.10104  0.54303  1.0000
  H   H156      1.0  0.21630  0.34016  0.50358  1.0000
  H   H157      1.0  0.04897  0.25966  0.70915  1.0000
  H   H158      1.0  0.99016  0.09125  0.73821  1.0000
  H   H159      1.0  0.08740  0.26484  0.55451  1.0000
  S   S35       1.0  0.17416  0.41247  0.53238  1.0000
  C   C120      1.0  0.00282  0.01859  0.89187  1.0000
  H   H160      1.0  0.24442  0.27606  0.58093  1.0000
  H   H161      1.0  0.04699  0.26676  0.65730  1.0000
  H   H162      1.0  0.00122  0.99794  0.73883  1.0000
  C   C121      1.0  0.00818  0.06782  0.68915  1.0000
  H   H163      1.0  0.11819  0.29026  0.66488  1.0000
  C   C122      1.0  0.98829  0.09380  0.50519  1.0000
  C   C123      1.0  0.00516  0.14132  0.51430  1.0000
  C   C124      1.0  0.25496  0.28848  0.51492  1.0000
  H   H164      1.0  0.03677  0.22798  0.65670  1.0000
  N   N9        1.0  0.99035  0.06659  0.68406  1.0000
  H   H165      1.0  0.03577  0.11538  0.85923  1.0000
  H   H166      1.0  0.98753  0.08289  0.98967  1.0000
  C   C125      1.0  0.15047  0.44872  0.50589  1.0000
  H   H167      1.0  0.05415  0.15509  0.52788  1.0000
  C   C126      1.0  0.22698  0.32571  0.50697  1.0000
  C   C127      1.0  0.10654  0.27795  0.66777  1.0000
  H   H168      1.0  0.99237  0.02256  0.65974  1.0000
  H   H169      1.0  0.10758  0.25395  0.62729  1.0000
  C   C128      1.0  0.25660  0.32211  0.51261  1.0000
  C   C129      1.0  0.24255  0.34053  0.50840  1.0000
  N   N10       1.0  0.21675  0.37484  0.57912  1.0000
  C   C130      1.0  0.23092  0.32034  0.58022  1.0000
  H   H170      1.0  0.05378  0.23580  0.63377  1.0000
  H   H171      1.0  0.01491  0.07892  0.67089  1.0000
  N   N11       1.0  0.02196  0.11631  0.89853  1.0000
  C   C131      1.0  0.03753  0.11885  0.88245  1.0000
  C   C132      1.0  0.01021  0.13907  0.88596  1.0000
  C   C133      1.0  0.02528  0.12712  0.92807  1.0000
  C   C134      1.0  0.01530  0.08285  0.89675  1.0000
  C   C135      1.0  0.01113  0.06404  0.92114  1.0000
  H   H172      1.0  0.26564  0.27398  0.51829  1.0000
  H   H173      1.0  0.20257  0.34211  0.55318  1.0000
  H   H174      1.0  0.00209  0.01837  0.93744  1.0000
  C   C136      1.0  0.16543  0.44870  0.52005  1.0000
  Fe  Fe17      1.0  0.30192  0.32553  0.50979  1.0000
  H   H175      1.0  0.04338  0.14316  0.88481  1.0000
  H   H176      1.0  0.18540  0.47837  0.53521  1.0000
  H   H177      1.0  0.00777  0.13387  0.86322  1.0000
  H   H178      1.0  0.01465  0.16459  0.88706  1.0000
  H   H179      1.0  0.99831  0.13778  0.89729  1.0000
  H   H180      1.0  0.03406  0.11102  0.93891  1.0000
  H   H181      1.0  0.03053  0.15210  0.92874  1.0000
  H   H182      1.0  0.01389  0.12794  0.94088  1.0000
  H   H183      1.0  0.01222  0.07339  0.94247  1.0000
  C   C137      1.0  0.01266  0.06813  0.86988  1.0000
  H   H184      1.0  0.14386  0.42621  0.50265  1.0000
  H   H185      1.0  0.30447  0.47118  0.53284  1.0000
  C   C138      1.0  0.10058  0.25754  0.64663  1.0000
  N   N12       1.0  0.06008  0.22868  0.67791  1.0000
  C   C139      1.0  0.04895  0.24028  0.65547  1.0000
  C   C140      1.0  0.06228  0.19334  0.67452  1.0000
  C   C141      1.0  0.05190  0.23378  0.70572  1.0000
  C   C142      1.0  0.07603  0.24563  0.67509  1.0000
  C   C143      1.0  0.08244  0.26668  0.69628  1.0000
  C   C144      1.0  0.08557  0.24164  0.65019  1.0000
  H   H186      1.0  0.27124  0.30344  0.58591  1.0000
  H   H187      1.0  0.00444  0.02603  0.84679  1.0000
  C   C145      1.0  0.98762  0.04753  0.65773  1.0000
  H   H188      1.0  0.22068  0.38678  0.53517  1.0000
  C   C146      1.0  0.20164  0.35573  0.57351  1.0000
  S   S36       1.0  0.31153  0.27636  0.49957  1.0000
  C   C147      1.0  0.98982  0.16365  0.97750  1.0000
  C   C148      1.0  0.26121  0.35115  0.58640  1.0000
  C   C149      1.0  0.05890  0.19206  0.49676  1.0000
  H   H189      1.0  0.99052  0.11080  0.65940  1.0000
  C   C150      1.0  0.99029  0.10819  0.99321  1.0000
  H   H190      1.0  0.10424  0.17988  0.51595  1.0000
  S   S37       1.0  0.20578  0.27278  0.51015  1.0000
  C   C151      1.0  0.07983  0.16521  0.52323  1.0000
  H   H191      1.0  0.98358  0.07045  0.51196  1.0000
  C   C152      1.0  0.98592  0.13109  0.97242  1.0000
  Fe  Fe18      1.0  0.18152  0.29861  0.50569  1.0000
  C   C153      1.0  0.00513  0.03231  0.91858  1.0000
  S   S38       1.0  0.14187  0.34670  0.49862  1.0000
  C   C154      1.0  0.05210  0.99941  0.59830  1.0000
  H   H192      1.0  0.09621  0.26698  0.50212  1.0000
  H   H193      1.0  0.98905  0.18923  0.71655  1.0000
  C   C155      1.0  0.98461  0.09988  0.67854  1.0000
  H   H194      1.0  0.98744  0.11668  0.69624  1.0000
  H   H195      1.0  0.98664  0.18170  0.96190  1.0000
  C   C156      1.0  0.03788  0.99846  0.61470  1.0000
  H   H196      1.0  0.24375  0.36649  0.50631  1.0000
  H   H197      1.0  0.11893  0.22600  0.50493  1.0000
  C   C157      1.0  0.14392  0.47806  0.49631  1.0000
  Fe  Fe19      1.0  0.02576  0.80536  0.09256  1.0000
  S   S39       1.0  0.05094  0.81934  0.10915  1.0000
  S   S40       1.0  0.02325  0.80714  0.04316  1.0000
  Fe  Fe20      1.0  0.01286  0.79594  0.15451  1.0000
  S   S41       1.0  0.03696  0.80853  0.17390  1.0000
  H   H198      1.0  0.05541  0.97511  0.08439  1.0000
  Fe  Fe21      1.0  0.03762  0.84912  0.14172  1.0000
  S   S42       1.0  0.04202  0.89861  0.16182  1.0000
  Fe  Fe22      1.0  0.04836  0.77760  0.14006  1.0000
  S   S43       1.0  0.06591  0.73537  0.14970  1.0000
  S   S44       1.0  0.01288  0.83783  0.12374  1.0000
  S   S45       1.0  0.02381  0.76223  0.12208  1.0000
  S   S46       1.0  0.17925  0.60178  0.45977  1.0000
  Fe  Fe23      1.0  0.16701  0.64913  0.45198  1.0000
  S   S47       1.0  0.16740  0.67487  0.40971  1.0000
  Fe  Fe24      1.0  0.16507  0.58082  0.20312  1.0000
  S   S48       1.0  0.17593  0.62759  0.18592  1.0000
  S   S49       1.0  0.16712  0.53285  0.17984  1.0000
  Fe  Fe25      1.0  0.15496  0.61229  0.25838  1.0000
  S   S50       1.0  0.16535  0.66058  0.24598  1.0000
  S   S51       1.0  0.14247  0.60107  0.30011  1.0000
  Fe  Fe26      1.0  0.15309  0.65124  0.20366  1.0000
  S   S52       1.0  0.13894  0.69459  0.18489  1.0000
  Fe  Fe27      1.0  0.18709  0.63321  0.22948  1.0000
  S   S53       1.0  0.21299  0.64221  0.24672  1.0000
  S   S54       1.0  0.14171  0.60374  0.21726  1.0000
  S   S55       1.0  0.17721  0.58548  0.24533  1.0000
  S   S56       1.0  0.99019  0.78412  0.18139  1.0000
  C   C158      1.0  0.99755  0.94660  0.17984  1.0000
  S   S57       1.0  0.28427  0.66539  0.19329  1.0000
  H   H199      1.0  0.28438  0.55705  0.23341  1.0000
  C   C159      1.0  0.26151  0.51587  0.17870  1.0000
  C   C160      1.0  0.09790  0.70056  0.25348  1.0000
  S   S58       1.0  0.14353  0.54385  0.48857  1.0000
  C   C161      1.0  0.23261  0.64831  0.23093  1.0000
  C   C162      1.0  0.24643  0.64790  0.24856  1.0000
  C   C163      1.0  0.26224  0.65321  0.23744  1.0000
  C   C164      1.0  0.26449  0.65931  0.20845  1.0000
  C   C165      1.0  0.25067  0.65967  0.19075  1.0000
  C   C166      1.0  0.23484  0.65400  0.20185  1.0000
  H   H200      1.0  0.24493  0.64360  0.27105  1.0000
  H   H201      1.0  0.27268  0.65299  0.25140  1.0000
  H   H202      1.0  0.25221  0.66437  0.16829  1.0000
  H   H203      1.0  0.22436  0.65456  0.18798  1.0000
  H   H204      1.0  0.22654  0.67789  0.49072  1.0000
  H   H205      1.0  0.12884  0.64737  0.26073  1.0000
  C   C167      1.0  0.15992  0.65431  0.37970  1.0000
  C   C168      1.0  0.15347  0.62293  0.38175  1.0000
  C   C169      1.0  0.14808  0.60680  0.35718  1.0000
  C   C170      1.0  0.14955  0.62159  0.33045  1.0000
  C   C171      1.0  0.15608  0.65292  0.32842  1.0000
  C   C172      1.0  0.16098  0.66942  0.35305  1.0000
  H   H206      1.0  0.15256  0.61116  0.40224  1.0000
  H   H207      1.0  0.14291  0.58265  0.35884  1.0000
  H   H208      1.0  0.15706  0.66466  0.30797  1.0000
  H   H209      1.0  0.16568  0.69392  0.35144  1.0000
  C   C173      1.0  0.08634  0.72475  0.15946  1.0000
  C   C174      1.0  0.09920  0.74738  0.16068  1.0000
  C   C175      1.0  0.11508  0.73763  0.16842  1.0000
  C   C176      1.0  0.11847  0.70519  0.17526  1.0000
  C   C177      1.0  0.10560  0.68255  0.17400  1.0000
  C   C178      1.0  0.08975  0.69226  0.16607  1.0000
  H   H210      1.0  0.09694  0.77243  0.15566  1.0000
  H   H211      1.0  0.12485  0.75547  0.16914  1.0000
  H   H212      1.0  0.10787  0.65746  0.17881  1.0000
  H   H213      1.0  0.08000  0.67439  0.16518  1.0000
  C   C179      1.0  0.04349  0.93712  0.14542  1.0000
  C   C180      1.0  0.04058  0.96474  0.16197  1.0000
  H   H214      1.0  0.22006  0.52010  0.18198  1.0000
  C   C181      1.0  0.05102  0.97230  0.10595  1.0000
  C   C182      1.0  0.04841  0.94101  0.11716  1.0000
  H   H215      1.0  0.03695  0.96192  0.18394  1.0000
  H   H216      1.0  0.05082  0.91996  0.10429  1.0000
  C   C183      1.0  0.99434  0.78452  0.01676  1.0000
  H   H217      1.0  0.12476  0.73350  0.27534  1.0000
  H   H218      1.0  0.27670  0.60526  0.16833  1.0000
  C   C184      1.0  0.08301  0.74235  0.22752  1.0000
  N   N13       1.0  0.98567  0.89132  0.19012  1.0000
  N   N14       1.0  0.06411  0.74466  0.04807  1.0000
  S   S59       1.0  0.99122  0.77861  0.43732  1.0000
  C   C185      1.0  0.04269  0.99599  0.15050  1.0000
  C   C186      1.0  0.00937  0.80080  0.01387  1.0000
  H   H219      1.0  0.99954  0.97810  0.27088  1.0000
  C   C187      1.0  0.11010  0.68051  0.29695  1.0000
  C   C188      1.0  0.26595  0.54775  0.18732  1.0000
  H   H220      1.0  0.31569  0.56277  0.42336  1.0000
  H   H221      1.0  0.10630  0.70860  0.10584  1.0000
  H   H222      1.0  0.99688  0.91961  0.27125  1.0000
  C   C189      1.0  0.29528  0.53428  0.18244  1.0000
  H   H223      1.0  0.13819  0.69988  0.27449  1.0000
  C   C190      1.0  0.99628  0.81587  0.26303  1.0000
  H   H224      1.0  0.05859  0.79549  0.04571  1.0000
  C   C191      1.0  0.07842  0.72411  0.05336  1.0000
  H   H225      1.0  0.00671  0.99478  0.17134  1.0000
  S   S60       1.0  0.14457  0.63688  0.47758  1.0000
  H   H226      1.0  0.00591  0.93642  0.16453  1.0000
  H   H227      1.0  0.03593  0.70011  0.45199  1.0000
  H   H228      1.0  0.00502  0.87965  0.21909  1.0000
  H   H229      1.0  0.30798  0.54419  0.18361  1.0000
  C   C192      1.0  0.09770  0.68210  0.03926  1.0000
  C   C193      1.0  0.08322  0.68191  0.25384  1.0000
  Fe  Fe28      1.0  0.15794  0.59120  0.48856  1.0000
  H   H230      1.0  0.15464  0.51882  0.23660  1.0000
  C   C194      1.0  0.23672  0.55877  0.19257  1.0000
  C   C195      1.0  0.99182  0.96743  0.28707  1.0000
  C   C196      1.0  0.99038  0.93367  0.28693  1.0000
  H   H231      1.0  0.05799  0.67825  0.24114  1.0000
  C   C197      1.0  0.24512  0.50611  0.17692  1.0000
  H   H232      1.0  0.19155  0.51824  0.23849  1.0000
  C   C198      1.0  0.10021  0.70675  0.08543  1.0000
  C   C199      1.0  0.25302  0.56875  0.19435  1.0000
  H   H233      1.0  0.22709  0.57557  0.19778  1.0000
  H   H234      1.0  0.08311  0.74280  0.09601  1.0000
  C   C200      1.0  0.98360  0.98629  0.30777  1.0000
  C   C201      1.0  0.99814  0.98012  0.18362  1.0000
  C   C202      1.0  0.99958  0.80690  0.23473  1.0000
  N   N15       1.0  0.28306  0.55976  0.18774  1.0000
  C   C203      1.0  0.05148  0.73792  0.06998  1.0000
  H   H235      1.0  0.05558  0.74483  0.09162  1.0000
  C   C204      1.0  0.98562  0.94468  0.47630  1.0000
  N   N16       1.0  0.11291  0.68769  0.26642  1.0000
  H   H236      1.0  0.10802  0.63794  0.25422  1.0000
  H   H237      1.0  0.29996  0.58169  0.21726  1.0000
  H   H238      1.0  0.10067  0.66130  0.30027  1.0000
  H   H239      1.0  0.08272  0.65821  0.26348  1.0000
  H   H240      1.0  0.08293  0.76543  0.21654  1.0000
  H   H241      1.0  0.11594  0.66956  0.07006  1.0000
  C   C205      1.0  0.21694  0.51575  0.24936  1.0000
  C   C206      1.0  0.99312  0.79037  0.47312  1.0000
  C   C207      1.0  0.06889  0.72328  0.22798  1.0000
  S   S61       1.0  0.17965  0.67505  0.48781  1.0000
  H   H242      1.0  0.11938  0.66153  0.22878  1.0000
  C   C208      1.0  0.28690  0.57435  0.21577  1.0000
  C   C209      1.0  0.10562  0.68471  0.06533  1.0000
  H   H243      1.0  0.07390  0.78591  0.07096  1.0000
  C   C210      1.0  0.11742  0.65736  0.25190  1.0000
  C   C211      1.0  0.12716  0.71021  0.26444  1.0000
  C   C212      1.0  0.09738  0.73124  0.23981  1.0000
  C   C213      1.0  0.31343  0.50530  0.44767  1.0000
  H   H244      1.0  0.28002  0.59678  0.21989  1.0000
  H   H245      1.0  0.05172  0.71418  0.01759  1.0000
  C   C214      1.0  0.98642  0.92663  0.19534  1.0000
  H   H246      1.0  0.01168  0.88800  0.18360  1.0000
  C   C215      1.0  0.20219  0.50299  0.23966  1.0000
  H   H247      1.0  0.10615  0.70247  0.30856  1.0000
  H   H248      1.0  0.10797  0.74682  0.23761  1.0000
  C   C216      1.0  0.04132  0.72381  0.45846  1.0000
  H   H249      1.0  0.03520  0.89843  0.49007  1.0000
  H   H250      1.0  0.01133  0.81259  0.22539  1.0000
  C   C217      1.0  0.01256  0.71791  0.49242  1.0000
  H   H251      1.0  0.01918  0.79301  0.47042  1.0000
  H   H252      1.0  0.30572  0.53560  0.39933  1.0000
  H   H253      1.0  0.13055  0.71522  0.24189  1.0000
  H   H254      1.0  0.06500  0.74515  0.00223  1.0000
  H   H255      1.0  0.99139  0.89431  0.14525  1.0000
  H   H256      1.0  0.05798  0.73162  0.21746  1.0000
  C   C218      1.0  0.28522  0.58485  0.16547  1.0000
  H   H257      1.0  0.29439  0.51463  0.19859  1.0000
  C   C219      1.0  0.08687  0.72624  0.07958  1.0000
  N   N17       1.0  0.21140  0.65746  0.34844  1.0000
  C   C220      1.0  0.20286  0.68824  0.35356  1.0000
  C   C221      1.0  0.22112  0.66147  0.32193  1.0000
  C   C222      1.0  0.19910  0.63145  0.34321  1.0000
  C   C223      1.0  0.22129  0.64948  0.37371  1.0000
  C   C224      1.0  0.23862  0.64855  0.37307  1.0000
  C   C225      1.0  0.21361  0.64335  0.40033  1.0000
  C   C226      1.0  0.24757  0.64182  0.39759  1.0000
  C   C227      1.0  0.22268  0.63643  0.42463  1.0000
  C   C228      1.0  0.23962  0.63571  0.42327  1.0000
  H   H258      1.0  0.21168  0.70832  0.35788  1.0000
  H   H259      1.0  0.19532  0.69529  0.33499  1.0000
  H   H260      1.0  0.19449  0.68669  0.37213  1.0000
  H   H261      1.0  0.23005  0.68189  0.32344  1.0000
  H   H262      1.0  0.21323  0.66710  0.30338  1.0000
  H   H263      1.0  0.22765  0.63895  0.31637  1.0000
  H   H264      1.0  0.19009  0.62899  0.36076  1.0000
  H   H265      1.0  0.19186  0.63612  0.32366  1.0000
  H   H266      1.0  0.20503  0.60763  0.34050  1.0000
  H   H267      1.0  0.24559  0.65322  0.35398  1.0000
  H   H268      1.0  0.20050  0.64431  0.40267  1.0000
  H   H269      1.0  0.26079  0.64165  0.39680  1.0000
  H   H270      1.0  0.21656  0.63189  0.44477  1.0000
  H   H271      1.0  0.24663  0.63067  0.44224  1.0000
  H   H272      1.0  0.12134  0.67143  0.30736  1.0000
  N   N18       1.0  0.04345  0.72579  0.48975  1.0000
  C   C229      1.0  0.06898  0.69314  0.24117  1.0000
  C   C230      1.0  0.08428  0.70143  0.03322  1.0000
  C   C231      1.0  0.98771  0.99481  0.20290  1.0000
  H   H273      1.0  0.25541  0.59341  0.20074  1.0000
  Fe  Fe29      1.0  0.30868  0.65921  0.21599  1.0000
  C   C232      1.0  0.05639  0.73943  0.01990  1.0000
  H   H274      1.0  0.00553  0.82870  0.27508  1.0000
  H   H275      1.0  0.21777  0.54094  0.25568  1.0000
  H   H276      1.0  0.10196  0.66483  0.02372  1.0000
  H   H277      1.0  0.01116  0.71690  0.46964  1.0000
  C   C233      1.0  0.00879  0.79436  0.48443  1.0000
  H   H278      1.0  0.04014  0.75160  0.06590  1.0000
  C   C234      1.0  0.06907  0.77925  0.04972  1.0000
  C   C235      1.0  0.99631  0.88441  0.49443  1.0000
  S   S62       1.0  0.31125  0.60508  0.47563  1.0000
  H   H279      1.0  0.28294  0.57479  0.14393  1.0000
  H   H280      1.0  0.24210  0.50627  0.25796  1.0000
  H   H281      1.0  0.29772  0.59572  0.16571  1.0000
  H   H282      1.0  0.07866  0.69803  0.01273  1.0000
  H   H283      1.0  0.03333  0.74341  0.45047  1.0000
  H   H284      1.0  0.05315  0.72656  0.44697  1.0000
  H   H285      1.0  0.99057  0.77572  0.03744  1.0000
  C   C236      1.0  0.00170  0.87695  0.19632  1.0000
  H   H286      1.0  0.00182  0.85079  0.19098  1.0000
  H   H287      1.0  0.04814  0.71175  0.07072  1.0000
  C   C237      1.0  0.23276  0.52757  0.18365  1.0000
  H   H288      1.0  0.04567  0.75543  0.01688  1.0000
  H   H289      1.0  0.07873  0.78519  0.03384  1.0000
  H   H290      1.0  0.25418  0.70315  0.48656  1.0000
  H   H291      1.0  0.29406  0.52368  0.16084  1.0000
  S   S63       1.0  0.30925  0.63470  0.25820  1.0000
  C   C238      1.0  0.98758  0.79131  0.21849  1.0000
  C   C239      1.0  0.99876  0.94281  0.49512  1.0000
  H   H292      1.0  0.31098  0.52634  0.46178  1.0000
  H   H293      1.0  0.27046  0.49818  0.17285  1.0000
  H   H294      1.0  0.06604  0.70004  0.48606  1.0000
  H   H295      1.0  0.04394  0.77785  0.48925  1.0000
  H   H296      1.0  0.06357  0.75979  0.48502  1.0000
  C   C240      1.0  0.98326  0.88654  0.47553  1.0000
  H   H297      1.0  0.04852  0.67536  0.49536  1.0000
  C   C241      1.0  0.25290  0.67818  0.49318  1.0000
  C   C242      1.0  0.23721  0.66389  0.49548  1.0000
  H   H298      1.0  0.10832  0.55611  0.56919  1.0000
  H   H299      1.0  0.22629  0.65908  0.55513  1.0000
  C   C243      1.0  0.23028  0.67772  0.56958  1.0000
  Fe  Fe30      1.0  0.02541  0.80618  0.58764  1.0000
  S   S64       1.0  0.04768  0.81855  0.56222  1.0000
  S   S65       1.0  0.00005  0.80338  0.56899  1.0000
  Fe  Fe31      1.0  0.04386  0.80587  0.64381  1.0000
  S   S66       1.0  0.06786  0.81814  0.62192  1.0000
  S   S67       1.0  0.04344  0.80519  0.69249  1.0000
  Fe  Fe32      1.0  0.05312  0.85400  0.59709  1.0000
  S   S68       1.0  0.06148  0.90450  0.58417  1.0000
  Fe  Fe33      1.0  0.06055  0.78131  0.58875  1.0000
  S   S69       1.0  0.07430  0.74258  0.56306  1.0000
  S   S70       1.0  0.02993  0.84419  0.62081  1.0000
  S   S71       1.0  0.03747  0.76657  0.61239  1.0000
  Fe  Fe34      1.0  0.15794  0.65933  0.51429  1.0000
  H   H300      1.0  0.02315  0.80071  0.52231  1.0000
  S   S72       1.0  0.14744  0.69129  0.54952  1.0000
  C   C244      1.0  0.24707  0.68200  0.57310  1.0000
  H   H301      1.0  0.01359  0.72563  0.57443  1.0000
  C   C245      1.0  0.00210  0.97214  0.74242  1.0000
  C   C246      1.0  0.07516  0.65445  0.58464  1.0000
  H   H302      1.0  0.25548  0.66685  0.56146  1.0000
  S   S73       1.0  0.16982  0.61273  0.52710  1.0000
  H   H303      1.0  0.26613  0.70954  0.59331  1.0000
  C   C247      1.0  0.16738  0.50742  0.51436  1.0000
  C   C248      1.0  0.03082  0.96834  0.62181  1.0000
  H   H304      1.0  0.02542  0.82437  0.98368  1.0000
  H   H305      1.0  0.03228  0.87034  0.74540  1.0000
  H   H306      1.0  0.20267  0.72839  0.54370  1.0000
  H   H307      1.0  0.05697  0.62744  0.56176  1.0000
  H   H308      1.0  0.00744  0.81538  0.94186  1.0000
  H   H309      1.0  0.19918  0.65074  0.60337  1.0000
  C   C249      1.0  0.03129  0.88869  0.51110  1.0000
  H   H310      1.0  0.09567  0.59311  0.50131  1.0000
  H   H311      1.0  0.13579  0.58812  0.53431  1.0000
  S   S74       1.0  0.98713  0.76840  0.78176  1.0000
  C   C250      1.0  0.05239  0.94027  0.59686  1.0000
  C   C251      1.0  0.03802  0.93936  0.61293  1.0000
  C   C252      1.0  0.01388  0.81178  0.98648  1.0000
  S   S75       1.0  0.28643  0.67990  0.49823  1.0000
  C   C253      1.0  0.05930  0.97040  0.58940  1.0000
  H   H312      1.0  0.03240  0.91637  0.61828  1.0000
  H   H313      1.0  0.07033  0.97134  0.57673  1.0000
  C   C254      1.0  0.09511  0.73121  0.55854  1.0000
  C   C255      1.0  0.10735  0.73983  0.57787  1.0000
  C   C256      1.0  0.12331  0.72780  0.57458  1.0000
  C   C257      1.0  0.12735  0.70742  0.55174  1.0000
  C   C258      1.0  0.11522  0.69946  0.53203  1.0000
  C   C259      1.0  0.09922  0.71101  0.53559  1.0000
  H   H314      1.0  0.10445  0.75517  0.59572  1.0000
  H   H315      1.0  0.13254  0.73424  0.58999  1.0000
  C   C260      1.0  0.08124  0.61151  0.55155  1.0000
  H   H316      1.0  0.08993  0.70400  0.52054  1.0000
  H   H317      1.0  0.00535  0.88050  0.75783  1.0000
  C   C261      1.0  0.99756  0.79989  0.53190  1.0000
  H   H318      1.0  0.04441  0.90511  0.73601  1.0000
  H   H319      1.0  0.13004  0.59928  0.56942  1.0000
  H   H320      1.0  0.24704  0.74480  0.61923  1.0000
  C   C262      1.0  0.01145  0.95313  0.72417  1.0000
  C   C263      1.0  0.21891  0.69760  0.58374  1.0000
  H   H321      1.0  0.03871  0.93509  0.69164  1.0000
  C   C264      1.0  0.99855  0.71859  0.53774  1.0000
  C   C265      1.0  0.00222  0.78175  0.75690  1.0000
  C   C266      1.0  0.00020  0.77436  0.72791  1.0000
  C   C267      1.0  0.01250  0.78190  0.70780  1.0000
  C   C268      1.0  0.02726  0.79587  0.71662  1.0000
  C   C269      1.0  0.02931  0.80309  0.74561  1.0000
  C   C270      1.0  0.01678  0.79669  0.76554  1.0000
  H   H322      1.0  0.98914  0.76233  0.72095  1.0000
  H   H323      1.0  0.01074  0.77602  0.68563  1.0000
  H   H324      1.0  0.04078  0.81331  0.75280  1.0000
  C   C271      1.0  0.19586  0.65972  0.58190  1.0000
  H   H325      1.0  0.04457  0.86949  0.71416  1.0000
  H   H326      1.0  0.09498  0.55240  0.53915  1.0000
  H   H327      1.0  0.19305  0.74044  0.59256  1.0000
  S   S76       1.0  0.21604  0.61362  0.51157  1.0000
  N   N19       1.0  0.11002  0.59591  0.53983  1.0000
  H   H328      1.0  0.18491  0.70247  0.54309  1.0000
  C   C272      1.0  0.00364  0.80677  0.96257  1.0000
  C   C273      1.0  0.99394  0.95814  0.76547  1.0000
  C   C274      1.0  0.06990  0.63074  0.56565  1.0000
  C   C275      1.0  0.19818  0.70334  0.54809  1.0000
  C   C276      1.0  0.98870  0.79010  0.96539  1.0000
  H   H329      1.0  0.11582  0.64516  0.58044  1.0000
  C   C277      1.0  0.24228  0.72594  0.60547  1.0000
  H   H330      1.0  0.09576  0.67754  0.60440  1.0000
  H   H331      1.0  0.00815  0.86904  0.54772  1.0000
  H   H332      1.0  0.00331  0.90818  0.56130  1.0000
  C   C278      1.0  0.09173  0.65865  0.58994  1.0000
  H   H333      1.0  0.01978  0.85564  0.68444  1.0000
  C   C279      1.0  0.23543  0.63186  0.50477  1.0000
  C   C280      1.0  0.25307  0.70610  0.59097  1.0000
  H   H334      1.0  0.20442  0.68711  0.53279  1.0000
  C   C281      1.0  0.99519  0.92513  0.77053  1.0000
  H   H335      1.0  0.01967  0.96752  0.63409  1.0000
  H   H336      1.0  0.99981  0.86056  0.50106  1.0000
  H   H337      1.0  0.03741  0.93744  0.54520  1.0000
  H   H338      1.0  0.18241  0.65677  0.57935  1.0000
  H   H339      1.0  0.07659  0.59355  0.53692  1.0000
  C   C282      1.0  0.02657  0.94075  0.53139  1.0000
  H   H340      1.0  0.01821  0.95675  0.54337  1.0000
  C   C283      1.0  0.02793  0.72283  0.50582  1.0000
  C   C284      1.0  0.24948  0.61421  0.51104  1.0000
  N   N20       1.0  0.20124  0.69390  0.57791  1.0000
  H   H341      1.0  0.04234  0.88714  0.52480  1.0000
  C   C285      1.0  0.19080  0.71418  0.59636  1.0000
  C   C286      1.0  0.10782  0.60137  0.50894  1.0000
  H   H342      1.0  0.00862  0.85437  0.71667  1.0000
  C   C287      1.0  0.26514  0.62829  0.50824  1.0000
  C   C288      1.0  0.01310  0.89393  0.55104  1.0000
  H   H343      1.0  0.00189  0.87980  0.68820  1.0000
  C   C289      1.0  0.22542  0.72196  0.60195  1.0000
  H   H344      1.0  0.01747  0.96551  0.70677  1.0000
  C   C290      1.0  0.09826  0.61566  0.55596  1.0000
  H   H345      1.0  0.11811  0.68412  0.51423  1.0000
  H   H346      1.0  0.03908  0.72850  0.54770  1.0000
  H   H347      1.0  0.03741  0.89856  0.67188  1.0000
  C   C291      1.0  0.10721  0.56108  0.54604  1.0000
  C   C292      1.0  0.01340  0.72277  0.55155  1.0000
  C   C293      1.0  0.10318  0.63972  0.57587  1.0000
  C   C294      1.0  0.12731  0.60357  0.54662  1.0000
  H   H348      1.0  0.06643  0.66994  0.59508  1.0000
  H   H349      1.0  0.27581  0.61444  0.51344  1.0000
  H   H350      1.0  0.02330  0.89176  0.56650  1.0000
  H   H351      1.0  0.11623  0.54568  0.53474  1.0000
  C   C295      1.0  0.02791  0.72474  0.53595  1.0000
  H   H352      1.0  0.02050  0.92529  0.67146  1.0000
  N   N21       1.0  0.02297  0.89834  0.71038  1.0000
  C   C296      1.0  0.01285  0.87100  0.69953  1.0000
  C   C297      1.0  0.03014  0.91527  0.68533  1.0000
  C   C298      1.0  0.03662  0.88531  0.72722  1.0000
  C   C299      1.0  0.01295  0.91927  0.72876  1.0000
  H   H353      1.0  0.17757  0.71001  0.59192  1.0000
  H   H354      1.0  0.19273  0.70866  0.61923  1.0000
  H   H355      1.0  0.20129  0.64315  0.56598  1.0000
  H   H356      1.0  0.21779  0.73848  0.61344  1.0000
  H   H357      1.0  0.01870  0.80183  0.78781  1.0000
  C   C300      1.0  0.00459  0.90594  0.75263  1.0000
  C   C301      1.0  0.00463  0.91242  0.50457  1.0000
  H   H358      1.0  0.13055  0.62910  0.54123  1.0000
  S   S77       1.0  0.31570  0.53704  0.53082  1.0000
  H   H359      1.0  0.98729  0.71841  0.54985  1.0000
  S   S78       1.0  0.98912  0.82291  0.85757  1.0000
  N   N22       1.0  0.01864  0.90930  0.52414  1.0000
  C   C302      1.0  0.01103  0.79889  0.51372  1.0000
  H   H360      1.0  0.24825  0.58952  0.51846  1.0000
  C   C303      1.0  0.05445  0.69946  0.49842  1.0000
  C   C304      1.0  0.15234  0.50750  0.50048  1.0000
  H   H361      1.0  0.99800  0.99411  0.88998  1.0000
  H   H362      1.0  0.02696  0.86339  0.50790  1.0000
  H   H363      1.0  0.05800  0.70138  0.52116  1.0000
  H   H364      1.0  0.10925  0.62748  0.50355  1.0000
  C   C305      1.0  0.26696  0.66052  0.49965  1.0000
  H   H365      1.0  0.17397  0.52994  0.51772  1.0000
  H   H366      1.0  0.05405  0.76069  0.51890  1.0000
  H   H367      1.0  0.03108  0.95363  0.51207  1.0000
  H   H368      1.0  0.00408  0.96554  0.50188  1.0000
  Fe  Fe35      1.0  0.31008  0.65155  0.49979  1.0000
  C   C306      1.0  0.98422  0.77905  0.99277  1.0000
  H   H369      1.0  0.98891  0.91430  0.78862  1.0000
  H   H370      1.0  0.98668  0.97286  0.77959  1.0000
  H   H371      1.0  0.98631  0.97447  0.83824  1.0000
  C   C307      1.0  0.99814  0.71599  0.50829  1.0000
  Fe  Fe36      1.0  0.19043  0.62677  0.49755  1.0000
  H   H372      1.0  0.98932  0.91811  0.95351  1.0000
  H   H373      1.0  0.98598  0.95780  0.99227  1.0000
  H   H374      1.0  0.98651  0.71384  0.49752  1.0000
  H   H375      1.0  0.11692  0.58793  0.49611  1.0000
  C   C308      1.0  0.05156  0.75730  0.49597  1.0000
  N   N23       1.0  0.36240  0.44871  0.28758  1.0000
  C   C309      1.0  0.41174  0.00603  0.16460  1.0000
  Fe  Fe37      1.0  0.55926  0.15675  0.40527  1.0000
  S   S79       1.0  0.53225  0.16706  0.41020  1.0000
  S   S80       1.0  0.57851  0.19809  0.40826  1.0000
  Fe  Fe38      1.0  0.55237  0.08669  0.38657  1.0000
  S   S81       1.0  0.52554  0.09272  0.39119  1.0000
  S   S82       1.0  0.55995  0.03984  0.36511  1.0000
  Fe  Fe39      1.0  0.52860  0.14020  0.36885  1.0000
  S   S83       1.0  0.50755  0.14971  0.33786  1.0000
  Fe  Fe40      1.0  0.53103  0.11855  0.43185  1.0000
  S   S84       1.0  0.51272  0.09999  0.46450  1.0000
  S   S85       1.0  0.55546  0.13335  0.36211  1.0000
  S   S86       1.0  0.55807  0.10907  0.42913  1.0000
  Fe  Fe41      1.0  0.44795  0.17574  0.14648  1.0000
  S   S87       1.0  0.47503  0.18719  0.14270  1.0000
  S   S88       1.0  0.43262  0.21977  0.16049  1.0000
  Fe  Fe42      1.0  0.45416  0.10426  0.13444  1.0000
  S   S89       1.0  0.48113  0.11133  0.13178  1.0000
  S   S90       1.0  0.44348  0.05523  0.12203  1.0000
  Fe  Fe43      1.0  0.47858  0.14333  0.17008  1.0000
  S   S91       1.0  0.49934  0.14505  0.20261  1.0000
  Fe  Fe44      1.0  0.47579  0.15452  0.10436  1.0000
  S   S92       1.0  0.49424  0.15662  0.06708  1.0000
  S   S93       1.0  0.45171  0.13261  0.17526  1.0000
  S   S94       1.0  0.44852  0.14639  0.10568  1.0000
  Fe  Fe45      1.0  0.34630  0.30158  0.21612  1.0000
  S   S95       1.0  0.35670  0.34866  0.23261  1.0000
  S   S96       1.0  0.35907  0.25752  0.19582  1.0000
  Fe  Fe46      1.0  0.33462  0.37222  0.21384  1.0000
  S   S97       1.0  0.33804  0.41972  0.18999  1.0000
  Fe  Fe47      1.0  0.34045  0.34095  0.27068  1.0000
  H   H376      1.0  0.50358  0.05185  0.05497  1.0000
  H   H377      1.0  0.53038  0.01573  0.33575  1.0000
  H   H378      1.0  0.41163  0.03215  0.16236  1.0000
  Fe  Fe48      1.0  0.32400  0.30086  0.46272  1.0000
  H   H379      1.0  0.51637  0.03576  0.43558  1.0000
  C   C310      1.0  0.34113  0.33412  0.34335  1.0000
  C   C311      1.0  0.32994  0.30873  0.33940  1.0000
  H   H380      1.0  0.62415  0.18765  0.40962  1.0000
  C   C312      1.0  0.32826  0.30054  0.39056  1.0000
  C   C313      1.0  0.33913  0.32648  0.39459  1.0000
  H   H381      1.0  0.36750  0.44232  0.24277  1.0000
  H   H382      1.0  0.45565  0.08223  0.03292  1.0000
  H   H383      1.0  0.31940  0.18619  0.15438  1.0000
  S   S98       1.0  0.63592  0.24856  0.49094  1.0000
  S   S99       1.0  0.34962  0.35514  0.31418  1.0000
  C   C314      1.0  0.33312  0.45704  0.20588  1.0000
  H   H384      1.0  0.35685  0.47789  0.25054  1.0000
  C   C315      1.0  0.63664  0.17969  0.40757  1.0000
  C   C316      1.0  0.53588  0.07588  0.31370  1.0000
  H   H385      1.0  0.63051  0.46993  0.49572  1.0000
  C   C317      1.0  0.41209  0.22929  0.17079  1.0000
  C   C318      1.0  0.40870  0.26073  0.18060  1.0000
  C   C319      1.0  0.39274  0.26971  0.18869  1.0000
  C   C320      1.0  0.37974  0.24743  0.18690  1.0000
  C   C321      1.0  0.38313  0.21596  0.17717  1.0000
  C   C322      1.0  0.39913  0.20689  0.16933  1.0000
  H   H386      1.0  0.41849  0.27847  0.18172  1.0000
  H   H387      1.0  0.39045  0.29403  0.19593  1.0000
  H   H388      1.0  0.37329  0.19840  0.17559  1.0000
  H   H389      1.0  0.40138  0.18268  0.16181  1.0000
  C   C323      1.0  0.32363  0.29179  0.36296  1.0000
  H   H390      1.0  0.46796  0.04168  0.16481  1.0000
  H   H391      1.0  0.46968  0.03925  0.08050  1.0000
  C   C324      1.0  0.50568  0.14730  0.30019  1.0000
  C   C325      1.0  0.49013  0.14203  0.28831  1.0000
  C   C326      1.0  0.48790  0.14104  0.25860  1.0000
  C   C327      1.0  0.50122  0.14576  0.24032  1.0000
  C   C328      1.0  0.51676  0.15078  0.25220  1.0000
  C   C329      1.0  0.51899  0.15171  0.28189  1.0000
  H   H392      1.0  0.47972  0.13881  0.30223  1.0000
  H   H393      1.0  0.47592  0.13647  0.24994  1.0000
  H   H394      1.0  0.52716  0.15437  0.23830  1.0000
  H   H395      1.0  0.53097  0.15653  0.29057  1.0000
  C   C330      1.0  0.52183  0.05359  0.27315  1.0000
  C   C331      1.0  0.32003  0.48799  0.24308  1.0000
  H   H396      1.0  0.51032  0.05432  0.34377  1.0000
  C   C332      1.0  0.36209  0.47491  0.30901  1.0000
  H   H397      1.0  0.55915  0.02087  0.42480  1.0000
  H   H398      1.0  0.32631  0.30179  0.31821  1.0000
  C   C333      1.0  0.61983  0.23540  0.46777  1.0000
  C   C334      1.0  0.61569  0.25217  0.44303  1.0000
  C   C335      1.0  0.60297  0.24051  0.42539  1.0000
  C   C336      1.0  0.59413  0.21195  0.43206  1.0000
  C   C337      1.0  0.59829  0.19519  0.45681  1.0000
  C   C338      1.0  0.61101  0.20685  0.47447  1.0000
  H   H399      1.0  0.62224  0.27418  0.43747  1.0000
  H   H400      1.0  0.59993  0.25375  0.40634  1.0000
  H   H401      1.0  0.59173  0.17315  0.46228  1.0000
  H   H402      1.0  0.34025  0.40673  0.41081  1.0000
  C   C339      1.0  0.63978  0.14988  0.39522  1.0000
  C   C340      1.0  0.32066  0.19537  0.17646  1.0000
  C   C341      1.0  0.34569  0.34300  0.37099  1.0000
  S   S100      1.0  0.32508  0.32581  0.19425  1.0000
  C   C342      1.0  0.49646  0.16235  0.02950  1.0000
  H   H403      1.0  0.48074  0.01256  0.05829  1.0000
  H   H404      1.0  0.47242  0.18039  0.02195  1.0000
  H   H405      1.0  0.49446  0.07369  0.22113  1.0000
  N   N24       1.0  0.46674  0.23021  0.22798  1.0000
  C   C343      1.0  0.47461  0.24079  0.20099  1.0000
  C   C344      1.0  0.45991  0.19729  0.22353  1.0000
  C   C345      1.0  0.45310  0.25257  0.23360  1.0000
  C   C346      1.0  0.47810  0.22956  0.25237  1.0000
  C   C347      1.0  0.47213  0.22335  0.28024  1.0000
  C   C348      1.0  0.49528  0.23321  0.24919  1.0000
  C   C349      1.0  0.48266  0.22155  0.30346  1.0000
  C   C350      1.0  0.50568  0.23142  0.27259  1.0000
  C   C351      1.0  0.49939  0.22569  0.29965  1.0000
  H   H406      1.0  0.46565  0.24199  0.18326  1.0000
  H   H407      1.0  0.48030  0.26525  0.20305  1.0000
  H   H408      1.0  0.48407  0.22347  0.19393  1.0000
  H   H409      1.0  0.45089  0.19681  0.20598  1.0000
  H   H410      1.0  0.45356  0.18767  0.24269  1.0000
  H   H411      1.0  0.46969  0.18010  0.21788  1.0000
  H   H412      1.0  0.45776  0.27718  0.23907  1.0000
  H   H413      1.0  0.44499  0.25490  0.21472  1.0000
  H   H414      1.0  0.44499  0.24405  0.25106  1.0000
  H   H415      1.0  0.45933  0.21891  0.28418  1.0000
  H   H416      1.0  0.50108  0.23666  0.22878  1.0000
  H   H417      1.0  0.47795  0.21583  0.32444  1.0000
  H   H418      1.0  0.51877  0.23345  0.26963  1.0000
  H   H419      1.0  0.50756  0.22317  0.31757  1.0000
  C   C352      1.0  0.33989  0.48597  0.19502  1.0000
  N   N25       1.0  0.52378  0.05124  0.30432  1.0000
  C   C353      1.0  0.34609  0.43306  0.28650  1.0000
  H   H420      1.0  0.50146  0.21231  0.43078  1.0000
  C   C354      1.0  0.33345  0.45625  0.41780  1.0000
  H   H421      1.0  0.43771  0.20084  0.48905  1.0000
  H   H422      1.0  0.52161  0.99929  0.30377  1.0000
  H   H423      1.0  0.34277  0.33327  0.41585  1.0000
  C   C355      1.0  0.37446  0.42325  0.29386  1.0000
  H   H424      1.0  0.54466  0.04896  0.21199  1.0000
  H   H425      1.0  0.64415  0.41789  0.48525  1.0000
  H   H426      1.0  0.46374  0.09238  0.06726  1.0000
  H   H427      1.0  0.37465  0.40437  0.27697  1.0000
  H   H428      1.0  0.47198  0.11131  0.03657  1.0000
  S   S101      1.0  0.33146  0.29247  0.25599  1.0000
  H   H429      1.0  0.46028  0.02476  0.04882  1.0000
  C   C356      1.0  0.47214  0.03307  0.05784  1.0000
  H   H430      1.0  0.52118  0.14532  0.02927  1.0000
  C   C357      1.0  0.53534  0.04835  0.25490  1.0000
  C   C358      1.0  0.51728  0.01258  0.44623  1.0000
  C   C359      1.0  0.64291  0.47003  0.48781  1.0000
  C   C360      1.0  0.46415  0.01907  0.15520  1.0000
  H   H431      1.0  0.62973  0.13483  0.38775  1.0000
  H   H432      1.0  0.33639  0.45063  0.28190  1.0000
  H   H433      1.0  0.54714  0.04239  0.26342  1.0000
  C   C361      1.0  0.53406  0.05206  0.22546  1.0000
  C   C362      1.0  0.50577  0.06579  0.23062  1.0000
  H   H434      1.0  0.35445  0.36244  0.37416  1.0000
  C   C363      1.0  0.33591  0.42882  0.40109  1.0000
  H   H435      1.0  0.38701  0.43359  0.29563  1.0000
  C   C364      1.0  0.51131  0.15412  0.01636  1.0000
  H   H436      1.0  0.37649  0.45119  0.34213  1.0000
  H   H437      1.0  0.48984  0.10403  0.00118  1.0000
  C   C365      1.0  0.48230  0.05462  0.01156  1.0000
  H   H438      1.0  0.34774  0.48520  0.17652  1.0000
  S   S102      1.0  0.32028  0.27856  0.41956  1.0000
  C   C366      1.0  0.48389  0.17382  0.01234  1.0000
  C   C367      1.0  0.48845  0.18581  0.46314  1.0000
  H   H439      1.0  0.49877  0.03885  0.31450  1.0000
  H   H440      1.0  0.49237  0.07740  0.07882  1.0000
  C   C368      1.0  0.51931  0.06096  0.21338  1.0000
  C   C369      1.0  0.36978  0.47230  0.33594  1.0000
  H   H441      1.0  0.53703  0.07625  0.33709  1.0000
  H   H442      1.0  0.51678  0.03356  0.48781  1.0000
  H   H443      1.0  0.54234  0.01453  0.30456  1.0000
  S   S103      1.0  0.34725  0.31149  0.48616  1.0000
  H   H444      1.0  0.54834  0.07149  0.30536  1.0000
  H   H445      1.0  0.31828  0.48618  0.46172  1.0000
  H   H446      1.0  0.34292  0.42134  0.30708  1.0000
  C   C370      1.0  0.36642  0.46187  0.25896  1.0000
  H   H447      1.0  0.48851  0.26429  0.44241  1.0000
  C   C371      1.0  0.45263  0.01904  0.13341  1.0000
  H   H448      1.0  0.49995  0.09320  0.04621  1.0000
  H   H449      1.0  0.64634  0.22211  0.42688  1.0000
  H   H450      1.0  0.49610  0.06781  0.27214  1.0000
  C   C372      1.0  0.46932  0.21650  0.49260  1.0000
  H   H451      1.0  0.53232  0.10051  0.30714  1.0000
  C   C373      1.0  0.50845  0.05665  0.32044  1.0000
  H   H452      1.0  0.33385  0.20169  0.17929  1.0000
  H   H453      1.0  0.46859  0.26781  0.48041  1.0000
  H   H454      1.0  0.50387  0.08157  0.31714  1.0000
  H   H455      1.0  0.37810  0.47588  0.25921  1.0000
  C   C374      1.0  0.48521  0.24275  0.45441  1.0000
  H   H456      1.0  0.34550  0.41399  0.26983  1.0000
  C   C375      1.0  0.50692  0.06236  0.26009  1.0000
  N   N26       1.0  0.47896  0.06129  0.04195  1.0000
  C   C376      1.0  0.49436  0.07124  0.05606  1.0000
  C   C377      1.0  0.46709  0.08786  0.04466  1.0000
  H   H457      1.0  0.37139  0.40977  0.31368  1.0000
  C   C378      1.0  0.32286  0.45833  0.22955  1.0000
  C   C379      1.0  0.52974  0.01874  0.31224  1.0000
  C   C380      1.0  0.49253  0.21353  0.44778  1.0000
  H   H458      1.0  0.33620  0.45426  0.44020  1.0000
  C   C381      1.0  0.51755  0.01126  0.47575  1.0000
  C   C382      1.0  0.32754  0.48543  0.40591  1.0000
  S   S104      1.0  0.34911  0.40590  0.49468  1.0000
  C   C383      1.0  0.47374  0.24440  0.47643  1.0000
  C   C384      1.0  0.55860  0.00183  0.38232  1.0000
  C   C385      1.0  0.47710  0.18718  0.48530  1.0000
  C   C386      1.0  0.33270  0.42964  0.37208  1.0000
  H   H459      1.0  0.51843  0.06499  0.19068  1.0000
  H   H460      1.0  0.37498  0.49481  0.37627  1.0000
  H   H461      1.0  0.36023  0.47176  0.49220  1.0000
  H   H462      1.0  0.49424  0.16312  0.45794  1.0000
  S   S105      1.0  0.31917  0.36763  0.25304  1.0000
  C   C387      1.0  0.32712  0.45797  0.35964  1.0000
  C   C388      1.0  0.32461  0.48557  0.37615  1.0000
  C   C389      1.0  0.64946  0.19923  0.41736  1.0000
  H   H463      1.0  0.32466  0.45856  0.33706  1.0000
  H   H464      1.0  0.43367  0.00642  0.18922  1.0000
  H   H465      1.0  0.47596  0.00281  0.01124  1.0000
  H   H466      1.0  0.32860  0.25543  0.16318  1.0000
  H   H467      1.0  0.33452  0.40821  0.35925  1.0000
  C   C390      1.0  0.55868  0.99925  0.41190  1.0000
  H   H468      1.0  0.31783  0.17551  0.19176  1.0000
  H   H469      1.0  0.61405  0.19351  0.49343  1.0000
  H   H470      1.0  0.32677  0.23857  0.21481  1.0000
  H   H471      1.0  0.31726  0.43639  0.23768  1.0000
  H   H472      1.0  0.39005  0.99850  0.14005  1.0000
  C   C391      1.0  0.48042  0.02339  0.99925  1.0000
  Fe  Fe49      1.0  0.55063  0.15082  0.85731  1.0000
  S   S106      1.0  0.53025  0.18646  0.85998  1.0000
  S   S107      1.0  0.57739  0.16229  0.84412  1.0000
  Fe  Fe50      1.0  0.52656  0.09302  0.86441  1.0000
  S   S108      1.0  0.50495  0.12579  0.86579  1.0000
  S   S109      1.0  0.51788  0.04110  0.87266  1.0000
  Fe  Fe51      1.0  0.51678  0.15323  0.83001  1.0000
  S   S110      1.0  0.50528  0.17870  0.79192  1.0000
  Fe  Fe52      1.0  0.51978  0.15609  0.89606  1.0000
  S   S111      1.0  0.50356  0.17601  0.93215  1.0000
  S   S112      1.0  0.53733  0.11827  0.82605  1.0000
  S   S113      1.0  0.54121  0.12242  0.89588  1.0000
  H   H473      1.0  0.49379  0.20482  0.73941  1.0000
  C   C392      1.0  0.63722  0.16157  0.87594  1.0000
  C   C393      1.0  0.32380  0.44211  0.51582  1.0000
  S   S114      1.0  0.62526  0.28491  0.82109  1.0000
  H   H474      1.0  0.48094  0.22265  0.80965  1.0000
  Fe  Fe53      1.0  0.44876  0.13780  0.65572  1.0000
  S   S115      1.0  0.42442  0.13019  0.63371  1.0000
  S   S116      1.0  0.45186  0.12848  0.70323  1.0000
  Fe  Fe54      1.0  0.46704  0.14580  0.59991  1.0000
  S   S117      1.0  0.44467  0.13781  0.57371  1.0000
  S   S118      1.0  0.49185  0.16049  0.58270  1.0000
  Fe  Fe55      1.0  0.43207  0.17098  0.60424  1.0000
  S   S119      1.0  0.41914  0.21173  0.58014  1.0000
  Fe  Fe56      1.0  0.43851  0.09787  0.60446  1.0000
  S   S120      1.0  0.42886  0.05112  0.58539  1.0000
  S   S121      1.0  0.45518  0.18141  0.62904  1.0000
  S   S122      1.0  0.46211  0.10282  0.62787  1.0000
  Fe  Fe57      1.0  0.33427  0.29042  0.52422  1.0000
  C   C394      1.0  0.50724  0.25616  0.83458  1.0000
  S   S123      1.0  0.34532  0.25250  0.55419  1.0000
  C   C395      1.0  0.64361  0.27900  0.56755  1.0000
  C   C396      1.0  0.48428  0.01795  0.97063  1.0000
  C   C397      1.0  0.43297  0.01481  0.60378  1.0000
  C   C398      1.0  0.49014  0.04318  0.95357  1.0000
  H   H475      1.0  0.38475  0.44963  0.56605  1.0000
  C   C399      1.0  0.48146  0.19694  0.86064  1.0000
  H   H476      1.0  0.64873  0.41229  0.73104  1.0000
  H   H477      1.0  0.62120  0.23444  0.55149  1.0000
  H   H478      1.0  0.45658  0.23890  0.87160  1.0000
  C   C400      1.0  0.35893  0.45183  0.57264  1.0000
  H   H479      1.0  0.31723  0.41945  0.51881  1.0000
  C   C401      1.0  0.49768  0.14385  0.54979  1.0000
  C   C402      1.0  0.48901  0.11776  0.53818  1.0000
  H   H480      1.0  0.53033  0.27578  0.82015  1.0000
  H   H481      1.0  0.54335  0.15100  0.76596  1.0000
  H   H482      1.0  0.47871  0.10733  0.54950  1.0000
  H   H483      1.0  0.64305  0.23906  0.85525  1.0000
  H   H484      1.0  0.48999  0.18495  0.84575  1.0000
  C   C403      1.0  0.39848  0.22318  0.57412  1.0000
  C   C404      1.0  0.39539  0.24921  0.55564  1.0000
  C   C405      1.0  0.37929  0.25873  0.54950  1.0000
  C   C406      1.0  0.36598  0.24227  0.56173  1.0000
  C   C407      1.0  0.36908  0.21639  0.58037  1.0000
  C   C408      1.0  0.38518  0.20693  0.58659  1.0000
  H   H485      1.0  0.40552  0.26218  0.54597  1.0000
  H   H486      1.0  0.37717  0.27874  0.53523  1.0000
  H   H487      1.0  0.35892  0.20356  0.59009  1.0000
  H   H488      1.0  0.38725  0.18727  0.60120  1.0000
  C   C409      1.0  0.36141  0.18088  0.50944  1.0000
  H   H489      1.0  0.43694  0.03759  0.64430  1.0000
  H   H490      1.0  0.47657  0.18715  0.96991  1.0000
  H   H491      1.0  0.46989  0.27388  0.87359  1.0000
  H   H492      1.0  0.38162  0.06736  0.53024  1.0000
  N   N27       1.0  0.48087  0.23206  0.85484  1.0000
  H   H493      1.0  0.35705  0.42592  0.57050  1.0000
  H   H494      1.0  0.41619  0.12815  0.52646  1.0000
  C   C410      1.0  0.50469  0.24872  0.88543  1.0000
  H   H495      1.0  0.62541  0.25654  0.67727  1.0000
  S   S124      1.0  0.64429  0.34573  0.69293  1.0000
  C   C411      1.0  0.49747  0.24619  0.85813  1.0000
  C   C412      1.0  0.50110  0.16920  0.96956  1.0000
  H   H496      1.0  0.39521  0.06062  0.55933  1.0000
  H   H497      1.0  0.50323  0.25341  0.81290  1.0000
  H   H498      1.0  0.35978  0.10531  0.53631  1.0000
  H   H499      1.0  0.62214  0.20361  0.87551  1.0000
  C   C413      1.0  0.58956  0.19759  0.83565  1.0000
  C   C414      1.0  0.60341  0.19439  0.81807  1.0000
  C   C415      1.0  0.61405  0.22096  0.81231  1.0000
  C   C416      1.0  0.61130  0.25115  0.82479  1.0000
  C   C417      1.0  0.59745  0.25435  0.84235  1.0000
  C   C418      1.0  0.58657  0.22801  0.84745  1.0000
  H   H500      1.0  0.60602  0.17103  0.80898  1.0000
  H   H501      1.0  0.62464  0.21776  0.79897  1.0000
  H   H502      1.0  0.59517  0.27740  0.85231  1.0000
  H   H503      1.0  0.57615  0.23102  0.86128  1.0000
  S   S125      1.0  0.64232  0.35481  0.77342  1.0000
  H   H504      1.0  0.47205  0.24037  0.89766  1.0000
  H   H505      1.0  0.48581  0.19173  0.88250  1.0000
  C   C419      1.0  0.49087  0.16349  0.76700  1.0000
  C   C420      1.0  0.48258  0.13406  0.77102  1.0000
  C   C421      1.0  0.47082  0.12356  0.75113  1.0000
  C   C422      1.0  0.46742  0.14200  0.72677  1.0000
  C   C423      1.0  0.47587  0.17124  0.72259  1.0000
  C   C424      1.0  0.48747  0.18197  0.74266  1.0000
  H   H506      1.0  0.48501  0.11964  0.78967  1.0000
  H   H507      1.0  0.46423  0.10105  0.75472  1.0000
  H   H508      1.0  0.47306  0.18604  0.70436  1.0000
  H   H509      1.0  0.40496  0.09887  0.50574  1.0000
  H   H510      1.0  0.47622  0.22145  0.54742  1.0000
  C   C425      1.0  0.47404  0.23648  0.82590  1.0000
  C   C426      1.0  0.52297  0.26894  0.83843  1.0000
  C   C427      1.0  0.62318  0.23780  0.57477  1.0000
  H   H511      1.0  0.49650  0.09379  0.95166  1.0000
  C   C428      1.0  0.64904  0.34586  0.63532  1.0000
  C   C429      1.0  0.39887  0.12318  0.57369  1.0000
  H   H512      1.0  0.63600  0.29813  0.57724  1.0000
  N   N28       1.0  0.45724  0.21715  0.51606  1.0000
  H   H513      1.0  0.63623  0.35149  0.63395  1.0000
  C   C430      1.0  0.64728  0.43565  0.71955  1.0000
  H   H514      1.0  0.64087  0.27839  0.54445  1.0000
  H   H515      1.0  0.63760  0.43182  0.70334  1.0000
  H   H516      1.0  0.62843  0.48386  0.78690  1.0000
  H   H517      1.0  0.45981  0.26752  0.52732  1.0000
  H   H518      1.0  0.41649  0.08696  0.53638  1.0000
  C   C431      1.0  0.49389  0.10461  0.51208  1.0000
  C   C432      1.0  0.35517  0.15103  0.51826  1.0000
  C   C433      1.0  0.63413  0.19406  0.87094  1.0000
  H   H519      1.0  0.54184  0.28098  0.86838  1.0000
  H   H520      1.0  0.61975  0.21461  0.58537  1.0000
  H   H521      1.0  0.38819  0.12764  0.58772  1.0000
  H   H522      1.0  0.45669  0.20877  0.56142  1.0000
  C   C434      1.0  0.48813  0.07971  0.99342  1.0000
  H   H523      1.0  0.54756  0.01225  0.91208  1.0000
  C   C435      1.0  0.52734  0.00468  0.86274  1.0000
  H   H524      1.0  0.54923  0.02673  0.84586  1.0000
  H   H525      1.0  0.49323  0.03892  0.93144  1.0000
  H   H526      1.0  0.47408  0.26243  0.81967  1.0000
  C   C436      1.0  0.49201  0.07403  0.96496  1.0000
  C   C437      1.0  0.46940  0.24703  0.87527  1.0000
  C   C438      1.0  0.64386  0.25004  0.61183  1.0000
  H   H527      1.0  0.52573  0.26258  0.91007  1.0000
  H   H528      1.0  0.40693  0.10591  0.58484  1.0000
  H   H529      1.0  0.61860  0.24868  0.62762  1.0000
  C   C439      1.0  0.64622  0.21419  0.85925  1.0000
  C   C440      1.0  0.52040  0.26159  0.88903  1.0000
  C   C441      1.0  0.38253  0.13382  0.53243  1.0000
  H   H530      1.0  0.46128  0.22716  0.82437  1.0000
  C   C442      1.0  0.38843  0.16463  0.52344  1.0000
  C   C443      1.0  0.37803  0.18750  0.51172  1.0000
  S   S126      1.0  0.32341  0.33810  0.53802  1.0000
  H   H531      1.0  0.49853  0.23966  0.90421  1.0000
  C   C444      1.0  0.51586  0.14409  0.50859  1.0000
  C   C445      1.0  0.33956  0.44214  0.50447  1.0000
  H   H532      1.0  0.44360  0.25853  0.50222  1.0000
  H   H533      1.0  0.46882  0.18113  0.54198  1.0000
  H   H534      1.0  0.46932  0.18495  0.85824  1.0000
  N   N29       1.0  0.51311  0.15199  0.66415  1.0000
  C   C446      1.0  0.52490  0.14450  0.64117  1.0000
  C   C447      1.0  0.49926  0.12865  0.66157  1.0000
  C   C448      1.0  0.50664  0.18483  0.65933  1.0000
  C   C449      1.0  0.52136  0.15086  0.69206  1.0000
  C   C450      1.0  0.53507  0.17131  0.69751  1.0000
  C   C451      1.0  0.51607  0.13022  0.71456  1.0000
  C   C452      1.0  0.54295  0.17110  0.72380  1.0000
  C   C453      1.0  0.52414  0.13008  0.74069  1.0000
  C   C454      1.0  0.53747  0.15056  0.74535  1.0000
  H   H535      1.0  0.51892  0.14389  0.61993  1.0000
  H   H536      1.0  0.53489  0.16280  0.63949  1.0000
  H   H537      1.0  0.53051  0.12050  0.64469  1.0000
  H   H538      1.0  0.50321  0.10329  0.66469  1.0000
  H   H539      1.0  0.49368  0.12974  0.64010  1.0000
  H   H540      1.0  0.48932  0.13393  0.67699  1.0000
  H   H541      1.0  0.51645  0.20355  0.65784  1.0000
  H   H542      1.0  0.49961  0.18620  0.63915  1.0000
  H   H543      1.0  0.49834  0.19192  0.67691  1.0000
  H   H544      1.0  0.53966  0.18795  0.68159  1.0000
  H   H545      1.0  0.50546  0.11456  0.71291  1.0000
  H   H546      1.0  0.55324  0.18723  0.72772  1.0000
  H   H547      1.0  0.51964  0.11490  0.75791  1.0000
  C   C455      1.0  0.34797  0.47168  0.50074  1.0000
  C   C456      1.0  0.34571  0.47175  0.57763  1.0000
  N   N30       1.0  0.64034  0.24727  0.58109  1.0000
  C   C457      1.0  0.48629  0.17756  0.98272  1.0000
  H   H548      1.0  0.43395  0.19522  0.52643  1.0000
  H   H549      1.0  0.52509  0.15089  0.97706  1.0000
  H   H550      1.0  0.48724  0.08415  0.50336  1.0000
  C   C458      1.0  0.64932  0.45412  0.79481  1.0000
  H   H551      1.0  0.37612  0.07868  0.56624  1.0000
  C   C459      1.0  0.40840  0.10603  0.52771  1.0000
  N   N31       1.0  0.39370  0.11046  0.54573  1.0000
  C   C460      1.0  0.36550  0.12767  0.52954  1.0000
  H   H552      1.0  0.51781  0.17733  0.54377  1.0000
  C   C461      1.0  0.51109  0.15703  0.53495  1.0000
  C   C462      1.0  0.52950  0.27181  0.86559  1.0000
  H   H553      1.0  0.35330  0.19932  0.50154  1.0000
  H   H554      1.0  0.40572  0.14647  0.57176  1.0000
  Fe  Fe58      1.0  0.33515  0.35820  0.49839  1.0000
  H   H555      1.0  0.34216  0.14631  0.51684  1.0000
  H   H556      1.0  0.61449  0.25684  0.58128  1.0000
  C   C463      1.0  0.38622  0.07792  0.55045  1.0000
  H   H557      1.0  0.51857  0.00279  0.98738  1.0000
  C   C464      1.0  0.45022  0.24956  0.52118  1.0000
  C   C465      1.0  0.46506  0.20675  0.54281  1.0000
  C   C466      1.0  0.64140  0.48374  0.79094  1.0000
  H   H558      1.0  0.64248  0.43159  0.79376  1.0000
  C   C467      1.0  0.43637  0.01493  0.63286  1.0000
  C   C468      1.0  0.63508  0.25513  0.66158  1.0000
  H   H559      1.0  0.40100  0.17188  0.52646  1.0000
  C   C469      1.0  0.63136  0.25076  0.63284  1.0000
  H   H560      1.0  0.62766  0.14599  0.88455  1.0000
  H   H561      1.0  0.33357  0.46116  0.57942  1.0000
  H   H562      1.0  0.44118  0.24898  0.53897  1.0000
  Fe  Fe59      1.0  0.64645  0.30609  0.79379  1.0000
  H   H563      1.0  0.38272  0.21112  0.50549  1.0000
  C   C470      1.0  0.37450  0.46531  0.56988  1.0000
  C   C471      1.0  0.51356  0.15711  0.98663  1.0000
  C   C472      1.0  0.54287  0.00420  0.85046  1.0000
  H   H564      1.0  0.64777  0.21877  0.54491  1.0000
  C   C473      1.0  0.53274  0.01099  0.94966  1.0000
  H   H565      1.0  0.64265  0.45311  0.73541  1.0000
  H   H566      1.0  0.52620  0.15434  0.49722  1.0000
  H   H567      1.0  0.44751  0.16905  0.50829  1.0000
  H   H568      1.0  0.53015  0.03663  0.94867  1.0000
  C   C474      1.0  0.44352  0.19457  0.50962  1.0000
  C   C475      1.0  0.50731  0.11767  0.49720  1.0000
  C   C476      1.0  0.31659  0.47142  0.52371  1.0000
  H   H569      1.0  0.47458  0.16501  0.49681  1.0000
  C   C477      1.0  0.54257  0.99719  0.92900  1.0000
  H   H570      1.0  0.34651  0.50578  0.44893  1.0000
  H   H571      1.0  0.34566  0.55001  0.31921  1.0000
  C   C478      1.0  0.63963  0.75714  0.37314  1.0000
  C   C479      1.0  0.36041  0.52527  0.34990  1.0000
  Fe  Fe60      1.0  0.56529  0.78517  0.39315  1.0000
  S   S127      1.0  0.53965  0.76588  0.38636  1.0000
  S   S128      1.0  0.58599  0.74816  0.39023  1.0000
  Fe  Fe61      1.0  0.55292  0.85328  0.40644  1.0000
  S   S129      1.0  0.52670  0.83809  0.40197  1.0000
  S   S130      1.0  0.55909  0.90233  0.42588  1.0000
  Fe  Fe62      1.0  0.53339  0.79342  0.42587  1.0000
  S   S131      1.0  0.51986  0.76763  0.46179  1.0000
  Fe  Fe63      1.0  0.53481  0.81195  0.36225  1.0000
  S   S132      1.0  0.51602  0.81938  0.32657  1.0000
  S   S133      1.0  0.55906  0.81036  0.43371  1.0000
  S   S134      1.0  0.56103  0.82967  0.36569  1.0000
  Fe  Fe64      1.0  0.48289  0.80758  0.16640  1.0000
  S   S135      1.0  0.46224  0.83495  0.18518  1.0000
  S   S136      1.0  0.50306  0.78795  0.19509  1.0000
  Fe  Fe65      1.0  0.47238  0.82246  0.10430  1.0000
  S   S137      1.0  0.45083  0.85095  0.12056  1.0000
  S   S138      1.0  0.47472  0.82463  0.05492  1.0000
  Fe  Fe66      1.0  0.46817  0.87264  0.15217  1.0000
  S   S139      1.0  0.47249  0.92384  0.16852  1.0000
  Fe  Fe67      1.0  0.44627  0.81054  0.15234  1.0000
  S   S140      1.0  0.41976  0.79931  0.16740  1.0000
  S   S141      1.0  0.48982  0.84664  0.13486  1.0000
  S   S142      1.0  0.46684  0.78056  0.13462  1.0000
  Fe  Fe68      1.0  0.34661  0.66423  0.21237  1.0000
  S   S143      1.0  0.34918  0.63805  0.25428  1.0000
  S   S144      1.0  0.37083  0.67768  0.18929  1.0000
  Fe  Fe69      1.0  0.32910  0.67001  0.26909  1.0000
  S   S145      1.0  0.32720  0.69791  0.22812  1.0000
  Fe  Fe70      1.0  0.32911  0.60444  0.23956  1.0000
  H   H572      1.0  0.64530  0.73708  0.33237  1.0000
  H   H573      1.0  0.51838  0.85557  0.17946  1.0000
  S   S146      1.0  0.32785  0.62738  0.19637  1.0000
  Fe  Fe71      1.0  0.33598  0.62258  0.46167  1.0000
  S   S147      1.0  0.34475  0.60731  0.41817  1.0000
  H   H574      1.0  0.53533  0.88308  0.30166  1.0000
  C   C480      1.0  0.52029  0.95216  0.47436  1.0000
  H   H575      1.0  0.53091  0.89189  0.45460  1.0000
  C   C481      1.0  0.33345  0.67051  0.34104  1.0000
  C   C482      1.0  0.33844  0.63859  0.33752  1.0000
  C   C483      1.0  0.34184  0.61948  0.36137  1.0000
  C   C484      1.0  0.33998  0.63190  0.38887  1.0000
  C   C485      1.0  0.33159  0.68298  0.36854  1.0000
  H   H576      1.0  0.48545  0.75917  0.42921  1.0000
  H   H577      1.0  0.52433  0.84608  0.21452  1.0000
  H   H578      1.0  0.52805  0.92544  0.17755  1.0000
  C   C486      1.0  0.46451  0.78438  0.44493  1.0000
  H   H579      1.0  0.32769  0.70764  0.37137  1.0000
  C   C487      1.0  0.40642  0.76495  0.17320  1.0000
  C   C488      1.0  0.41049  0.73344  0.16529  1.0000
  C   C489      1.0  0.39941  0.70734  0.17012  1.0000
  C   C490      1.0  0.38409  0.71207  0.18308  1.0000
  C   C491      1.0  0.38000  0.74362  0.19088  1.0000
  C   C492      1.0  0.39106  0.76973  0.18599  1.0000
  H   H580      1.0  0.42214  0.72912  0.15531  1.0000
  H   H581      1.0  0.40277  0.68320  0.16381  1.0000
  H   H582      1.0  0.36822  0.74802  0.20028  1.0000
  H   H583      1.0  0.38762  0.79387  0.19207  1.0000
  H   H584      1.0  0.42130  0.74456  0.48904  1.0000
  N   N32       1.0  0.52267  0.92122  0.48961  1.0000
  C   C493      1.0  0.46524  0.96005  0.15344  1.0000
  C   C494      1.0  0.45413  0.96004  0.13098  1.0000
  H   H585      1.0  0.55344  0.75135  0.46882  1.0000
  C   C495      1.0  0.54797  0.69152  0.48660  1.0000
  H   H586      1.0  0.45017  0.93740  0.12165  1.0000
  C   C496      1.0  0.51233  0.80741  0.29068  1.0000
  C   C497      1.0  0.49726  0.81499  0.27829  1.0000
  C   C498      1.0  0.49400  0.80810  0.24947  1.0000
  C   C499      1.0  0.50590  0.79396  0.23236  1.0000
  C   C500      1.0  0.52086  0.78572  0.24488  1.0000
  C   C501      1.0  0.52408  0.79241  0.27381  1.0000
  H   H587      1.0  0.48804  0.82651  0.29108  1.0000
  H   H588      1.0  0.48237  0.81423  0.24038  1.0000
  H   H589      1.0  0.53014  0.77455  0.23199  1.0000
  H   H590      1.0  0.53574  0.78640  0.28290  1.0000
  C   C502      1.0  0.55832  0.94021  0.40843  1.0000
  C   C503      1.0  0.55881  0.96856  0.42485  1.0000
  C   C504      1.0  0.59246  0.63953  0.44569  1.0000
  C   C505      1.0  0.33707  0.51575  0.20860  1.0000
  C   C506      1.0  0.55771  0.94278  0.37883  1.0000
  H   H591      1.0  0.55933  0.96684  0.44774  1.0000
  H   H592      1.0  0.55750  0.92111  0.36600  1.0000
  C   C507      1.0  0.51448  0.80474  0.00402  1.0000
  C   C508      1.0  0.35310  0.50343  0.30396  1.0000
  H   H593      1.0  0.50350  0.82831  0.45323  1.0000
  C   C509      1.0  0.60068  0.73538  0.41579  1.0000
  C   C510      1.0  0.60396  0.75291  0.44059  1.0000
  C   C511      1.0  0.61552  0.74172  0.46031  1.0000
  C   C512      1.0  0.62413  0.71302  0.45556  1.0000
  C   C513      1.0  0.62109  0.69576  0.43052  1.0000
  C   C514      1.0  0.60946  0.70691  0.41081  1.0000
  H   H594      1.0  0.59768  0.77529  0.44450  1.0000
  H   H595      1.0  0.61790  0.75556  0.47937  1.0000
  H   H596      1.0  0.62769  0.67385  0.42632  1.0000
  H   H597      1.0  0.60722  0.69328  0.39160  1.0000
  H   H598      1.0  0.50834  0.80000  0.04876  1.0000
  C   C515      1.0  0.47612  0.73801  0.46782  1.0000
  C   C516      1.0  0.48876  0.82155  0.02556  1.0000
  C   C517      1.0  0.50430  0.80826  0.02819  1.0000
  H   H599      1.0  0.54761  0.93812  0.30281  1.0000
  C   C518      1.0  0.55095  0.69909  0.43635  1.0000
  H   H600      1.0  0.54873  0.92413  0.48521  1.0000
  H   H601      1.0  0.33982  0.62872  0.31642  1.0000
  H   H602      1.0  0.63657  0.77296  0.41616  1.0000
  C   C519      1.0  0.55809  0.97350  0.36584  1.0000
  H   H603      1.0  0.46480  0.80199  0.42786  1.0000
  H   H604      1.0  0.55827  0.97532  0.34296  1.0000
  C   C520      1.0  0.42418  0.99146  0.17974  1.0000
  H   H605      1.0  0.34591  0.59503  0.35849  1.0000
  C   C521      1.0  0.47611  0.76019  0.44556  1.0000
  H   H606      1.0  0.55901  0.70681  0.41836  1.0000
  H   H607      1.0  0.35996  0.54465  0.36535  1.0000
  H   H608      1.0  0.49824  0.86890  0.23410  1.0000
  H   H609      1.0  0.50919  0.89129  0.46021  1.0000
  H   H610      1.0  0.48554  0.71991  0.46855  1.0000
  C   C522      1.0  0.60187  0.64026  0.47025  1.0000
  S   S148      1.0  0.32493  0.55218  0.25324  1.0000
  H   H611      1.0  0.34922  0.53300  0.41960  1.0000
  H   H612      1.0  0.43880  0.98927  0.10436  1.0000
  H   H613      1.0  0.33321  0.67338  0.41357  1.0000
  C   C523      1.0  0.50089  0.82003  0.47457  1.0000
  C   C524      1.0  0.39969  0.98699  0.15185  1.0000
  N   N33       1.0  0.32480  0.51399  0.42419  1.0000
  H   H614      1.0  0.42130  0.78800  0.48696  1.0000
  C   C525      1.0  0.47031  0.98967  0.16531  1.0000
  H   H615      1.0  0.57249  0.65828  0.42314  1.0000
  C   C526      1.0  0.34053  0.52501  0.43649  1.0000
  C   C527      1.0  0.50723  0.79082  0.48404  1.0000
  C   C528      1.0  0.31773  0.54191  0.40888  1.0000
  S   S149      1.0  0.63888  0.70085  0.48114  1.0000
  H   H616      1.0  0.59594  0.62393  0.42829  1.0000
  H   H617      1.0  0.52272  0.86955  0.48318  1.0000
  H   H618      1.0  0.52628  0.79375  0.00648  1.0000
  C   C529      1.0  0.51855  0.98425  0.43051  1.0000
  H   H619      1.0  0.32609  0.55135  0.39202  1.0000
  N   N34       1.0  0.55966  0.70121  0.46393  1.0000
  H   H620      1.0  0.54624  0.67421  0.43220  1.0000
  C   C530      1.0  0.64363  0.75813  0.40182  1.0000
  H   H621      1.0  0.34281  0.53771  0.20068  1.0000
  C   C531      1.0  0.45289  0.78652  0.46661  1.0000
  C   C532      1.0  0.56432  0.73562  0.46818  1.0000
  N   N35       1.0  0.41373  0.90179  0.16882  1.0000
  C   C533      1.0  0.42830  0.88937  0.18365  1.0000
  C   C534      1.0  0.39912  0.88822  0.18346  1.0000
  C   C535      1.0  0.41410  0.88918  0.13933  1.0000
  C   C536      1.0  0.41303  0.93756  0.16831  1.0000
  C   C537      1.0  0.40021  0.95327  0.15381  1.0000
  C   C538      1.0  0.42495  0.95777  0.18156  1.0000
  H   H622      1.0  0.53105  0.95632  0.21854  1.0000
  C   C539      1.0  0.32735  0.51668  0.23303  1.0000
  H   H623      1.0  0.52136  0.86361  0.25955  1.0000
  H   H624      1.0  0.42860  0.89679  0.20633  1.0000
  H   H625      1.0  0.42852  0.86249  0.18364  1.0000
  H   H626      1.0  0.43976  0.89773  0.17308  1.0000
  H   H627      1.0  0.39820  0.89758  0.20554  1.0000
  H   H628      1.0  0.39953  0.86125  0.18464  1.0000
  H   H629      1.0  0.38764  0.89416  0.17231  1.0000
  H   H630      1.0  0.42441  0.90019  0.12709  1.0000
  H   H631      1.0  0.41554  0.86240  0.13891  1.0000
  H   H632      1.0  0.40271  0.89403  0.12751  1.0000
  H   H633      1.0  0.39064  0.93954  0.14345  1.0000
  H   H634      1.0  0.43531  0.94830  0.19275  1.0000
  H   H635      1.0  0.50900  0.90814  0.16650  1.0000
  C   C540      1.0  0.48387  0.83197  0.99836  1.0000
  C   C541      1.0  0.33469  0.66361  0.39244  1.0000
  C   C542      1.0  0.52007  0.95441  0.44421  1.0000
  H   H636      1.0  0.57213  0.74444  0.45044  1.0000
  C   C543      1.0  0.46456  0.73989  0.48964  1.0000
  H   H637      1.0  0.50884  0.94075  0.19096  1.0000
  H   H638      1.0  0.49253  0.87550  0.19827  1.0000
  H   H639      1.0  0.54535  0.97411  0.26088  1.0000
  H   H640      1.0  0.62949  0.77113  0.36535  1.0000
  C   C544      1.0  0.58411  0.68057  0.49020  1.0000
  C   C545      1.0  0.44777  0.98946  0.12115  1.0000
  H   H641      1.0  0.53654  0.70573  0.48544  1.0000
  H   H642      1.0  0.53742  0.87114  0.19319  1.0000
  C   C546      1.0  0.57427  0.68061  0.46541  1.0000
  C   C547      1.0  0.52121  0.89238  0.47101  1.0000
  N   N36       1.0  0.37738  0.72122  0.28471  1.0000
  C   C548      1.0  0.36492  0.72406  0.26218  1.0000
  C   C549      1.0  0.37753  0.68727  0.29499  1.0000
  C   C550      1.0  0.37221  0.74172  0.30891  1.0000
  C   C551      1.0  0.39354  0.73036  0.27279  1.0000
  C   C552      1.0  0.40260  0.75798  0.28205  1.0000
  C   C553      1.0  0.40040  0.71204  0.25039  1.0000
  C   C554      1.0  0.41752  0.76657  0.26940  1.0000
  C   C555      1.0  0.41536  0.72072  0.23809  1.0000
  C   C556      1.0  0.42384  0.74807  0.24738  1.0000
  H   H643      1.0  0.36694  0.70686  0.24446  1.0000
  H   H644      1.0  0.35244  0.71893  0.27045  1.0000
  H   H645      1.0  0.36495  0.74881  0.25291  1.0000
  H   H646      1.0  0.38721  0.68382  0.31115  1.0000
  H   H647      1.0  0.37964  0.66971  0.27759  1.0000
  H   H648      1.0  0.36564  0.68003  0.30486  1.0000
  H   H649      1.0  0.37065  0.76733  0.30232  1.0000
  H   H650      1.0  0.36015  0.73361  0.31764  1.0000
  H   H651      1.0  0.38102  0.74057  0.32678  1.0000
  H   H652      1.0  0.39836  0.77353  0.29880  1.0000
  H   H653      1.0  0.39403  0.69129  0.24155  1.0000
  H   H654      1.0  0.42419  0.78787  0.27648  1.0000
  H   H655      1.0  0.42020  0.70659  0.22069  1.0000
  H   H656      1.0  0.43525  0.75508  0.23723  1.0000
  H   H657      1.0  0.33889  0.54594  0.45106  1.0000
  N   N37       1.0  0.51616  0.89525  0.20908  1.0000
  C   C557      1.0  0.49908  0.88663  0.21655  1.0000
  C   C558      1.0  0.51561  0.91859  0.18509  1.0000
  C   C559      1.0  0.52445  0.86590  0.19863  1.0000
  C   C560      1.0  0.52470  0.90781  0.23455  1.0000
  C   C561      1.0  0.52630  0.88797  0.25900  1.0000
  C   C562      1.0  0.53168  0.93946  0.23599  1.0000
  C   C563      1.0  0.53436  0.89895  0.28331  1.0000
  C   C564      1.0  0.53987  0.95014  0.26038  1.0000
  C   C565      1.0  0.54120  0.92993  0.28398  1.0000
  H   H658      1.0  0.49216  0.90830  0.22320  1.0000
  H   H659      1.0  0.47889  0.98989  0.18271  1.0000
  H   H660      1.0  0.54023  0.71533  0.43582  1.0000
  H   H661      1.0  0.52158  0.93364  0.43064  1.0000
  C   C566      1.0  0.35242  0.52828  0.32399  1.0000
  H   H662      1.0  0.44440  0.80618  0.46550  1.0000
  S   S150      1.0  0.33003  0.69549  0.31140  1.0000
  C   C567      1.0  0.57892  0.65950  0.44306  1.0000
  C   C568      1.0  0.59776  0.66088  0.49237  1.0000
  H   H663      1.0  0.48632  0.86123  0.48528  1.0000
  H   H664      1.0  0.51891  0.98553  0.40752  1.0000
  C   C569      1.0  0.45254  0.76434  0.48968  1.0000
  H   H665      1.0  0.46282  0.75469  0.01181  1.0000
  S   S151      1.0  0.33431  0.67116  0.48295  1.0000
  H   H666      1.0  0.34640  0.50681  0.28451  1.0000
  C   C570      1.0  0.51914  0.98161  0.48969  1.0000
  H   H667      1.0  0.32036  0.50668  0.36505  1.0000
  C   C571      1.0  0.64848  0.73777  0.35469  1.0000
  C   C572      1.0  0.49112  0.83854  0.49270  1.0000
  H   H668      1.0  0.54460  0.66544  0.48484  1.0000
  H   H669      1.0  0.57103  0.74004  0.48822  1.0000
  H   H670      1.0  0.61260  0.62538  0.47191  1.0000
  S   S152      1.0  0.64111  0.53623  0.49027  1.0000
  H   H671      1.0  0.53979  0.90007  0.99618  1.0000
  C   C573      1.0  0.36894  0.49724  0.35594  1.0000
  Fe  Fe72      1.0  0.54154  0.85862  0.85338  1.0000
  S   S153      1.0  0.51617  0.85139  0.86994  1.0000
  S   S154      1.0  0.55250  0.90830  0.84466  1.0000
  Fe  Fe73      1.0  0.54825  0.78590  0.84885  1.0000
  S   S155      1.0  0.52285  0.77383  0.86537  1.0000
  S   S156      1.0  0.56382  0.74307  0.83377  1.0000
  Fe  Fe74      1.0  0.51420  0.81311  0.83588  1.0000
  S   S157      1.0  0.49046  0.81460  0.81054  1.0000
  Fe  Fe75      1.0  0.52677  0.81315  0.89817  1.0000
  S   S158      1.0  0.52267  0.80788  0.94679  1.0000
  S   S159      1.0  0.53905  0.82281  0.81764  1.0000
  S   S160      1.0  0.55272  0.82270  0.88337  1.0000
  C   C574      1.0  0.48049  0.75219  0.97812  1.0000
  S   S161      1.0  0.63636  0.63496  0.76260  1.0000
  S   S162      1.0  0.63928  0.70880  0.81361  1.0000
  H   H672      1.0  0.45331  0.74251  0.54585  1.0000
  Fe  Fe76      1.0  0.46269  0.81016  0.64455  1.0000
  S   S163      1.0  0.43649  0.82478  0.65051  1.0000
  S   S164      1.0  0.47966  0.78768  0.67760  1.0000
  Fe  Fe77      1.0  0.46435  0.83818  0.58411  1.0000
  S   S165      1.0  0.43868  0.85581  0.58703  1.0000
  S   S166      1.0  0.47667  0.85397  0.54298  1.0000
  Fe  Fe78      1.0  0.44500  0.87187  0.63088  1.0000
  S   S167      1.0  0.43977  0.91964  0.65239  1.0000
  Fe  Fe79      1.0  0.43235  0.80679  0.60548  1.0000
  S   S168      1.0  0.40886  0.78784  0.58370  1.0000
  S   S169      1.0  0.47113  0.85804  0.62688  1.0000
  S   S170      1.0  0.45803  0.78850  0.60068  1.0000
  Fe  Fe80      1.0  0.34565  0.64720  0.52123  1.0000
  C   C575      1.0  0.48452  0.79753  0.89600  1.0000
  S   S171      1.0  0.36779  0.65985  0.54967  1.0000
  H   H673      1.0  0.60381  0.75058  0.77099  1.0000
  H   H674      1.0  0.41257  0.87929  0.62849  1.0000
  H   H675      1.0  0.64219  0.73159  0.69396  1.0000
  H   H676      1.0  0.49548  0.73731  0.89725  1.0000
  H   H677      1.0  0.51980  0.98210  0.51258  1.0000
  C   C576      1.0  0.50319  0.77959  0.51139  1.0000
  S   S172      1.0  0.32125  0.63126  0.53958  1.0000
  C   C577      1.0  0.43793  0.95597  0.63288  1.0000
  C   C578      1.0  0.64902  0.65005  0.62791  1.0000
  H   H678      1.0  0.37180  0.87061  0.69716  1.0000
  C   C579      1.0  0.62293  0.70605  0.73424  1.0000
  C   C580      1.0  0.43488  0.95587  0.60366  1.0000
  H   H679      1.0  0.63428  0.64288  0.83672  1.0000
  H   H680      1.0  0.43435  0.93322  0.59224  1.0000
  C   C581      1.0  0.39784  0.75172  0.57426  1.0000
  C   C582      1.0  0.38385  0.75427  0.55714  1.0000
  C   C583      1.0  0.37463  0.72659  0.54911  1.0000
  C   C584      1.0  0.37919  0.69582  0.55827  1.0000
  C   C585      1.0  0.39323  0.69328  0.57531  1.0000
  C   C586      1.0  0.40252  0.72094  0.58317  1.0000
  H   H681      1.0  0.38005  0.77787  0.55008  1.0000
  H   H682      1.0  0.36389  0.72912  0.53606  1.0000
  H   H683      1.0  0.39690  0.66971  0.58262  1.0000
  H   H684      1.0  0.41317  0.71841  0.59641  1.0000
  C   C587      1.0  0.45480  0.76636  0.94158  1.0000
  C   C588      1.0  0.48763  0.82806  0.52041  1.0000
  C   C589      1.0  0.49342  0.79821  0.52961  1.0000
  C   C590      1.0  0.53519  0.89071  0.97553  1.0000
  C   C591      1.0  0.58117  0.76412  0.75336  1.0000
  H   H685      1.0  0.49077  0.78990  0.55095  1.0000
  H   H686      1.0  0.35323  0.60070  0.57434  1.0000
  H   H687      1.0  0.52037  0.92315  0.86780  1.0000
  H   H688      1.0  0.50861  0.96303  0.78037  1.0000
  H   H689      1.0  0.34310  0.56777  0.55699  1.0000
  H   H690      1.0  0.39586  0.83497  0.62115  1.0000
  C   C592      1.0  0.48326  0.74004  0.88754  1.0000
  C   C593      1.0  0.49414  0.82884  0.97425  1.0000
  C   C594      1.0  0.57214  0.76942  0.72887  1.0000
  C   C595      1.0  0.50946  0.81463  0.97677  1.0000
  C   C596      1.0  0.60524  0.75068  0.72469  1.0000
  H   H691      1.0  0.48736  0.80270  0.87326  1.0000
  H   H692      1.0  0.48998  0.83675  0.95369  1.0000
  H   H693      1.0  0.56328  0.87712  0.95268  1.0000
  C   C597      1.0  0.58492  0.73465  0.82786  1.0000
  C   C598      1.0  0.58912  0.70526  0.81480  1.0000
  C   C599      1.0  0.60558  0.69697  0.81021  1.0000
  C   C600      1.0  0.61819  0.71797  0.81867  1.0000
  C   C601      1.0  0.61400  0.74741  0.83164  1.0000
  C   C602      1.0  0.59752  0.75580  0.83608  1.0000
  H   H694      1.0  0.57953  0.68861  0.80837  1.0000
  H   H695      1.0  0.60844  0.67421  0.80029  1.0000
  H   H696      1.0  0.62359  0.76393  0.83834  1.0000
  H   H697      1.0  0.59459  0.77848  0.84616  1.0000
  C   C603      1.0  0.48816  0.80884  0.77314  1.0000
  C   C604      1.0  0.49998  0.79345  0.75672  1.0000
  C   C605      1.0  0.49722  0.78751  0.72756  1.0000
  C   C606      1.0  0.48280  0.79746  0.71418  1.0000
  C   C607      1.0  0.47119  0.81376  0.73043  1.0000
  C   C608      1.0  0.47381  0.81913  0.75973  1.0000
  H   H698      1.0  0.51104  0.78517  0.76663  1.0000
  H   H699      1.0  0.50625  0.77476  0.71531  1.0000
  H   H700      1.0  0.46004  0.82155  0.72056  1.0000
  H   H701      1.0  0.46456  0.83109  0.77211  1.0000
  H   H702      1.0  0.37791  0.59169  0.60134  1.0000
  C   C609      1.0  0.55035  0.97446  0.84476  1.0000
  C   C610      1.0  0.54236  0.94503  0.85114  1.0000
  C   C611      1.0  0.52669  0.94553  0.86285  1.0000
  C   C612      1.0  0.51926  0.97522  0.86871  1.0000
  H   H703      1.0  0.56247  0.97430  0.83564  1.0000
  N   N38       1.0  0.50789  0.91070  0.77624  1.0000
  C   C613      1.0  0.52014  0.88477  0.77858  1.0000
  C   C614      1.0  0.51684  0.94213  0.77805  1.0000
  C   C615      1.0  0.49675  0.90766  0.80097  1.0000
  C   C616      1.0  0.49823  0.90908  0.74972  1.0000
  C   C617      1.0  0.49928  0.88298  0.73015  1.0000
  C   C618      1.0  0.48692  0.93368  0.74323  1.0000
  H   H704      1.0  0.53734  0.86736  0.92463  1.0000
  S   S173      1.0  0.63971  0.54971  0.78782  1.0000
  H   H705      1.0  0.54220  0.90332  0.90540  1.0000
  H   H706      1.0  0.52878  0.88526  0.76031  1.0000
  H   H707      1.0  0.52507  0.94317  0.79685  1.0000
  H   H708      1.0  0.52452  0.94631  0.75882  1.0000
  H   H709      1.0  0.48949  0.88468  0.79990  1.0000
  H   H710      1.0  0.50358  0.90758  0.82138  1.0000
  H   H711      1.0  0.48799  0.92785  0.80210  1.0000
  H   H712      1.0  0.38917  0.50808  0.56932  1.0000
  H   H713      1.0  0.48513  0.95386  0.75738  1.0000
  H   H714      1.0  0.63924  0.62786  0.88620  1.0000
  H   H715      1.0  0.48274  0.99403  0.96156  1.0000
  C   C619      1.0  0.37554  0.56542  0.54944  1.0000
  H   H716      1.0  0.62393  0.67079  0.87508  1.0000
  H   H717      1.0  0.60556  0.57300  0.83570  1.0000
  H   H718      1.0  0.42961  0.98490  0.56675  1.0000
  C   C620      1.0  0.61403  0.57355  0.85414  1.0000
  C   C621      1.0  0.59745  0.75490  0.75137  1.0000
  H   H719      1.0  0.57224  0.76939  0.68328  1.0000
  H   H720      1.0  0.63187  0.78631  0.73528  1.0000
  C   C622      1.0  0.44130  0.74221  0.53489  1.0000
  C   C623      1.0  0.62828  0.61883  0.83383  1.0000
  H   H721      1.0  0.60784  0.56277  0.87302  1.0000
  H   H722      1.0  0.46272  0.77508  0.85850  1.0000
  N   N39       1.0  0.44045  0.76791  0.51287  1.0000
  C   C624      1.0  0.59946  0.68458  0.88237  1.0000
  H   H723      1.0  0.62675  0.59750  0.90338  1.0000
  H   H724      1.0  0.36918  0.55785  0.62049  1.0000
  H   H725      1.0  0.33695  0.51920  0.58194  1.0000
  H   H726      1.0  0.34370  0.56990  0.59527  1.0000
  H   H727      1.0  0.44092  0.98590  0.67000  1.0000
  H   H728      1.0  0.57547  0.76676  0.77407  1.0000
  N   N40       1.0  0.47427  0.76798  0.89922  1.0000
  C   C625      1.0  0.45951  0.77217  0.88145  1.0000
  H   H729      1.0  0.50789  0.75678  0.51872  1.0000
  H   H730      1.0  0.49593  0.75393  0.94195  1.0000
  H   H731      1.0  0.60290  0.70944  0.88700  1.0000
  H   H732      1.0  0.60040  0.75306  0.67886  1.0000
  H   H733      1.0  0.50728  0.97545  0.87835  1.0000
  H   H734      1.0  0.55948  0.77630  0.73053  1.0000
  H   H735      1.0  0.47833  0.81903  0.90491  1.0000
  H   H736      1.0  0.63032  0.75790  0.76423  1.0000
  H   H737      1.0  0.45113  0.75084  0.88315  1.0000
  H   H738      1.0  0.64200  0.58650  0.87768  1.0000
  H   H739      1.0  0.49634  0.79543  0.90726  1.0000
  C   C626      1.0  0.48983  0.88215  0.70546  1.0000
  C   C627      1.0  0.62925  0.73946  0.69410  1.0000
  H   H740      1.0  0.38788  0.55345  0.60113  1.0000
  H   H741      1.0  0.43897  0.71782  0.52569  1.0000
  C   C628      1.0  0.59041  0.62127  0.86816  1.0000
  H   H742      1.0  0.38463  0.78178  0.63060  1.0000
  H   H743      1.0  0.63789  0.60202  0.82661  1.0000
  C   C629      1.0  0.44328  0.79930  0.52725  1.0000
  C   C630      1.0  0.57937  0.76549  0.70229  1.0000
  H   H744      1.0  0.62894  0.76391  0.68427  1.0000
  H   H745      1.0  0.47634  0.71701  0.89104  1.0000
  C   C631      1.0  0.52616  0.99180  0.97130  1.0000
  N   N41       1.0  0.36624  0.55549  0.57523  1.0000
  H   H746      1.0  0.63554  0.69675  0.73342  1.0000
  N   N42       1.0  0.39148  0.89179  0.65337  1.0000
  C   C632      1.0  0.37788  0.91480  0.65058  1.0000
  C   C633      1.0  0.40176  0.90169  0.67781  1.0000
  C   C634      1.0  0.40165  0.89484  0.62729  1.0000
  C   C635      1.0  0.38491  0.85868  0.65821  1.0000
  C   C636      1.0  0.37481  0.85191  0.68212  1.0000
  C   C637      1.0  0.38826  0.83240  0.63978  1.0000
  H   H747      1.0  0.62279  0.72174  0.68013  1.0000
  H   H748      1.0  0.62413  0.55704  0.84816  1.0000
  C   C638      1.0  0.47066  0.76282  0.92977  1.0000
  H   H749      1.0  0.37055  0.91660  0.67036  1.0000
  H   H750      1.0  0.38244  0.93974  0.64576  1.0000
  H   H751      1.0  0.36950  0.90733  0.63313  1.0000
  H   H752      1.0  0.40727  0.92624  0.67462  1.0000
  H   H753      1.0  0.41205  0.88470  0.68075  1.0000
  H   H754      1.0  0.39486  0.90253  0.69808  1.0000
  H   H755      1.0  0.39465  0.88848  0.60783  1.0000
  H   H756      1.0  0.40643  0.91997  0.62427  1.0000
  C   C639      1.0  0.53590  0.89404  0.92477  1.0000
  H   H757      1.0  0.44435  0.77209  0.92882  1.0000
  H   H758      1.0  0.51424  0.86038  0.77990  1.0000
  C   C640      1.0  0.56038  0.90336  0.95180  1.0000
  C   C641      1.0  0.53918  0.94371  0.95125  1.0000
  H   H759      1.0  0.52765  0.88748  0.79815  1.0000
  C   C642      1.0  0.35088  0.57411  0.57550  1.0000
  H   H760      1.0  0.48553  0.74268  0.86426  1.0000
  H   H761      1.0  0.57380  0.69351  0.88596  1.0000
  C   C643      1.0  0.59566  0.75615  0.70007  1.0000
  C   C644      1.0  0.60728  0.62975  0.86826  1.0000
  C   C645      1.0  0.36353  0.51998  0.57527  1.0000
  N   N43       1.0  0.62229  0.73953  0.72330  1.0000
  H   H762      1.0  0.51097  0.89277  0.52284  1.0000
  H   H763      1.0  0.58604  0.59740  0.86257  1.0000
  H   H764      1.0  0.36711  0.77155  0.67256  1.0000
  C   C646      1.0  0.47751  0.93253  0.71849  1.0000
  H   H765      1.0  0.52163  0.89167  0.97532  1.0000
  H   H766      1.0  0.34726  0.52361  0.50544  1.0000
  H   H767      1.0  0.47160  0.90590  0.68060  1.0000
  H   H768      1.0  0.58144  0.69597  0.50805  1.0000
  H   H769      1.0  0.55308  0.95450  0.91255  1.0000
  H   H770      1.0  0.36971  0.55549  0.52996  1.0000
  C   C647      1.0  0.37199  0.79565  0.66864  1.0000
  H   H771      1.0  0.55305  0.69562  0.50817  1.0000
  H   H772      1.0  0.63699  0.65987  0.62503  1.0000
  H   H773      1.0  0.46892  0.95151  0.71387  1.0000
  C   C648      1.0  0.46488  0.75622  0.98905  1.0000
  H   H774      1.0  0.56668  0.91297  0.93253  1.0000
  C   C649      1.0  0.43219  0.98517  0.58926  1.0000
  H   H775      1.0  0.38835  0.55723  0.54973  1.0000
  C   C650      1.0  0.34066  0.50104  0.50820  1.0000
  C   C651      1.0  0.63253  0.60465  0.88285  1.0000
  C   C652      1.0  0.37574  0.56500  0.60066  1.0000
  H   H776      1.0  0.37626  0.59223  0.54706  1.0000
  C   C653      1.0  0.57854  0.64405  0.87478  1.0000
  H   H777      1.0  0.45280  0.79438  0.88734  1.0000
  C   C654      1.0  0.63303  0.76038  0.74114  1.0000
  H   H778      1.0  0.51210  0.93471  0.53023  1.0000
  C   C655      1.0  0.52927  0.95861  0.97221  1.0000
  H   H779      1.0  0.50710  0.86258  0.73352  1.0000
  H   H780      1.0  0.52267  0.89905  0.92251  1.0000
  H   H781      1.0  0.46554  0.72233  0.50647  1.0000
  H   H782      1.0  0.49071  0.86188  0.69091  1.0000
  H   H783      1.0  0.61513  0.68929  0.72148  1.0000
  H   H784      1.0  0.36083  0.81619  0.70561  1.0000
  H   H785      1.0  0.41431  0.76844  0.51842  1.0000
  C   C656      1.0  0.61142  0.66214  0.87557  1.0000
  C   C657      1.0  0.47899  0.90684  0.69965  1.0000
  H   H786      1.0  0.56572  0.63740  0.87397  1.0000
  N   N44       1.0  0.54253  0.90861  0.95111  1.0000
  H   H787      1.0  0.61889  0.70424  0.75668  1.0000
  H   H788      1.0  0.53818  0.86449  0.97494  1.0000
  C   C658      1.0  0.38185  0.80144  0.64502  1.0000
  C   C659      1.0  0.36847  0.82083  0.68718  1.0000
  C   C660      1.0  0.58305  0.67563  0.88177  1.0000
  H   H789      1.0  0.43996  0.76650  0.97958  1.0000
  N   N45       1.0  0.62017  0.60688  0.86000  1.0000
  C   C661      1.0  0.54570  0.96407  0.92958  1.0000
  Fe  Fe81      1.0  0.32396  0.58586  0.51387  1.0000
  H   H790      1.0  0.49052  0.74766  0.99249  1.0000
  H   H791      1.0  0.43201  0.74566  0.55190  1.0000
  S   S174      1.0  0.64323  0.65646  0.68482  1.0000
  H   H792      1.0  0.64609  0.75376  0.73897  1.0000
  C   C662      1.0  0.37685  0.49883  0.57149  1.0000
  S   S175      1.0  0.34884  0.59971  0.49832  1.0000
  H   H793      1.0  0.56601  0.91528  0.97062  1.0000
  H   H794      1.0  0.43434  0.80319  0.54463  1.0000
  C   C663      1.0  0.32497  0.50095  0.51987  1.0000
  C   C664      1.0  0.48342  0.75566  0.94901  1.0000
  H   H795      1.0  0.47190  0.84222  0.99586  1.0000
  H   H796      1.0  0.54105  0.94163  0.51733  1.0000
  C   C665      1.0  0.45206  0.76313  0.97083  1.0000
  C   C666      1.0  0.51040  0.91711  0.51270  1.0000
  H   H797      1.0  0.64631  0.51522  0.55043  1.0000
  H   H798      1.0  0.61936  0.62109  0.81623  1.0000
  H   H799      1.0  0.44233  0.82032  0.51268  1.0000
  H   H800      1.0  0.54168  0.89849  0.51367  1.0000
  C   C667      1.0  0.34787  0.50532  0.57898  1.0000
  H   H801      1.0  0.49778  0.91971  0.50441  1.0000
  C   C668      1.0  0.43862  0.98559  0.64739  1.0000
  C   C669      1.0  0.53922  0.92140  0.50211  1.0000
  H   H802      1.0  0.60544  0.66203  0.51107  1.0000
  H   H803      1.0  0.45567  0.80042  0.53668  1.0000
  C   C670      1.0  0.42367  0.76720  0.50121  1.0000
  H   H804      1.0  0.52370  0.94516  0.98944  1.0000
  S   S176      1.0  0.64839  0.61977  0.52298  1.0000
  H   H805      1.0  0.64840  0.55561  0.70369  1.0000
  H   H806      1.0  0.68698  0.23130  0.46570  1.0000
  H   H807      1.0  0.65814  0.11625  0.38289  1.0000
  S   S177      1.0  0.82128  0.30250  0.45965  1.0000
  C   C671      1.0  0.95370  0.17689  0.03891  1.0000
  N   N46       1.0  0.67925  0.21065  0.42580  1.0000
  H   H808      1.0  0.95200  0.14467  0.14407  1.0000
  Fe  Fe82      1.0  0.84310  0.27662  0.47750  1.0000
  S   S178      1.0  0.85321  0.23233  0.45400  1.0000
  C   C672      1.0  0.66593  0.18945  0.41508  1.0000
  S   S179      1.0  0.71534  0.27421  0.46080  1.0000
  C   C673      1.0  0.69575  0.19670  0.42265  1.0000
  H   H809      1.0  0.68931  0.25828  0.41738  1.0000
  S   S180      1.0  0.67123  0.30910  0.45591  1.0000
  H   H810      1.0  0.83961  0.27213  0.40695  1.0000
  Fe  Fe83      1.0  0.93487  0.14488  0.38747  1.0000
  S   S181      1.0  0.96213  0.14944  0.39403  1.0000
  S   S182      1.0  0.92192  0.19183  0.40010  1.0000
  Fe  Fe84      1.0  0.93814  0.07391  0.36913  1.0000
  S   S183      1.0  0.96501  0.07421  0.37600  1.0000
  S   S184      1.0  0.92857  0.02693  0.35038  1.0000
  Fe  Fe85      1.0  0.95969  0.10146  0.41585  1.0000
  H   H811      1.0  0.96237  0.03019  0.28835  1.0000
  Fe  Fe86      1.0  0.96496  0.12172  0.35294  1.0000
  C   C674      1.0  0.96395  0.17350  0.06233  1.0000
  S   S185      1.0  0.93250  0.09756  0.41099  1.0000
  S   S186      1.0  0.93803  0.12086  0.34443  1.0000
  H   H812      1.0  0.67541  0.19420  0.46872  1.0000
  C   C675      1.0  0.78767  0.42194  0.47139  1.0000
  H   H813      1.0  0.68081  0.14934  0.39954  1.0000
  H   H814      1.0  0.66774  0.25518  0.41317  1.0000
  H   H815      1.0  0.96213  0.11092  0.27717  1.0000
  H   H816      1.0  0.75298  0.34635  0.47513  1.0000
  C   C676      1.0  0.67666  0.21712  0.45645  1.0000
  H   H817      1.0  0.93063  0.11535  0.48790  1.0000
  C   C677      1.0  0.83270  0.48178  0.41681  1.0000
  C   C678      1.0  0.78486  0.36587  0.45971  1.0000
  S   S187      1.0  0.83389  0.38777  0.43943  1.0000
  H   H818      1.0  0.68684  0.47060  0.45763  1.0000
  H   H819      1.0  0.90911  0.14470  0.47514  1.0000
  C   C679      1.0  0.87277  0.22102  0.44072  1.0000
  C   C680      1.0  0.88638  0.24184  0.44139  1.0000
  C   C681      1.0  0.90136  0.23215  0.42946  1.0000
  C   C682      1.0  0.90312  0.20130  0.41726  1.0000
  C   C683      1.0  0.88967  0.18011  0.41736  1.0000
  C   C684      1.0  0.87457  0.19007  0.42871  1.0000
  H   H820      1.0  0.88540  0.26546  0.45094  1.0000
  H   H821      1.0  0.91165  0.24879  0.42951  1.0000
  H   H822      1.0  0.89072  0.15644  0.40786  1.0000
  H   H823      1.0  0.86418  0.17368  0.42807  1.0000
  C   C685      1.0  0.83307  0.43055  0.44225  1.0000
  C   C686      1.0  0.83212  0.44752  0.46808  1.0000
  H   H824      1.0  0.88292  0.16971  0.48458  1.0000
  C   C687      1.0  0.94311  0.16605  0.46178  1.0000
  C   C688      1.0  0.83328  0.44800  0.41680  1.0000
  H   H825      1.0  0.89995  0.21521  0.34978  1.0000
  C   C689      1.0  0.93690  0.17854  0.04276  1.0000
  H   H826      1.0  0.68084  0.23794  0.38692  1.0000
  C   C690      1.0  0.76447  0.27964  0.47410  1.0000
  C   C691      1.0  0.74901  0.27459  0.46162  1.0000
  C   C692      1.0  0.73463  0.28074  0.47694  1.0000
  H   H827      1.0  0.90900  0.27158  0.35754  1.0000
  H   H828      1.0  0.76111  0.44837  0.45669  1.0000
  H   H829      1.0  0.77544  0.27484  0.46215  1.0000
  H   H830      1.0  0.74820  0.26595  0.44000  1.0000
  C   C693      1.0  0.83137  0.48185  0.46808  1.0000
  C   C694      1.0  0.96894  0.03688  0.30815  1.0000
  H   H831      1.0  0.84794  0.35055  0.37478  1.0000
  C   C695      1.0  0.89399  0.18073  0.49288  1.0000
  H   H832      1.0  0.78352  0.44266  0.48444  1.0000
  H   H833      1.0  0.66551  0.23135  0.46048  1.0000
  S   S188      1.0  0.67650  0.40470  0.46193  1.0000
  C   C696      1.0  0.72669  0.40281  0.45265  1.0000
  C   C697      1.0  0.85685  0.33215  0.36749  1.0000
  N   N47       1.0  0.85734  0.30414  0.38719  1.0000
  H   H834      1.0  0.85476  0.33417  0.42427  1.0000
  H   H835      1.0  0.87538  0.32689  0.41442  1.0000
  C   C698      1.0  0.95769  0.17136  0.09041  1.0000
  C   C699      1.0  0.67463  0.47031  0.46637  1.0000
  N   N48       1.0  0.77731  0.39258  0.47593  1.0000
  H   H836      1.0  0.93347  0.15373  0.44909  1.0000
  H   H837      1.0  0.97432  0.21841  0.11585  1.0000
  H   H838      1.0  0.95887  0.17828  0.01767  1.0000
  N   N49       1.0  0.96892  0.16734  0.11468  1.0000
  H   H839      1.0  0.72449  0.35205  0.46212  1.0000
  C   C700      1.0  0.89121  0.23317  0.35638  1.0000
  C   C701      1.0  0.67926  0.24180  0.41015  1.0000
  H   H840      1.0  0.71390  0.40514  0.44718  1.0000
  H   H841      1.0  0.69888  0.19250  0.39996  1.0000
  C   C702      1.0  0.93031  0.17670  0.07005  1.0000
  H   H842      1.0  0.96979  0.06377  0.30914  1.0000
  H   H843      1.0  0.83523  0.28274  0.37044  1.0000
  H   H844      1.0  0.88988  0.31210  0.37435  1.0000
  C   C703      1.0  0.97381  0.11543  0.26708  1.0000
  H   H845      1.0  0.92900  0.18131  0.02454  1.0000
  C   C704      1.0  0.84034  0.29187  0.39080  1.0000
  C   C705      1.0  0.87509  0.22407  0.36175  1.0000
  C   C706      1.0  0.88525  0.28791  0.37062  1.0000
  Fe  Fe87      1.0  0.69299  0.29537  0.48199  1.0000
  H   H846      1.0  0.70541  0.21335  0.43111  1.0000
  C   C707      1.0  0.73720  0.42958  0.45119  1.0000
  C   C708      1.0  0.86870  0.27952  0.37627  1.0000
  H   H847      1.0  0.86347  0.29525  0.43064  1.0000
  C   C709      1.0  0.66874  0.15889  0.40226  1.0000
  H   H848      1.0  0.85187  0.23757  0.37654  1.0000
  Fe  Fe88      1.0  0.67176  0.35539  0.48128  1.0000
  H   H849      1.0  0.78797  0.42921  0.44860  1.0000
  H   H850      1.0  0.80057  0.41774  0.47760  1.0000
  S   S189      1.0  0.85671  0.32270  0.48773  1.0000
  H   H851      1.0  0.95480  0.15408  0.45655  1.0000
  H   H852      1.0  0.86877  0.34510  0.36591  1.0000
  C   C710      1.0  0.89630  0.26499  0.36088  1.0000
  Fe  Fe89      1.0  0.83424  0.34840  0.47294  1.0000
  C   C711      1.0  0.76012  0.39654  0.46715  1.0000
  H   H853      1.0  0.85330  0.32431  0.34574  1.0000
  H   H854      1.0  0.96529  0.10273  0.22512  1.0000
  H   H855      1.0  0.96946  0.16238  0.16043  1.0000
  H   H856      1.0  0.96099  0.02952  0.32623  1.0000
  H   H857      1.0  0.83295  0.49465  0.39679  1.0000
  C   C712      1.0  0.97804  0.13694  0.11117  1.0000
  H   H858      1.0  0.83208  0.31115  0.39851  1.0000
  C   C713      1.0  0.97565  0.11084  0.23751  1.0000
  H   H859      1.0  0.96963  0.11568  0.10950  1.0000
  C   C714      1.0  0.86302  0.31565  0.41527  1.0000
  C   C715      1.0  0.94048  0.17311  0.09364  1.0000
  C   C716      1.0  0.86396  0.24671  0.37172  1.0000
  H   H860      1.0  0.87138  0.19897  0.35925  1.0000
  C   C717      1.0  0.96059  0.16571  0.14275  1.0000
  H   H861      1.0  0.97688  0.17256  0.05827  1.0000
  H   H862      1.0  0.83397  0.43531  0.39677  1.0000
  S   S190      1.0  0.96944  0.08435  0.45815  1.0000
  H   H863      1.0  0.93888  0.01433  0.40831  1.0000
  H   H864      1.0  0.78351  0.36955  0.43643  1.0000
  Fe  Fe90      1.0  0.65575  0.28878  0.49166  1.0000
  H   H865      1.0  0.93457  0.17180  0.11413  1.0000
  H   H866      1.0  0.73249  0.45273  0.44447  1.0000
  C   C718      1.0  0.75369  0.42668  0.45830  1.0000
  H   H867      1.0  0.95393  0.18833  0.14741  1.0000
  C   C719      1.0  0.90906  0.16647  0.48781  1.0000
  C   C720      1.0  0.74905  0.36987  0.46834  1.0000
  H   H868      1.0  0.91722  0.17807  0.07292  1.0000
  H   H869      1.0  0.83206  0.43433  0.48793  1.0000
  H   H870      1.0  0.94383  0.19144  0.45390  1.0000
  H   H871      1.0  0.77952  0.34184  0.46521  1.0000
  C   C721      1.0  0.73264  0.37298  0.46110  1.0000
  H   H872      1.0  0.69680  0.17366  0.43469  1.0000
  C   C722      1.0  0.66647  0.44070  0.47097  1.0000
  H   H873      1.0  0.79814  0.36395  0.46423  1.0000
  C   C723      1.0  0.65578  0.13951  0.39254  1.0000
  N   N50       1.0  0.93957  0.16473  0.49261  1.0000
  C   C724      1.0  0.98071  0.19488  0.11552  1.0000
  C   C725      1.0  0.65062  0.44057  0.48200  1.0000
  H   H874      1.0  0.83073  0.49494  0.48791  1.0000
  Fe  Fe91      1.0  0.94851  0.08855  0.85053  1.0000
  S   S191      1.0  0.93650  0.03879  0.84715  1.0000
  Fe  Fe92      1.0  0.94377  0.16164  0.84929  1.0000
  S   S192      1.0  0.97014  0.17105  0.86310  1.0000
  S   S193      1.0  0.92701  0.20542  0.84131  1.0000
  H   H875      1.0  0.84570  0.47010  0.60893  1.0000
  Fe  Fe93      1.0  0.96648  0.13063  0.89524  1.0000
  C   C726      1.0  0.96525  0.02979  0.75860  1.0000
  S   S194      1.0  0.95061  0.12545  0.81541  1.0000
  S   S195      1.0  0.93990  0.12383  0.88357  1.0000
  Fe  Fe94      1.0  0.84368  0.31999  0.52992  1.0000
  S   S196      1.0  0.85698  0.33155  0.57073  1.0000
  S   S197      1.0  0.82252  0.34959  0.51575  1.0000
  H   H876      1.0  0.83821  0.22345  0.73737  1.0000
  Fe  Fe95      1.0  0.83984  0.28323  0.78092  1.0000
  S   S198      1.0  0.84772  0.31957  0.74770  1.0000
  S   S199      1.0  0.85584  0.23859  0.79060  1.0000
  Fe  Fe96      1.0  0.80439  0.31269  0.78386  1.0000
  S   S200      1.0  0.81071  0.35032  0.75097  1.0000
  S   S201      1.0  0.77908  0.31774  0.80482  1.0000
  Fe  Fe97      1.0  0.82327  0.31029  0.72789  1.0000
  S   S202      1.0  0.81691  0.29815  0.68253  1.0000
  Fe  Fe98      1.0  0.83441  0.35634  0.77402  1.0000
  S   S203      1.0  0.84603  0.40478  0.78572  1.0000
  S   S204      1.0  0.81567  0.27211  0.75941  1.0000
  S   S205      1.0  0.82778  0.32079  0.80871  1.0000
  H   H877      1.0  0.96510  0.16694  0.50385  1.0000
  Fe  Fe99      1.0  0.67758  0.32042  0.53695  1.0000
  C   C727      1.0  0.65828  0.34222  0.61035  1.0000
  Fe  Fe100     1.0  0.68234  0.30549  0.77234  1.0000
  S   S206      1.0  0.68016  0.35287  0.74954  1.0000
  S   S207      1.0  0.70589  0.27626  0.77056  1.0000
  N   N51       1.0  0.66280  0.44672  0.70619  1.0000
  H   H878      1.0  0.67146  0.47037  0.74429  1.0000
  C   C728      1.0  0.65625  0.34183  0.66207  1.0000
  S   S208      1.0  0.67057  0.32271  0.81270  1.0000
  S   S209      1.0  0.65844  0.28539  0.75477  1.0000
  H   H879      1.0  0.86172  0.25629  0.73075  1.0000
  H   H880      1.0  0.83121  0.19512  0.71172  1.0000
  S   S210      1.0  0.78457  0.29812  0.51918  1.0000
  H   H881      1.0  0.85244  0.27414  0.70029  1.0000
  C   C729      1.0  0.90735  0.22453  0.51769  1.0000
  C   C730      1.0  0.67474  0.33432  0.61214  1.0000
  C   C731      1.0  0.68206  0.33149  0.63888  1.0000
  C   C732      1.0  0.67284  0.33512  0.66381  1.0000
  Fe  Fe101     1.0  0.66717  0.36932  0.78884  1.0000
  H   H882      1.0  0.69485  0.32565  0.64037  1.0000
  H   H883      1.0  0.67852  0.33212  0.68432  1.0000
  C   C733      1.0  0.83882  0.44243  0.77366  1.0000
  C   C734      1.0  0.84679  0.47106  0.78231  1.0000
  H   H884      1.0  0.93300  0.22309  0.52130  1.0000
  N   N52       1.0  0.68574  0.43407  0.55647  1.0000
  C   C735      1.0  0.82518  0.44441  0.75611  1.0000
  H   H885      1.0  0.85735  0.46969  0.79593  1.0000
  H   H886      1.0  0.81903  0.42255  0.74919  1.0000
  C   C736      1.0  0.75894  0.30795  0.79251  1.0000
  C   C737      1.0  0.74556  0.32443  0.80413  1.0000
  C   C738      1.0  0.72935  0.31610  0.79662  1.0000
  C   C739      1.0  0.72620  0.29045  0.77794  1.0000
  C   C740      1.0  0.73957  0.27406  0.76623  1.0000
  C   C741      1.0  0.75581  0.28301  0.77310  1.0000
  H   H887      1.0  0.74771  0.34352  0.81937  1.0000
  H   H888      1.0  0.71927  0.32885  0.80605  1.0000
  H   H889      1.0  0.73738  0.25409  0.75188  1.0000
  H   H890      1.0  0.76588  0.26984  0.76412  1.0000
  C   C742      1.0  0.66469  0.16911  0.85771  1.0000
  H   H891      1.0  0.75200  0.30470  0.53922  1.0000
  C   C743      1.0  0.84580  0.32324  0.60197  1.0000
  C   C744      1.0  0.85242  0.33097  0.62865  1.0000
  C   C745      1.0  0.84362  0.32401  0.65373  1.0000
  C   C746      1.0  0.82831  0.30878  0.65210  1.0000
  C   C747      1.0  0.82176  0.30114  0.62544  1.0000
  C   C748      1.0  0.83041  0.30853  0.60047  1.0000
  H   H892      1.0  0.86431  0.34252  0.62988  1.0000
  H   H893      1.0  0.84870  0.33022  0.67421  1.0000
  H   H894      1.0  0.80991  0.28939  0.62407  1.0000
  H   H895      1.0  0.82517  0.30255  0.58007  1.0000
  H   H896      1.0  0.84253  0.20726  0.58684  1.0000
  H   H897      1.0  0.94399  0.03051  0.97946  1.0000
  C   C749      1.0  0.90719  0.21391  0.82677  1.0000
  C   C750      1.0  0.90202  0.24628  0.82521  1.0000
  C   C751      1.0  0.88652  0.25436  0.81422  1.0000
  C   C752      1.0  0.87577  0.23014  0.80462  1.0000
  C   C753      1.0  0.88095  0.19777  0.80605  1.0000
  C   C754      1.0  0.89648  0.18970  0.81696  1.0000
  H   H898      1.0  0.91008  0.26535  0.83268  1.0000
  H   H899      1.0  0.88287  0.27936  0.81341  1.0000
  H   H900      1.0  0.87283  0.17868  0.79888  1.0000
  H   H901      1.0  0.90009  0.16470  0.81799  1.0000
  H   H902      1.0  0.67723  0.42928  0.74124  1.0000
  H   H903      1.0  0.97242  0.05188  0.92079  1.0000
  C   C755      1.0  0.66014  0.25442  0.62143  1.0000
  C   C756      1.0  0.67516  0.45176  0.72872  1.0000
  H   H904      1.0  0.70240  0.40833  0.52939  1.0000
  C   C757      1.0  0.67988  0.46759  0.55984  1.0000
  H   H905      1.0  0.69743  0.39719  0.58148  1.0000
  C   C758      1.0  0.69354  0.42288  0.58309  1.0000
  C   C759      1.0  0.85072  0.21813  0.66838  1.0000
  H   H906      1.0  0.81596  0.45323  0.82290  1.0000
  C   C760      1.0  0.86030  0.25392  0.70729  1.0000
  H   H907      1.0  0.97119  0.10018  0.67533  1.0000
  N   N53       1.0  0.85299  0.22215  0.69940  1.0000
  C   C761      1.0  0.85271  0.23794  0.61920  1.0000
  H   H908      1.0  0.77100  0.36166  0.51155  1.0000
  C   C762      1.0  0.67472  0.48323  0.80234  1.0000
  C   C763      1.0  0.69791  0.43324  0.53314  1.0000
  H   H909      1.0  0.79042  0.38100  0.51423  1.0000
  H   H910      1.0  0.66402  0.23020  0.56749  1.0000
  H   H911      1.0  0.65481  0.12382  0.87345  1.0000
  C   C764      1.0  0.76563  0.29049  0.50219  1.0000
  C   C765      1.0  0.83632  0.46351  0.65245  1.0000
  C   C766      1.0  0.82879  0.43983  0.67028  1.0000
  C   C767      1.0  0.66855  0.42005  0.68778  1.0000
  H   H912      1.0  0.66443  0.21341  0.79658  1.0000
  H   H913      1.0  0.98259  0.17088  0.76565  1.0000
  S   S211      1.0  0.65470  0.33665  0.51546  1.0000
  H   H914      1.0  0.67616  0.15787  0.85297  1.0000
  C   C768      1.0  0.69000  0.20840  0.83269  1.0000
  C   C769      1.0  0.65249  0.14917  0.86953  1.0000
  H   H915      1.0  0.65456  0.45957  0.54598  1.0000
  H   H916      1.0  0.93437  0.12798  0.52396  1.0000
  H   H917      1.0  0.84488  0.48074  0.70643  1.0000
  C   C770      1.0  0.98186  0.05316  0.70940  1.0000
  C   C771      1.0  0.73584  0.29185  0.50489  1.0000
  Fe  Fe102     1.0  0.97640  0.13301  0.83055  1.0000
  H   H918      1.0  0.88144  0.22119  0.51070  1.0000
  N   N54       1.0  0.67405  0.22387  0.83807  1.0000
  C   C772      1.0  0.93579  0.01312  0.92630  1.0000
  H   H919      1.0  0.95155  0.18042  0.53101  1.0000
  H   H920      1.0  0.64986  0.19913  0.57886  1.0000
  C   C773      1.0  0.69076  0.49275  0.56849  1.0000
  C   C774      1.0  0.66026  0.47755  0.69084  1.0000
  S   S212      1.0  0.69441  0.34237  0.50467  1.0000
  C   C775      1.0  0.66333  0.48131  0.66123  1.0000
  H   H921      1.0  0.68763  0.48313  0.80694  1.0000
  C   C776      1.0  0.66371  0.25808  0.65024  1.0000
  H   H922      1.0  0.70469  0.43704  0.58846  1.0000
  N   N55       1.0  0.95222  0.02328  0.93640  1.0000
  C   C777      1.0  0.80519  0.46698  0.81827  1.0000
  H   H923      1.0  0.77799  0.41501  0.85405  1.0000
  H   H924      1.0  0.95869  0.02125  0.77730  1.0000
  H   H925      1.0  0.68052  0.42595  0.67778  1.0000
  Fe  Fe103     1.0  0.81088  0.30193  0.50373  1.0000
  Fe  Fe104     1.0  0.65558  0.33484  0.73566  1.0000
  H   H926      1.0  0.70874  0.44885  0.53749  1.0000
  C   C778      1.0  0.77678  0.47303  0.80582  1.0000
  H   H927      1.0  0.95085  0.11859  0.50032  1.0000
  H   H928      1.0  0.97044  0.01047  0.68951  1.0000
  H   H929      1.0  0.65640  0.24908  0.81256  1.0000
  C   C779      1.0  0.85057  0.49458  0.68868  1.0000
  C   C780      1.0  0.86382  0.19670  0.71047  1.0000
  C   C781      1.0  0.85557  0.24212  0.64824  1.0000
  H   H930      1.0  0.82830  0.23743  0.70567  1.0000
  H   H931      1.0  0.85852  0.17205  0.70770  1.0000
  H   H932      1.0  0.86604  0.19974  0.73373  1.0000
  H   H933      1.0  0.87587  0.19753  0.69958  1.0000
  H   H934      1.0  0.86129  0.26472  0.65431  1.0000
  H   H935      1.0  0.85617  0.25693  0.60431  1.0000
  C   C782      1.0  0.92378  0.18048  0.49817  1.0000
  H   H936      1.0  0.68694  0.26873  0.84666  1.0000
  H   H937      1.0  0.67669  0.24966  0.79852  1.0000
  S   S213      1.0  0.83147  0.27217  0.52101  1.0000
  C   C783      1.0  0.83996  0.45397  0.62411  1.0000
  S   S214      1.0  0.67642  0.41733  0.80588  1.0000
  H   H938      1.0  0.92767  0.03420  0.92323  1.0000
  S   S215      1.0  0.68670  0.32759  0.58170  1.0000
  H   H939      1.0  0.95281  0.06524  0.90939  1.0000
  C   C784      1.0  0.77775  0.38453  0.50661  1.0000
  H   H940      1.0  0.76477  0.46351  0.80098  1.0000
  C   C785      1.0  0.83700  0.21935  0.71407  1.0000
  H   H941      1.0  0.66712  0.41522  0.52846  1.0000
  H   H942      1.0  0.69252  0.44176  0.51281  1.0000
  C   C786      1.0  0.67259  0.41030  0.54958  1.0000
  C   C787      1.0  0.84502  0.20995  0.60932  1.0000
  C   C788      1.0  0.84040  0.18570  0.62839  1.0000
  H   H943      1.0  0.97450  0.04640  0.65190  1.0000
  S   S216      1.0  0.97447  0.09358  0.86328  1.0000
  C   C789      1.0  0.96009  0.04344  0.91416  1.0000
  C   C790      1.0  0.83620  0.42274  0.61446  1.0000
  H   H944      1.0  0.67026  0.25625  0.60671  1.0000
  H   H945      1.0  0.72492  0.29649  0.51703  1.0000
  H   H946      1.0  0.94213  0.06524  0.95690  1.0000
  H   H947      1.0  0.97105  0.02593  0.83838  1.0000
  H   H948      1.0  0.83435  0.16400  0.62062  1.0000
  H   H949      1.0  0.67622  0.26185  0.65701  1.0000
  C   C791      1.0  0.82509  0.40872  0.66037  1.0000
  H   H950      1.0  0.66283  0.41003  0.56603  1.0000
  H   H951      1.0  0.87270  0.25736  0.69808  1.0000
  C   C792      1.0  0.84326  0.18956  0.65748  1.0000
  H   H952      1.0  0.83933  0.17023  0.67147  1.0000
  C   C793      1.0  0.67719  0.25282  0.85595  1.0000
  H   H953      1.0  0.77219  0.40390  0.51964  1.0000
  C   C794      1.0  0.96393  0.01310  0.73298  1.0000
  C   C795      1.0  0.97210  0.02445  0.70865  1.0000
  H   H954      1.0  0.65658  0.28674  0.56988  1.0000
  N   N56       1.0  0.78734  0.41657  0.81135  1.0000
  C   C796      1.0  0.78187  0.40666  0.78261  1.0000
  C   C797      1.0  0.80226  0.39814  0.81807  1.0000
  C   C798      1.0  0.77464  0.40684  0.83231  1.0000
  C   C799      1.0  0.78987  0.45210  0.81204  1.0000
  S   S217      1.0  0.67778  0.27179  0.51601  1.0000
  C   C800      1.0  0.75124  0.29642  0.51746  1.0000
  H   H955      1.0  0.69886  0.22555  0.82235  1.0000
  C   C801      1.0  0.81948  0.47477  0.74752  1.0000
  H   H956      1.0  0.80876  0.47606  0.73432  1.0000
  H   H957      1.0  0.79075  0.41480  0.76609  1.0000
  H   H958      1.0  0.78054  0.37991  0.78080  1.0000
  H   H959      1.0  0.76979  0.41654  0.77703  1.0000
  H   H960      1.0  0.81213  0.40303  0.80237  1.0000
  H   H961      1.0  0.79995  0.37156  0.81756  1.0000
  H   H962      1.0  0.80691  0.40375  0.83969  1.0000
  H   H963      1.0  0.76251  0.41685  0.82718  1.0000
  H   H964      1.0  0.77293  0.38003  0.83303  1.0000
  H   H965      1.0  0.83920  0.41565  0.59289  1.0000
  H   H966      1.0  0.67731  0.38525  0.54836  1.0000
  H   H967      1.0  0.69572  0.20020  0.85279  1.0000
  H   H968      1.0  0.66627  0.26826  0.85812  1.0000
  C   C802      1.0  0.95355  0.18017  0.50763  1.0000
  H   H969      1.0  0.93617  0.00109  0.90521  1.0000
  C   C803      1.0  0.66599  0.45382  0.80075  1.0000
  S   S218      1.0  0.97617  0.11736  0.94034  1.0000
  H   H970      1.0  0.82570  0.44516  0.69207  1.0000
  H   H971      1.0  0.81947  0.39086  0.67440  1.0000
  C   C804      1.0  0.94994  0.04410  0.96175  1.0000
  H   H972      1.0  0.67030  0.39738  0.70016  1.0000
  H   H973      1.0  0.82566  0.37626  0.62480  1.0000
  C   C805      1.0  0.89314  0.20978  0.50763  1.0000
  H   H974      1.0  0.96173  0.05474  0.96917  1.0000
  H   H975      1.0  0.90660  0.24739  0.52884  1.0000
  H   H976      1.0  0.68876  0.18758  0.81787  1.0000
  H   H977      1.0  0.66739  0.46165  0.64810  1.0000
  H   H978      1.0  0.68108  0.24580  0.87768  1.0000
  H   H979      1.0  0.65949  0.41384  0.67103  1.0000
  H   H980      1.0  0.96147  0.03032  0.89383  1.0000
  C   C806      1.0  0.82866  0.40032  0.63246  1.0000
  H   H981      1.0  0.68707  0.45985  0.71964  1.0000
  C   C807      1.0  0.97487  0.05774  0.76009  1.0000
  H   H982      1.0  0.68493  0.42430  0.60135  1.0000
  C   C808      1.0  0.66760  0.23447  0.81028  1.0000
  H   H983      1.0  0.70343  0.48805  0.57270  1.0000
  H   H984      1.0  0.86225  0.48259  0.68343  1.0000
  C   C809      1.0  0.66184  0.20233  0.85200  1.0000
  H   H985      1.0  0.65269  0.34547  0.58983  1.0000
  C   C810      1.0  0.66361  0.47660  0.55364  1.0000
  C   C811      1.0  0.96458  0.00311  0.84068  1.0000
  C   C812      1.0  0.94765  0.00265  0.84424  1.0000
  H   H986      1.0  0.97581  0.07096  0.77997  1.0000
  H   H987      1.0  0.65400  0.26287  0.69243  1.0000
  C   C813      1.0  0.93874  0.13030  0.50165  1.0000
  C   C814      1.0  0.92250  0.21021  0.51314  1.0000
  H   H988      1.0  0.95592  0.20528  0.49999  1.0000
  H   H989      1.0  0.96948  0.00546  0.98572  1.0000
  C   C815      1.0  0.65096  0.22277  0.56766  1.0000
  C   C816      1.0  0.65121  0.25866  0.67025  1.0000
  N   N57       1.0  0.83985  0.49646  0.66340  1.0000
  C   C817      1.0  0.98305  0.06925  0.73595  1.0000
  Fe  Fe105     1.0  0.82733  0.58225  0.47119  1.0000
  S   S219      1.0  0.82267  0.63248  0.45376  1.0000
  S   S220      1.0  0.83151  0.54186  0.43942  1.0000
  H   H990      1.0  0.69404  0.70412  0.36834  1.0000
  C   C818      1.0  0.83172  0.49904  0.44225  1.0000
  H   H991      1.0  0.97006  0.89672  0.15383  1.0000
  C   C819      1.0  0.86183  0.61184  0.42629  1.0000
  S   S221      1.0  0.86282  0.68642  0.48048  1.0000
  S   S222      1.0  0.70907  0.62138  0.44575  1.0000
  H   H992      1.0  0.85044  0.59742  0.42948  1.0000
  S   S223      1.0  0.66085  0.61756  0.45630  1.0000
  H   H993      1.0  0.89386  0.80581  0.37691  1.0000
  N   N58       1.0  0.67825  0.69711  0.40479  1.0000
  C   C820      1.0  0.76017  0.64698  0.48027  1.0000
  Fe  Fe106     1.0  0.94613  0.84843  0.39940  1.0000
  S   S224      1.0  0.97179  0.83867  0.38675  1.0000
  S   S225      1.0  0.93933  0.89648  0.41888  1.0000
  Fe  Fe107     1.0  0.93492  0.77922  0.38843  1.0000
  S   S226      1.0  0.96014  0.76397  0.37417  1.0000
  S   S227      1.0  0.91200  0.74626  0.38680  1.0000
  Fe  Fe108     1.0  0.96912  0.79289  0.41167  1.0000
  C   C821      1.0  0.67437  0.66311  0.39692  1.0000
  Fe  Fe109     1.0  0.96147  0.81086  0.34963  1.0000
  C   C822      1.0  0.97255  0.78340  0.23148  1.0000
  S   S228      1.0  0.94413  0.80446  0.42767  1.0000
  S   S229      1.0  0.93556  0.82432  0.36081  1.0000
  H   H994      1.0  0.90667  0.83747  0.44733  1.0000
  C   C823      1.0  0.86762  0.79113  0.41355  1.0000
  H   H995      1.0  0.86177  0.55222  0.40388  1.0000
  C   C824      1.0  0.86439  0.79652  0.47243  1.0000
  H   H996      1.0  0.86310  0.62812  0.44494  1.0000
  H   H997      1.0  0.97603  0.87554  0.23077  1.0000
  C   C825      1.0  0.93088  0.96084  0.35519  1.0000
  C   C826      1.0  0.93352  0.93170  0.36990  1.0000
  C   C827      1.0  0.93769  0.93236  0.39868  1.0000
  C   C828      1.0  0.93968  0.96231  0.41234  1.0000
  H   H998      1.0  0.96743  0.78969  0.48252  1.0000
  H   H999      1.0  0.93188  0.90877  0.35920  1.0000
  H   H1000     1.0  0.94282  0.96304  0.43463  1.0000
  C   C829      1.0  0.87619  0.70304  0.45388  1.0000
  C   C830      1.0  0.87389  0.69774  0.42480  1.0000
  C   C831      1.0  0.88491  0.71124  0.40473  1.0000
  C   C832      1.0  0.89836  0.73041  0.41329  1.0000
  C   C833      1.0  0.90054  0.73613  0.44234  1.0000
  C   C834      1.0  0.88952  0.72258  0.46241  1.0000
  H   H1001     1.0  0.86350  0.68368  0.41772  1.0000
  H   H1002     1.0  0.88302  0.70673  0.38235  1.0000
  H   H1003     1.0  0.91078  0.75070  0.44943  1.0000
  H   H1004     1.0  0.98043  0.85869  0.15542  1.0000
  H   H1005     1.0  0.91782  0.63692  0.36619  1.0000
  S   S230      1.0  0.77962  0.66075  0.49204  1.0000
  C   C835      1.0  0.66527  0.71857  0.39426  1.0000
  C   C836      1.0  0.97392  0.96920  0.32808  1.0000
  H   H1006     1.0  0.96782  0.91815  0.45176  1.0000
  H   H1007     1.0  0.92727  0.67234  0.40513  1.0000
  H   H1008     1.0  0.87800  0.83525  0.37151  1.0000
  H   H1009     1.0  0.87245  0.87592  0.40986  1.0000
  H   H1010     1.0  0.91387  0.66938  0.45212  1.0000
  H   H1011     1.0  0.68995  0.68147  0.44340  1.0000
  H   H1012     1.0  0.96526  0.92292  0.34362  1.0000
  H   H1013     1.0  0.86862  0.78692  0.39100  1.0000
  H   H1014     1.0  0.89064  0.63331  0.46021  1.0000
  H   H1015     1.0  0.92726  0.96019  0.33313  1.0000
  H   H1016     1.0  0.86003  0.62734  0.40727  1.0000
  H   H1017     1.0  0.76894  0.61415  0.44850  1.0000
  H   H1018     1.0  0.66765  0.70417  0.34988  1.0000
  H   H1019     1.0  0.86744  0.55420  0.45214  1.0000
  N   N59       1.0  0.87613  0.59082  0.42270  1.0000
  C   C837      1.0  0.89667  0.63215  0.43977  1.0000
  H   H1020     1.0  0.97985  0.89158  0.30726  1.0000
  H   H1021     1.0  0.86932  0.58128  0.37916  1.0000
  C   C838      1.0  0.75828  0.62443  0.45836  1.0000
  H   H1022     1.0  0.97723  0.86470  0.46784  1.0000
  H   H1023     1.0  0.95771  0.78580  0.26962  1.0000
  S   S231      1.0  0.97738  0.82336  0.31073  1.0000
  H   H1024     1.0  0.88924  0.55621  0.44762  1.0000
  H   H1025     1.0  0.84997  0.75215  0.41730  1.0000
  H   H1026     1.0  0.68310  0.64586  0.40660  1.0000
  Fe  Fe110     1.0  0.80420  0.63567  0.48928  1.0000
  C   C839      1.0  0.91747  0.65491  0.40884  1.0000
  C   C840      1.0  0.97259  0.93547  0.32771  1.0000
  H   H1027     1.0  0.74124  0.59979  0.43060  1.0000
  Fe  Fe111     1.0  0.84164  0.64926  0.48523  1.0000
  C   C841      1.0  0.89078  0.61152  0.41789  1.0000
  C   C842      1.0  0.73045  0.65141  0.48316  1.0000
  C   C843      1.0  0.87509  0.81725  0.45774  1.0000
  C   C844      1.0  0.66120  0.71892  0.36498  1.0000
  H   H1028     1.0  0.89518  0.59929  0.37311  1.0000
  C   C845      1.0  0.72857  0.62981  0.46054  1.0000
  C   C846      1.0  0.87253  0.56817  0.39898  1.0000
  H   H1029     1.0  0.67496  0.65893  0.37367  1.0000
  C   C847      1.0  0.90991  0.65321  0.43531  1.0000
  H   H1030     1.0  0.96078  0.88275  0.20365  1.0000
  H   H1031     1.0  0.67346  0.52233  0.46902  1.0000
  C   C848      1.0  0.87805  0.57100  0.44878  1.0000
  C   C849      1.0  0.74256  0.61635  0.44823  1.0000
  H   H1032     1.0  0.70416  0.69107  0.39977  1.0000
  H   H1033     1.0  0.96316  0.77129  0.21921  1.0000
  H   H1034     1.0  0.96864  0.98745  0.23373  1.0000
  C   C850      1.0  0.68028  0.69816  0.43609  1.0000
  H   H1035     1.0  0.69734  0.73214  0.39691  1.0000
  Fe  Fe112     1.0  0.68646  0.62192  0.47383  1.0000
  N   N60       1.0  0.88909  0.83640  0.41302  1.0000
  C   C851      1.0  0.90556  0.83076  0.42459  1.0000
  C   C852      1.0  0.88992  0.83088  0.38187  1.0000
  C   C853      1.0  0.88496  0.87081  0.41758  1.0000
  C   C854      1.0  0.87713  0.81507  0.42784  1.0000
  H   H1036     1.0  0.84738  0.75656  0.46932  1.0000
  H   H1037     1.0  0.66882  0.69073  0.44721  1.0000
  H   H1038     1.0  0.65817  0.74038  0.43506  1.0000
  C   C855      1.0  0.65112  0.49965  0.48322  1.0000
  C   C856      1.0  0.85529  0.77330  0.45780  1.0000
  H   H1039     1.0  0.90878  0.80481  0.42260  1.0000
  H   H1040     1.0  0.71983  0.66222  0.49266  1.0000
  H   H1041     1.0  0.88204  0.83456  0.47008  1.0000
  H   H1042     1.0  0.66189  0.65605  0.40419  1.0000
  H   H1043     1.0  0.89902  0.84733  0.37143  1.0000
  H   H1044     1.0  0.91502  0.84537  0.41318  1.0000
  H   H1045     1.0  0.88556  0.87783  0.44032  1.0000
  H   H1046     1.0  0.89366  0.88740  0.40626  1.0000
  H   H1047     1.0  0.89139  0.72715  0.48478  1.0000
  C   C857      1.0  0.96941  0.79160  0.26011  1.0000
  C   C858      1.0  0.89891  0.61354  0.39119  1.0000
  C   C859      1.0  0.74616  0.66037  0.49258  1.0000
  C   C860      1.0  0.85680  0.77082  0.42844  1.0000
  H   H1048     1.0  0.68395  0.72269  0.44360  1.0000
  H   H1049     1.0  0.87876  0.58589  0.46834  1.0000
  C   C861      1.0  0.91203  0.63504  0.38687  1.0000
  H   H1050     1.0  0.88299  0.55205  0.39473  1.0000
  C   C862      1.0  0.69411  0.70656  0.39182  1.0000
  Fe  Fe113     1.0  0.65652  0.58202  0.49190  1.0000
  H   H1051     1.0  0.96742  0.92920  0.22828  1.0000
  Fe  Fe114     1.0  0.65444  0.65575  0.48827  1.0000
  C   C863      1.0  0.98080  0.91776  0.30721  1.0000
  C   C864      1.0  0.65619  0.73912  0.41241  1.0000
  C   C865      1.0  0.97612  0.94233  0.21524  1.0000
  H   H1052     1.0  0.86336  0.79795  0.49535  1.0000
  C   C866      1.0  0.97676  0.97595  0.21873  1.0000
  C   C867      1.0  0.93271  0.99079  0.36897  1.0000
  C   C868      1.0  0.97327  0.87382  0.20766  1.0000
  H   H1053     1.0  0.97290  0.84750  0.20264  1.0000
  H   H1054     1.0  0.96740  0.98174  0.34467  1.0000
  C   C869      1.0  0.66708  0.49966  0.47281  1.0000
  C   C870      1.0  0.97958  0.79280  0.49105  1.0000
  C   C871      1.0  0.97795  0.91661  0.46644  1.0000
  C   C872      1.0  0.93744  0.99142  0.39746  1.0000
  C   C873      1.0  0.98120  0.80833  0.27595  1.0000
  H   H1055     1.0  0.98134  0.96805  0.46924  1.0000
  C   C874      1.0  0.98169  0.88513  0.15987  1.0000
  C   C875      1.0  0.80720  0.50062  0.81784  1.0000
  S   S232      1.0  0.95784  0.82685  0.81363  1.0000
  Fe  Fe115     1.0  0.97219  0.79733  0.88858  1.0000
  S   S233      1.0  0.95145  0.83181  0.88172  1.0000
  Fe  Fe116     1.0  0.94315  0.79856  0.84608  1.0000
  S   S234      1.0  0.91612  0.78569  0.83632  1.0000
  Fe  Fe117     1.0  0.96801  0.85615  0.84970  1.0000
  C   C876      1.0  0.98181  0.79755  0.52040  1.0000
  S   S235      1.0  0.96295  0.76290  0.85422  1.0000
  Fe  Fe118     1.0  0.82705  0.60511  0.53231  1.0000
  S   S236      1.0  0.82762  0.58525  0.57723  1.0000
  H   H1056     1.0  0.84036  0.52211  0.62331  1.0000
  Fe  Fe119     1.0  0.84542  0.65097  0.78212  1.0000
  S   S237      1.0  0.84742  0.62391  0.74037  1.0000
  S   S238      1.0  0.86953  0.66315  0.80598  1.0000
  Fe  Fe120     1.0  0.80750  0.64939  0.77935  1.0000
  S   S239      1.0  0.80743  0.62348  0.73795  1.0000
  S   S240      1.0  0.78330  0.66471  0.79934  1.0000
  Fe  Fe121     1.0  0.82684  0.59199  0.75633  1.0000
  S   S241      1.0  0.82066  0.54056  0.74224  1.0000
  Fe  Fe122     1.0  0.82779  0.65686  0.72541  1.0000
  S   S242      1.0  0.82723  0.68093  0.68238  1.0000
  S   S243      1.0  0.82588  0.61612  0.79924  1.0000
  S   S244      1.0  0.82681  0.68592  0.76570  1.0000
  Fe  Fe123     1.0  0.67482  0.62304  0.53492  1.0000
  H   H1057     1.0  0.87875  0.68871  0.74240  1.0000
  S   S245      1.0  0.68248  0.58288  0.50621  1.0000
  Fe  Fe124     1.0  0.68392  0.63795  0.76548  1.0000
  S   S246      1.0  0.66957  0.60240  0.73851  1.0000
  S   S247      1.0  0.71112  0.63127  0.75532  1.0000
  C   C877      1.0  0.89535  0.72951  0.74263  1.0000
  C   C878      1.0  0.94679  0.74829  0.73369  1.0000
  H   H1058     1.0  0.94941  0.69092  0.78481  1.0000
  S   S248      1.0  0.66898  0.68068  0.75165  1.0000
  S   S249      1.0  0.66825  0.62895  0.80463  1.0000
  C   C879      1.0  0.96479  0.97146  0.91995  1.0000
  C   C880      1.0  0.94097  0.75245  0.78367  1.0000
  C   C881      1.0  0.87707  0.70157  0.88615  1.0000
  S   S250      1.0  0.80749  0.58452  0.50400  1.0000
  H   H1059     1.0  0.92785  0.66658  0.76242  1.0000
  C   C882      1.0  0.91934  0.68503  0.75658  1.0000
  H   H1060     1.0  0.95928  0.97424  0.89935  1.0000
  H   H1061     1.0  0.65371  0.64572  0.58295  1.0000
  C   C883      1.0  0.76325  0.65365  0.78789  1.0000
  C   C884      1.0  0.74965  0.66656  0.80198  1.0000
  C   C885      1.0  0.73359  0.65939  0.79291  1.0000
  C   C886      1.0  0.73093  0.63938  0.76938  1.0000
  C   C887      1.0  0.74453  0.62634  0.75539  1.0000
  C   C888      1.0  0.76056  0.63321  0.76466  1.0000
  H   H1062     1.0  0.75156  0.68235  0.82000  1.0000
  H   H1063     1.0  0.72331  0.66971  0.80387  1.0000
  H   H1064     1.0  0.74264  0.61086  0.73718  1.0000
  H   H1065     1.0  0.77081  0.62274  0.75379  1.0000
  H   H1066     1.0  0.65439  0.56096  0.65241  1.0000
  H   H1067     1.0  0.93257  0.75431  0.96063  1.0000
  C   C889      1.0  0.82752  0.61235  0.60611  1.0000
  C   C890      1.0  0.82871  0.64580  0.60206  1.0000
  C   C891      1.0  0.82851  0.66670  0.62558  1.0000
  C   C892      1.0  0.82728  0.65426  0.65324  1.0000
  C   C893      1.0  0.82587  0.62083  0.65727  1.0000
  C   C894      1.0  0.82590  0.59999  0.63374  1.0000
  H   H1068     1.0  0.83004  0.65560  0.58090  1.0000
  H   H1069     1.0  0.82963  0.69255  0.62235  1.0000
  H   H1070     1.0  0.82484  0.61102  0.67853  1.0000
  H   H1071     1.0  0.82469  0.57423  0.63692  1.0000
  Fe  Fe125     1.0  0.65334  0.59602  0.77639  1.0000
  H   H1072     1.0  0.81583  0.51333  0.65355  1.0000
  H   H1073     1.0  0.84761  0.52335  0.77979  1.0000
  C   C895      1.0  0.97319  0.97396  0.84057  1.0000
  C   C896      1.0  0.91137  0.74018  0.74724  1.0000
  H   H1074     1.0  0.95329  0.68683  0.74700  1.0000
  C   C897      1.0  0.90371  0.75106  0.82684  1.0000
  C   C898      1.0  0.90864  0.71914  0.83128  1.0000
  C   C899      1.0  0.89809  0.69284  0.82460  1.0000
  C   C900      1.0  0.88242  0.69772  0.81322  1.0000
  C   C901      1.0  0.87753  0.72961  0.80859  1.0000
  C   C902      1.0  0.88805  0.75595  0.81546  1.0000
  H   H1075     1.0  0.92042  0.71456  0.84046  1.0000
  H   H1076     1.0  0.90203  0.66841  0.82849  1.0000
  H   H1077     1.0  0.86556  0.73400  0.79999  1.0000
  H   H1078     1.0  0.88395  0.78037  0.81203  1.0000
  C   C903      1.0  0.96499  0.94411  0.84391  1.0000
  H   H1079     1.0  0.79596  0.54641  0.81011  1.0000
  H   H1080     1.0  0.95969  0.75658  0.73642  1.0000
  C   C904      1.0  0.93940  0.97275  0.84690  1.0000
  C   C905      1.0  0.94803  0.94355  0.84680  1.0000
  H   H1081     1.0  0.94159  0.92070  0.84934  1.0000
  S   S251      1.0  0.68047  0.66247  0.50343  1.0000
  H   H1082     1.0  0.82649  0.53694  0.67997  1.0000
  C   C906      1.0  0.84808  0.51812  0.64241  1.0000
  C   C907      1.0  0.90323  0.67468  0.75208  1.0000
  C   C908      1.0  0.95259  0.70424  0.76494  1.0000
  C   C909      1.0  0.89130  0.69682  0.74501  1.0000
  H   H1083     1.0  0.96517  0.71418  0.76815  1.0000
  N   N61       1.0  0.77169  0.62692  0.57439  1.0000
  C   C910      1.0  0.76733  0.60746  0.54900  1.0000
  C   C911      1.0  0.77326  0.66144  0.56603  1.0000
  C   C912      1.0  0.78801  0.61640  0.58398  1.0000
  C   C913      1.0  0.75877  0.62314  0.59622  1.0000
  C   C914      1.0  0.76172  0.61028  0.62376  1.0000
  C   C915      1.0  0.74255  0.63242  0.59014  1.0000
  C   C916      1.0  0.74915  0.60719  0.64382  1.0000
  C   C917      1.0  0.73009  0.62904  0.61029  1.0000
  C   C918      1.0  0.73337  0.61646  0.63708  1.0000
  H   H1084     1.0  0.75607  0.61599  0.53846  1.0000
  H   H1085     1.0  0.77704  0.60883  0.53245  1.0000
  H   H1086     1.0  0.76542  0.58154  0.55457  1.0000
  H   H1087     1.0  0.77527  0.67719  0.58484  1.0000
  H   H1088     1.0  0.76235  0.67014  0.55456  1.0000
  H   H1089     1.0  0.78372  0.66567  0.55126  1.0000
  H   H1090     1.0  0.78812  0.59019  0.58938  1.0000
  H   H1091     1.0  0.79739  0.61983  0.56701  1.0000
  H   H1092     1.0  0.79241  0.63067  0.60252  1.0000
  H   H1093     1.0  0.77361  0.60221  0.63024  1.0000
  H   H1094     1.0  0.73933  0.64209  0.56957  1.0000
  H   H1095     1.0  0.75158  0.59724  0.66470  1.0000
  H   H1096     1.0  0.71773  0.63589  0.60493  1.0000
  H   H1097     1.0  0.72364  0.61378  0.65261  1.0000
  H   H1098     1.0  0.86883  0.74857  0.87414  1.0000
  H   H1099     1.0  0.95341  0.76212  0.78790  1.0000
  C   C919      1.0  0.79419  0.52039  0.81110  1.0000
  H   H1100     1.0  0.91378  0.76589  0.74592  1.0000
  H   H1101     1.0  0.67376  0.53529  0.79877  1.0000
  H   H1102     1.0  0.97131  0.79851  0.53433  1.0000
  C   C920      1.0  0.66959  0.53267  0.56484  1.0000
  C   C921      1.0  0.65515  0.64562  0.65537  1.0000
  Fe  Fe126     1.0  0.65186  0.66865  0.78811  1.0000
  H   H1103     1.0  0.93591  0.71376  0.90646  1.0000
  H   H1104     1.0  0.67555  0.62962  0.68007  1.0000
  H   H1105     1.0  0.89979  0.64945  0.75493  1.0000
  C   C922      1.0  0.68012  0.62487  0.63515  1.0000
  H   H1106     1.0  0.92629  0.97219  0.84952  1.0000
  Fe  Fe127     1.0  0.65407  0.64445  0.72733  1.0000
  S   S252      1.0  0.97544  0.78138  0.93567  1.0000
  N   N62       1.0  0.94078  0.73028  0.75902  1.0000
  N   N63       1.0  0.77696  0.69300  0.69634  1.0000
  C   C923      1.0  0.78320  0.71652  0.67496  1.0000
  C   C924      1.0  0.78563  0.69981  0.72339  1.0000
  C   C925      1.0  0.78132  0.65992  0.68726  1.0000
  C   C926      1.0  0.75900  0.69513  0.69866  1.0000
  C   C927      1.0  0.75085  0.70193  0.72463  1.0000
  C   C928      1.0  0.74903  0.68933  0.67450  1.0000
  C   C929      1.0  0.73383  0.70230  0.72620  1.0000
  C   C930      1.0  0.73202  0.68965  0.67639  1.0000
  C   C931      1.0  0.72444  0.69579  0.70228  1.0000
  H   H1107     1.0  0.77965  0.74159  0.68061  1.0000
  H   H1108     1.0  0.79678  0.71618  0.67347  1.0000
  H   H1109     1.0  0.77862  0.71133  0.65328  1.0000
  H   H1110     1.0  0.78309  0.72449  0.73148  1.0000
  H   H1111     1.0  0.79911  0.69834  0.72084  1.0000
  H   H1112     1.0  0.78224  0.68196  0.74015  1.0000
  H   H1113     1.0  0.77670  0.65400  0.66578  1.0000
  H   H1114     1.0  0.79476  0.65686  0.68633  1.0000
  H   H1115     1.0  0.77631  0.64150  0.70236  1.0000
  H   H1116     1.0  0.75728  0.70609  0.74432  1.0000
  H   H1117     1.0  0.75432  0.68391  0.65405  1.0000
  H   H1118     1.0  0.72784  0.70645  0.74643  1.0000
  H   H1119     1.0  0.72461  0.68465  0.65783  1.0000
  H   H1120     1.0  0.71125  0.69498  0.70402  1.0000
  N   N64       1.0  0.91937  0.75052  0.92114  1.0000
  C   C932      1.0  0.65261  0.53482  0.69184  1.0000
  C   C933      1.0  0.91887  0.78639  0.91970  1.0000
  C   C934      1.0  0.92176  0.74153  0.95135  1.0000
  C   C935      1.0  0.90454  0.73430  0.90976  1.0000
  C   C936      1.0  0.89172  0.75144  0.89649  1.0000
  C   C937      1.0  0.90293  0.70006  0.91066  1.0000
  C   C938      1.0  0.87821  0.73516  0.88502  1.0000
  C   C939      1.0  0.88939  0.68405  0.89900  1.0000
  C   C940      1.0  0.82438  0.51194  0.67179  1.0000
  H   H1121     1.0  0.81907  0.51145  0.82202  1.0000
  C   C941      1.0  0.65844  0.64195  0.60407  1.0000
  H   H1122     1.0  0.81802  0.49867  0.68918  1.0000
  H   H1123     1.0  0.91821  0.79509  0.89734  1.0000
  H   H1124     1.0  0.93009  0.79779  0.92882  1.0000
  H   H1125     1.0  0.90830  0.79597  0.93173  1.0000
  H   H1126     1.0  0.92404  0.71533  0.95418  1.0000
  H   H1127     1.0  0.66576  0.55763  0.56617  1.0000
  H   H1128     1.0  0.91089  0.74770  0.96434  1.0000
  H   H1129     1.0  0.89207  0.77736  0.89373  1.0000
  H   H1130     1.0  0.91233  0.68532  0.91978  1.0000
  H   H1131     1.0  0.85065  0.54257  0.65146  1.0000
  C   C942      1.0  0.67403  0.62947  0.60768  1.0000
  H   H1132     1.0  0.94513  0.75260  0.91174  1.0000
  H   H1133     1.0  0.94616  0.73292  0.71433  1.0000
  H   H1134     1.0  0.86686  0.68904  0.87623  1.0000
  H   H1135     1.0  0.93971  0.77047  0.72957  1.0000
  S   S253      1.0  0.82277  0.65645  0.51969  1.0000
  C   C943      1.0  0.67070  0.63294  0.65897  1.0000
  S   S254      1.0  0.68629  0.61980  0.57834  1.0000
  H   H1136     1.0  0.93206  0.74558  0.88162  1.0000
  H   H1137     1.0  0.88857  0.65786  0.89926  1.0000
  C   C944      1.0  0.82757  0.50340  0.75585  1.0000
  C   C945      1.0  0.65474  0.50525  0.70567  1.0000
  H   H1138     1.0  0.93678  0.73987  0.80325  1.0000
  S   S255      1.0  0.97667  0.90863  0.84563  1.0000
  C   C946      1.0  0.92391  0.71825  0.75415  1.0000
  H   H1139     1.0  0.66366  0.51360  0.62511  1.0000
  H   H1140     1.0  0.69216  0.61514  0.63803  1.0000
  C   C947      1.0  0.93373  0.74011  0.90456  1.0000
  C   C948      1.0  0.98197  0.93939  0.95024  1.0000
  H   H1141     1.0  0.88589  0.74673  0.73799  1.0000
  H   H1142     1.0  0.93302  0.77370  0.78065  1.0000
  C   C949      1.0  0.68562  0.52475  0.57102  1.0000
  C   C950      1.0  0.66690  0.51278  0.79763  1.0000
  H   H1143     1.0  0.76887  0.52217  0.80008  1.0000
  H   H1144     1.0  0.85342  0.51899  0.69753  1.0000
  C   C951      1.0  0.84125  0.50148  0.77333  1.0000
  Fe  Fe128     1.0  0.97799  0.79230  0.82272  1.0000
  H   H1145     1.0  0.86001  0.50832  0.63552  1.0000
  H   H1146     1.0  0.69413  0.54384  0.57713  1.0000
  S   S256      1.0  0.84726  0.59887  0.50051  1.0000
  H   H1147     1.0  0.74744  0.67822  0.50919  1.0000
  C   C952      1.0  0.77897  0.50664  0.80529  1.0000
  C   C953      1.0  0.65017  0.51312  0.79223  1.0000
  C   C954      1.0  0.65864  0.50867  0.55618  1.0000
  C   C955      1.0  0.66120  0.51110  0.64765  1.0000
  C   C956      1.0  0.65592  0.53782  0.66294  1.0000
  C   C957      1.0  0.98003  0.96178  0.97204  1.0000
  H   H1148     1.0  0.97595  0.92686  0.90719  1.0000
  C   C958      1.0  0.97441  0.94430  0.92421  1.0000
  C   C959      1.0  0.96236  0.99458  0.94174  1.0000
  H   H1149     1.0  0.65213  0.50441  0.72821  1.0000
  H   H1150     1.0  0.95638  0.99137  0.73198  1.0000
  C   C960      1.0  0.97042  0.98909  0.96798  1.0000
  H   H1151     1.0  0.92979  0.99612  0.94154  1.0000
  H   H1152     1.0  0.97279  0.76605  0.99551  1.0000
