data_image0
_chemical_formula_structural       FeS2FeSFeCSHC2HCHCFeS2FeS2FeS2FeSFeS3C2H4FeS2FeS2HSHC6H4CH3C7H5CHC9H4CHC8H5NCH2CHCH2C3HSH3CNC9H14NC9H14CH7SCHNHFeHC6H2CH2CH3NH3C2H2CH3CFeCH2C2NFeH2SH3CH2C2SCFeHSCHCHCH3CHNCHS3H4CHSHCFeH2FeSCFeS2FeSCFeSFeS3FeS2FeS2FeSHFeSFeS3C2H3C6H4C6H8SHCHC6H6C5H2CHSH3NC9H14NC2HCH3CH5CH3CH3CHC2HCHCHCHCHN2HC6H5C2HCH2C2HC2SCH6C2HC2SH3FeSHS2FeSFeSCHCSH2SFeS2FeNFeS3FeSC8NHC2H2C6H3FeHC6H4NC3H2CHCH2CH2NCHC2HCHCSH6CH2CH2SHSCHCHC2HCH3CSCH2NH2CHCH3SC2H2FeC2H2CSH3CHC3H2SHCH6SC4HFeS2FeSFeCS2CSHC2FeS2FeS2FeS2FeSFeS3CH2CHFeSHFeS2C4HC6H4NH4SH3C7H5C2H2C6H4CH3CHCHCH2NC3H10SCHCHCHC3H3SHNC9H19CH2C3H2C4H2FeCNC2HC4HCH4NC2NC2HCFeC2HCH2SCH4C3SHCHFeHCH2FeHCFeCH3C2H2CFeHCSHFeS2C3HCSC3HC6H4CHCFeNH4CHCH5CH4CHCH2SC2NHC2H4FeH2SH3C2SFeHCH2C2H3CHFeS2FeS2FeSFeS3HCSFeS2FeS2FeSFeS2HSCS2CHC4H3C6H4C6H5C7H4C6H4C6H5NC9H16CH3C2HCH2NH2FeH2SHCHCH3C2NC2HCH2CH2C2H5NH5CNHCHCH3SHNC2HCH2C3H3C2HNCHCSH3C3HC3H2CH4CH2CHCHCH2CH5C2NC2SHC3H2C3HCHSHCH2C2HCHCH2CFeH4CH3C3H2CFeHCNH2CH2CH7CHC3SH2CHCH2FeS2FeS2HSFeHCHFeCFeCFe2SHCH2SH2C3HC2NC3H2CHC4H3CH2CHCNHCH2C5H2C6H5C3H3SHCHC2SH3CSCHCH2C2HCH2C2NC9H11SCHC2HCHSHCHCNC2S2H7SCHSHCSCHSC2H3C2HCSFeHCHC2H3C2HCHFeS2FeSFeS3FeS2CH4SHC3SFeS2FeS2C2FeSH4C2HC3H2FeHCHC2H3SHC6H4C2H3C6H4SC7H6NCFeHCH3CH2CH3NH2C4HCNC9H14NHCHCFeCH3C2SH2C2H2CH2C3SC3H3CH2C2H4CH2C2HFe2HCHC4HCHSCHC3HFeCSCFeS2FeS2FeSFeS3FeHSH2FeS2FeS2FeSFeS3H2SCSC6H4C6H4C6H3CHSHSCH2CHC6H4C8H6CHCHC2HCH4CH3CNCHC2HCHC3H3CHCH2CH2NC9H18CHCH3CHCHCH2C3NCH2C4H5C2H2CH3CHCNCH3NHCNHC2H3CSH3CHCHCHCH2C3HC3H2C3H2NH2CH2C2HCH6C2HSH2C2H2CH2CNC2H2C2H2CHC2SC2H3CHCH8FeS2FeSFeCS2FeS2H4CHCHC2H2CHCHC6H4C3H3CH3CSH3CSHCH2C3HC2HCHC2HC4H2NCNH2CH2C2HC3HCH2S2HC2H9NFe2C4SNCH2CHFeS2CHSFeS2H3SFeS2FeS2FeSFeS3FeHSCHCFeS2H2C2HC8H4C2SH2C6H7C3H2C6H6CHC4HC3HNHC2H2CH2NC9H12C2H4C3FeNSCH2NHC2HCH2SC2H5CFeH5CH3C5HC2HCH3NC3H5CH3NHC2HCFeH3CHSC3SHCHC2HC2HCH3CH2C3H3CH2C3SFeHSH2FeS2FeSCFeSFeS3FeS2FeS2FeS2FeSFeS3C3HNSH2C6H7C6H15C6H4C2SCH2SNC9H6CH8C3SH2C3HNHCH2CH4CHC3HCHCHC3HC2H4NCHC5H4C2HN2HCHCH2CH6CH4C2H4CHC4HFeS2FeSHFeSFeS3FeHSFeNHFeS2FeSFeHS2FeHSCSHCH5C6H4C6H4C3H2CH4CHSH5CHC3HC3HCH2CH7CHC2HNC9HC2H4CH2CHSH7C2H4CH2FeS2FeS2FeS2FeSFeS3FeS2FeHFeHCHSFeSH2CFeCHCSHCH4CHCHC6H4C6H4CHNCHC6H4CH2C2HCHNC9H12SH3CHCHCHCSCSHCHCHNHCNH5C2H2CH2CHNC5HCH7C2SH2CH6C3H4CH2C2FeH3SC6HCH2CS2H2S2H3FeC2H
_chemical_formula_sum              "Fe144 S288 C1080 H1296 N72"
_cell_length_a       52.9622
_cell_length_b       53.0815
_cell_length_c       73.3879
_cell_angle_alpha    90.6415
_cell_angle_beta     91.7154
_cell_angle_gamma    116.434

_space_group_name_H-M_alt    "P 1"
_space_group_IT_number       1

loop_
  _space_group_symop_operation_xyz
  'x, y, z'

loop_
  _atom_site_type_symbol
  _atom_site_label
  _atom_site_symmetry_multiplicity
  _atom_site_fract_x
  _atom_site_fract_y
  _atom_site_fract_z
  _atom_site_occupancy
  Fe  Fe1       1.0  0.20721  0.04379  0.09715  1.0000
  S   S1        1.0  0.25011  0.05444  0.08674  1.0000
  S   S2        1.0  0.18929  0.07522  0.10019  1.0000
  Fe  Fe2       1.0  0.25447  0.03107  0.11143  1.0000
  S   S3        1.0  0.29582  0.05488  0.12894  1.0000
  Fe  Fe3       1.0  0.22867  0.01276  0.07122  1.0000
  C   C1        1.0  0.15959  0.24148  0.03313  1.0000
  S   S4        1.0  0.21195  0.02174  0.12215  1.0000
  H   H1        1.0  0.00229  0.38812  0.14798  1.0000
  C   C2        1.0  0.16070  0.32478  0.02440  1.0000
  C   C3        1.0  0.11421  0.30327  0.03815  1.0000
  H   H2        1.0  0.27213  0.01959  0.16096  1.0000
  C   C4        1.0  0.12736  0.29662  0.05323  1.0000
  H   H3        1.0  0.11648  0.26285  0.14528  1.0000
  C   C5        1.0  0.32146  0.39066  0.17585  1.0000
  Fe  Fe4       1.0  0.37688  0.09895  0.22824  1.0000
  S   S5        1.0  0.34302  0.06133  0.21179  1.0000
  S   S6        1.0  0.40949  0.13348  0.21272  1.0000
  Fe  Fe5       1.0  0.24527  0.23709  0.08652  1.0000
  S   S7        1.0  0.27661  0.28070  0.07923  1.0000
  S   S8        1.0  0.26288  0.20526  0.08601  1.0000
  Fe  Fe6       1.0  0.19940  0.25596  0.09320  1.0000
  S   S9        1.0  0.22853  0.30103  0.08749  1.0000
  S   S10       1.0  0.15139  0.23600  0.09480  1.0000
  Fe  Fe7       1.0  0.24098  0.28317  0.06317  1.0000
  S   S11       1.0  0.23631  0.30013  0.03529  1.0000
  Fe  Fe8       1.0  0.26180  0.29440  0.10431  1.0000
  S   S12       1.0  0.29885  0.32652  0.12247  1.0000
  S   S13       1.0  0.21103  0.23844  0.06853  1.0000
  S   S14       1.0  0.23140  0.25044  0.11195  1.0000
  C   C6        1.0  0.40486  0.41686  0.19879  1.0000
  C   C7        1.0  0.13562  0.19648  0.01788  1.0000
  H   H4        1.0  0.40133  0.44538  0.22867  1.0000
  H   H5        1.0  0.04975  0.29649  0.02129  1.0000
  H   H6        1.0  0.29121  0.02288  0.19279  1.0000
  H   H7        1.0  0.14107  0.24601  0.03158  1.0000
  Fe  Fe9       1.0  0.38891  0.35407  0.22241  1.0000
  S   S15       1.0  0.34784  0.33297  0.20460  1.0000
  S   S16       1.0  0.43390  0.37413  0.21342  1.0000
  Fe  Fe10      1.0  0.02550  0.27845  0.09641  1.0000
  S   S17       1.0  0.07213  0.29651  0.10465  1.0000
  S   S18       1.0  0.00994  0.30603  0.08148  1.0000
  H   H8        1.0  0.09044  0.33427  0.05206  1.0000
  S   S19       1.0  0.00367  0.24175  0.07715  1.0000
  H   H9        1.0  0.11551  0.28623  0.06488  1.0000
  C   C8        1.0  0.13018  0.25397  0.09629  1.0000
  C   C9        1.0  0.14122  0.28194  0.10259  1.0000
  C   C10       1.0  0.12320  0.29476  0.10488  1.0000
  C   C11       1.0  0.09409  0.27991  0.10069  1.0000
  C   C12       1.0  0.08319  0.25224  0.09382  1.0000
  C   C13       1.0  0.10112  0.23927  0.09179  1.0000
  H   H10       1.0  0.16351  0.29345  0.10618  1.0000
  H   H11       1.0  0.13184  0.31620  0.11016  1.0000
  H   H12       1.0  0.06087  0.24065  0.09056  1.0000
  H   H13       1.0  0.09239  0.21758  0.08702  1.0000
  C   C14       1.0  0.24623  0.29472  0.01313  1.0000
  H   H14       1.0  0.20600  0.23994  0.02104  1.0000
  H   H15       1.0  0.02288  0.14336  0.13254  1.0000
  H   H16       1.0  0.36820  0.41636  0.22312  1.0000
  C   C15       1.0  0.34491  0.43208  0.15808  1.0000
  C   C16       1.0  0.31219  0.32735  0.14529  1.0000
  C   C17       1.0  0.34028  0.34669  0.15006  1.0000
  C   C18       1.0  0.35190  0.34816  0.16789  1.0000
  C   C19       1.0  0.33528  0.33083  0.18143  1.0000
  C   C20       1.0  0.30722  0.31149  0.17666  1.0000
  C   C21       1.0  0.29582  0.30955  0.15873  1.0000
  H   H17       1.0  0.35319  0.36068  0.13985  1.0000
  H   H18       1.0  0.37347  0.36316  0.17122  1.0000
  H   H19       1.0  0.29407  0.29799  0.18698  1.0000
  H   H20       1.0  0.27416  0.29468  0.15542  1.0000
  H   H21       1.0  0.15780  0.23088  0.04640  1.0000
  C   C22       1.0  0.16518  0.26479  0.99767  1.0000
  H   H22       1.0  0.17904  0.26177  0.03469  1.0000
  C   C23       1.0  0.39877  0.24881  0.21759  1.0000
  C   C24       1.0  0.41624  0.04973  0.18062  1.0000
  C   C25       1.0  0.13181  0.31758  0.02364  1.0000
  C   C26       1.0  0.20953  0.11116  0.09546  1.0000
  C   C27       1.0  0.19805  0.13012  0.09830  1.0000
  C   C28       1.0  0.21402  0.15904  0.09527  1.0000
  C   C29       1.0  0.24168  0.16915  0.08951  1.0000
  C   C30       1.0  0.25320  0.15024  0.08679  1.0000
  C   C31       1.0  0.23715  0.12135  0.08962  1.0000
  H   H23       1.0  0.17671  0.12240  0.10287  1.0000
  H   H24       1.0  0.20497  0.17347  0.09747  1.0000
  H   H25       1.0  0.27454  0.15790  0.08223  1.0000
  H   H26       1.0  0.24615  0.10701  0.08721  1.0000
  C   C32       1.0  0.23142  0.00863  0.01995  1.0000
  H   H27       1.0  0.40880  0.29277  0.21709  1.0000
  C   C33       1.0  0.23199  0.03475  0.01654  1.0000
  C   C34       1.0  0.42382  0.07112  0.21071  1.0000
  C   C35       1.0  0.30788  0.05646  0.15224  1.0000
  C   C36       1.0  0.29232  0.03674  0.16507  1.0000
  C   C37       1.0  0.30323  0.03869  0.18318  1.0000
  C   C38       1.0  0.32950  0.06075  0.18897  1.0000
  C   C39       1.0  0.34477  0.08084  0.17623  1.0000
  C   C40       1.0  0.33421  0.07846  0.15801  1.0000
  H   H28       1.0  0.07562  0.29136  0.00890  1.0000
  H   H29       1.0  0.36500  0.09790  0.18030  1.0000
  H   H30       1.0  0.34654  0.09388  0.14828  1.0000
  H   H31       1.0  0.11415  0.21674  0.13670  1.0000
  H   H32       1.0  0.41129  0.41500  0.18472  1.0000
  N   N1        1.0  0.39238  0.43685  0.19970  1.0000
  C   C41       1.0  0.41514  0.46535  0.19621  1.0000
  H   H33       1.0  0.39638  0.05176  0.17787  1.0000
  H   H34       1.0  0.23247  0.04822  0.02785  1.0000
  C   C42       1.0  0.36795  0.42731  0.18653  1.0000
  H   H35       1.0  0.02695  0.18988  0.09404  1.0000
  C   C43       1.0  0.34405  0.40102  0.18867  1.0000
  H   H36       1.0  0.13662  0.18065  0.00828  1.0000
  H   H37       1.0  0.42394  0.42375  0.20803  1.0000
  C   C44       1.0  0.23600  0.30380  0.99792  1.0000
  C   C45       1.0  0.26390  0.28189  0.01028  1.0000
  C   C46       1.0  0.38314  0.43753  0.21853  1.0000
  H   H38       1.0  0.43863  0.08813  0.22024  1.0000
  S   S20       1.0  0.48509  0.14677  0.22800  1.0000
  H   H39       1.0  0.08392  0.30561  0.06683  1.0000
  H   H40       1.0  0.16721  0.27826  0.00927  1.0000
  H   H41       1.0  0.00732  0.20567  0.10480  1.0000
  C   C47       1.0  0.98739  0.27271  0.00994  1.0000
  N   N2        1.0  0.33217  0.26295  0.11974  1.0000
  C   C48       1.0  0.33217  0.24496  0.10407  1.0000
  C   C49       1.0  0.30234  0.25462  0.12398  1.0000
  C   C50       1.0  0.34506  0.29248  0.11366  1.0000
  C   C51       1.0  0.34770  0.26065  0.13626  1.0000
  C   C52       1.0  0.36107  0.24260  0.13709  1.0000
  C   C53       1.0  0.34990  0.27695  0.15224  1.0000
  C   C54       1.0  0.37634  0.24177  0.15279  1.0000
  C   C55       1.0  0.36515  0.27594  0.16786  1.0000
  C   C56       1.0  0.37857  0.25856  0.16807  1.0000
  H   H42       1.0  0.32074  0.24770  0.09181  1.0000
  H   H43       1.0  0.35394  0.25031  0.09988  1.0000
  H   H44       1.0  0.32104  0.22217  0.10715  1.0000
  H   H45       1.0  0.29198  0.23280  0.12906  1.0000
  H   H46       1.0  0.28986  0.25521  0.11168  1.0000
  H   H47       1.0  0.30013  0.26892  0.13428  1.0000
  H   H48       1.0  0.36765  0.29979  0.11058  1.0000
  H   H49       1.0  0.33388  0.29503  0.10123  1.0000
  H   H50       1.0  0.34406  0.30733  0.12405  1.0000
  H   H51       1.0  0.36020  0.22903  0.12577  1.0000
  H   H52       1.0  0.34000  0.29085  0.15273  1.0000
  H   H53       1.0  0.38666  0.22810  0.15312  1.0000
  H   H54       1.0  0.36673  0.28894  0.17981  1.0000
  H   H55       1.0  0.39081  0.25816  0.18007  1.0000
  N   N3        1.0  0.26476  0.11643  0.14442  1.0000
  C   C57       1.0  0.25278  0.08909  0.15385  1.0000
  C   C58       1.0  0.24091  0.12315  0.13984  1.0000
  C   C59       1.0  0.27670  0.11285  0.12716  1.0000
  C   C60       1.0  0.28752  0.13866  0.15584  1.0000
  C   C61       1.0  0.29070  0.16670  0.15722  1.0000
  C   C62       1.0  0.30824  0.13306  0.16525  1.0000
  C   C63       1.0  0.31246  0.18727  0.16811  1.0000
  C   C64       1.0  0.32981  0.15372  0.17613  1.0000
  C   C65       1.0  0.33181  0.18071  0.17766  1.0000
  H   H56       1.0  0.24710  0.09157  0.16800  1.0000
  H   H57       1.0  0.23347  0.07304  0.14654  1.0000
  H   H58       1.0  0.26744  0.07925  0.15443  1.0000
  H   H59       1.0  0.23243  0.12817  0.15231  1.0000
  H   H60       1.0  0.22303  0.10515  0.13263  1.0000
  H   H61       1.0  0.24693  0.14086  0.13027  1.0000
  H   H62       1.0  0.29470  0.10771  0.12965  1.0000
  H   H63       1.0  0.26064  0.09537  0.11848  1.0000
  H   H64       1.0  0.28460  0.13230  0.11907  1.0000
  H   H65       1.0  0.27661  0.17321  0.15003  1.0000
  H   H66       1.0  0.30804  0.11267  0.16425  1.0000
  H   H67       1.0  0.31435  0.20845  0.16917  1.0000
  H   H68       1.0  0.34510  0.14876  0.18347  1.0000
  H   H69       1.0  0.34855  0.19656  0.18620  1.0000
  C   C66       1.0  0.06710  0.26505  0.04070  1.0000
  H   H70       1.0  0.44354  0.02755  0.20481  1.0000
  H   H71       1.0  0.40373  0.07307  0.20951  1.0000
  H   H72       1.0  0.45025  0.10287  0.17116  1.0000
  H   H73       1.0  0.07172  0.25265  0.03015  1.0000
  H   H74       1.0  0.18886  0.20615  0.00973  1.0000
  H   H75       1.0  0.44449  0.22268  0.23050  1.0000
  H   H76       1.0  0.13299  0.18707  0.03162  1.0000
  S   S21       1.0  0.18529  0.00379  0.08011  1.0000
  C   C67       1.0  0.15617  0.30370  0.05379  1.0000
  H   H77       1.0  0.07358  0.27016  0.14298  1.0000
  N   N4        1.0  0.01685  0.17802  0.12182  1.0000
  H   H78       1.0  0.42558  0.04945  0.16727  1.0000
  Fe  Fe11      1.0  0.44242  0.40503  0.23701  1.0000
  H   H79       1.0  0.38484  0.46283  0.16799  1.0000
  C   C68       1.0  0.04411  0.20058  0.12899  1.0000
  C   C69       1.0  0.06929  0.19718  0.13038  1.0000
  C   C70       1.0  0.04645  0.22755  0.13380  1.0000
  C   C71       1.0  0.09496  0.21940  0.13637  1.0000
  C   C72       1.0  0.07215  0.24948  0.13998  1.0000
  C   C73       1.0  0.09637  0.24545  0.14120  1.0000
  H   H80       1.0  0.22260  0.31402  0.99996  1.0000
  H   H81       1.0  0.07127  0.25851  0.05435  1.0000
  C   C74       1.0  0.36764  0.44271  0.17085  1.0000
  H   H82       1.0  0.02869  0.23231  0.13222  1.0000
  H   H83       1.0  0.98719  0.33443  0.17763  1.0000
  C   C75       1.0  0.07816  0.31108  0.05327  1.0000
  H   H84       1.0  0.98725  0.31787  0.14579  1.0000
  H   H85       1.0  0.18600  0.20913  0.03377  1.0000
  H   H86       1.0  0.06998  0.17783  0.12653  1.0000
  N   N5        1.0  0.08367  0.29574  0.03810  1.0000
  H   H87       1.0  0.05536  0.30608  0.05361  1.0000
  H   H88       1.0  0.40948  0.02873  0.18667  1.0000
  H   H89       1.0  0.17388  0.33598  0.01331  1.0000
  C   C76       1.0  0.07280  0.30269  0.02092  1.0000
  C   C77       1.0  0.32198  0.40603  0.16051  1.0000
  H   H90       1.0  0.45321  0.11831  0.19375  1.0000
  H   H91       1.0  0.27212  0.27498  0.02183  1.0000
  C   C78       1.0  0.44019  0.09985  0.18458  1.0000
  H   H92       1.0  0.41961  0.10051  0.18221  1.0000
  H   H93       1.0  0.30472  0.39750  0.15037  1.0000
  H   H94       1.0  0.34300  0.38768  0.19995  1.0000
  C   C79       1.0  0.43656  0.23792  0.22785  1.0000
  Fe  Fe12      1.0  0.39909  0.16208  0.23013  1.0000
  C   C80       1.0  0.41650  0.27759  0.22041  1.0000
  H   H95       1.0  0.23372  0.06432  0.99605  1.0000
  H   H96       1.0  0.04396  0.25848  0.03980  1.0000
  C   C81       1.0  0.40873  0.22895  0.22135  1.0000
  C   C82       1.0  0.18650  0.21955  0.02061  1.0000
  N   N6        1.0  0.43650  0.07299  0.19275  1.0000
  Fe  Fe13      1.0  0.43997  0.13591  0.23561  1.0000
  H   H97       1.0  0.03186  0.15072  0.10889  1.0000
  H   H98       1.0  0.38982  0.39534  0.20281  1.0000
  S   S22       1.0  0.39622  0.32568  0.24219  1.0000
  H   H99       1.0  0.37254  0.45146  0.21962  1.0000
  H   H100      1.0  0.12388  0.32372  0.01162  1.0000
  H   H101      1.0  0.41867  0.05075  0.21729  1.0000
  C   C83       1.0  0.46327  0.07070  0.19531  1.0000
  H   H102      1.0  0.19527  0.32359  0.04000  1.0000
  H   H103      1.0  0.16570  0.29849  0.06556  1.0000
  C   C84       1.0  0.46305  0.04545  0.20172  1.0000
  C   C85       1.0  0.00999  0.18611  0.10377  1.0000
  S   S23       1.0  0.38571  0.19316  0.21783  1.0000
  C   C86       1.0  0.01704  0.15025  0.11948  1.0000
  Fe  Fe14      1.0  0.44132  0.34767  0.23467  1.0000
  H   H104      1.0  0.08307  0.32573  0.01859  1.0000
  S   S24       1.0  0.46590  0.32250  0.23211  1.0000
  C   C87       1.0  0.45440  0.26680  0.23052  1.0000
  H   H105      1.0  0.37727  0.24194  0.21250  1.0000
  C   C88       1.0  0.17284  0.31785  0.03943  1.0000
  H   H106      1.0  0.43289  0.47189  0.20664  1.0000
  C   C89       1.0  0.44425  0.28666  0.22707  1.0000
  H   H107      1.0  0.30386  0.37011  0.17753  1.0000
  H   H108      1.0  0.99590  0.13354  0.11483  1.0000
  H   H109      1.0  0.00541  0.24810  0.99702  1.0000
  C   C90       1.0  0.16242  0.23705  0.99956  1.0000
  H   H110      1.0  0.11618  0.19874  0.01425  1.0000
  N   N7        1.0  0.16104  0.22408  0.01753  1.0000
  C   C91       1.0  0.23274  0.04384  0.99844  1.0000
  H   H111      1.0  0.34521  0.44389  0.14606  1.0000
  S   S25       1.0  0.99315  0.26273  0.03224  1.0000
  S   S26       1.0  0.99018  0.26296  0.11607  1.0000
  S   S27       1.0  0.46583  0.45299  0.23691  1.0000
  H   H112      1.0  0.98958  0.40769  0.17403  1.0000
  H   H113      1.0  0.42470  0.46600  0.18281  1.0000
  H   H114      1.0  0.40724  0.48156  0.19673  1.0000
  H   H115      1.0  0.99913  0.17009  0.14841  1.0000
  C   C92       1.0  0.99594  0.26220  0.99483  1.0000
  H   H116      1.0  0.47605  0.27377  0.23533  1.0000
  S   S28       1.0  0.23168  0.99638  0.04251  1.0000
  H   H117      1.0  0.98978  0.16962  0.09763  1.0000
  C   C93       1.0  0.99390  0.17420  0.13430  1.0000
  Fe  Fe15      1.0  0.98633  0.26823  0.06257  1.0000
  H   H118      1.0  0.98946  0.19278  0.13489  1.0000
  H   H119      1.0  0.34612  0.19261  0.24398  1.0000
  Fe  Fe16      1.0  0.39897  0.13182  0.26574  1.0000
  S   S29       1.0  0.39827  0.14606  0.29557  1.0000
  C   C94       1.0  0.34877  0.20795  0.25526  1.0000
  Fe  Fe17      1.0  0.39720  0.14405  0.43526  1.0000
  S   S30       1.0  0.36815  0.09900  0.42659  1.0000
  S   S31       1.0  0.38054  0.17458  0.44475  1.0000
  Fe  Fe18      1.0  0.44959  0.13616  0.43025  1.0000
  S   S32       1.0  0.42471  0.09117  0.42093  1.0000
  C   C95       1.0  0.45767  0.23887  0.28575  1.0000
  Fe  Fe19      1.0  0.39872  0.10687  0.40395  1.0000
  S   S33       1.0  0.38610  0.09073  0.37426  1.0000
  Fe  Fe20      1.0  0.39657  0.08713  0.44451  1.0000
  S   S34       1.0  0.38657  0.04797  0.46208  1.0000
  S   S35       1.0  0.42577  0.15224  0.41176  1.0000
  S   S36       1.0  0.42343  0.13175  0.45459  1.0000
  Fe  Fe21      1.0  0.40824  0.35963  0.26391  1.0000
  S   S37       1.0  0.39421  0.34189  0.29212  1.0000
  S   S38       1.0  0.45400  0.38021  0.25734  1.0000
  Fe  Fe22      1.0  0.41020  0.33375  0.41854  1.0000
  S   S39       1.0  0.38138  0.35211  0.40824  1.0000
  S   S40       1.0  0.40781  0.29181  0.40854  1.0000
  Fe  Fe23      1.0  0.45492  0.39117  0.43260  1.0000
  S   S41       1.0  0.42977  0.41332  0.42313  1.0000
  H   H120      1.0  0.47423  0.21160  0.44690  1.0000
  Fe  Fe24      1.0  0.39303  0.37714  0.43524  1.0000
  S   S42       1.0  0.36413  0.39071  0.45132  1.0000
  Fe  Fe25      1.0  0.42058  0.38679  0.39726  1.0000
  S   S43       1.0  0.42938  0.40757  0.36941  1.0000
  S   S44       1.0  0.41905  0.35613  0.44613  1.0000
  S   S45       1.0  0.44853  0.36748  0.40625  1.0000
  C   C96       1.0  0.35782  0.39327  0.47499  1.0000
  C   C97       1.0  0.37344  0.21681  0.30520  1.0000
  H   H121      1.0  0.46741  0.31002  0.41452  1.0000
  H   H122      1.0  0.40369  0.22555  0.26436  1.0000
  H   H123      1.0  0.37886  0.19963  0.30735  1.0000
  C   C98       1.0  0.40494  0.36062  0.31343  1.0000
  C   C99       1.0  0.42164  0.38977  0.31465  1.0000
  C   C100      1.0  0.42902  0.40378  0.33187  1.0000
  C   C101      1.0  0.42016  0.38883  0.34806  1.0000
  C   C102      1.0  0.40399  0.35960  0.34682  1.0000
  C   C103      1.0  0.39632  0.34564  0.32960  1.0000
  H   H124      1.0  0.42834  0.40160  0.30234  1.0000
  H   H125      1.0  0.44130  0.42639  0.33265  1.0000
  H   H126      1.0  0.39691  0.34785  0.35914  1.0000
  H   H127      1.0  0.38324  0.32316  0.32884  1.0000
  C   C104      1.0  0.39035  0.20812  0.43534  1.0000
  C   C105      1.0  0.40428  0.21549  0.41893  1.0000
  C   C106      1.0  0.41002  0.24153  0.41121  1.0000
  C   C107      1.0  0.40246  0.26073  0.41995  1.0000
  C   C108      1.0  0.38950  0.25389  0.43671  1.0000
  C   C109      1.0  0.38328  0.22756  0.44429  1.0000
  H   H128      1.0  0.41024  0.20101  0.41202  1.0000
  H   H129      1.0  0.42008  0.24669  0.39825  1.0000
  H   H130      1.0  0.38333  0.26839  0.44349  1.0000
  H   H131      1.0  0.37252  0.22204  0.45701  1.0000
  H   H132      1.0  0.35770  0.06555  0.48992  1.0000
  H   H133      1.0  0.39851  0.19749  0.27969  1.0000
  H   H134      1.0  0.46398  0.27253  0.26817  1.0000
  H   H135      1.0  0.43231  0.32450  0.27267  1.0000
  S   S46       1.0  0.43249  0.16831  0.25151  1.0000
  H   H136      1.0  0.47479  0.12544  0.32813  1.0000
  C   C110      1.0  0.37013  0.25736  0.31814  1.0000
  H   H137      1.0  0.43945  0.47104  0.43990  1.0000
  C   C111      1.0  0.39557  0.13029  0.31729  1.0000
  C   C112      1.0  0.38703  0.10146  0.31912  1.0000
  C   C113      1.0  0.38402  0.08983  0.33662  1.0000
  C   C114      1.0  0.38989  0.10681  0.35258  1.0000
  C   C115      1.0  0.39894  0.13577  0.35077  1.0000
  C   C116      1.0  0.40150  0.14733  0.33325  1.0000
  H   H138      1.0  0.38222  0.08798  0.30705  1.0000
  H   H139      1.0  0.37704  0.06742  0.33779  1.0000
  H   H140      1.0  0.40385  0.14922  0.36284  1.0000
  H   H141      1.0  0.40815  0.16966  0.33205  1.0000
  H   H142      1.0  0.32755  0.20676  0.25736  1.0000
  H   H143      1.0  0.38338  0.23075  0.33338  1.0000
  C   C117      1.0  0.44703  0.26988  0.31289  1.0000
  C   C118      1.0  0.46490  0.32359  0.44976  1.0000
  C   C119      1.0  0.99950  0.41971  0.47553  1.0000
  C   C120      1.0  0.45900  0.26515  0.28187  1.0000
  C   C121      1.0  0.43210  0.30431  0.27668  1.0000
  H   H144      1.0  0.44051  0.23494  0.33011  1.0000
  H   H145      1.0  0.41332  0.43844  0.46843  1.0000
  C   C122      1.0  0.45980  0.12940  0.36024  1.0000
  H   H146      1.0  0.44364  0.27189  0.45767  1.0000
  S   S47       1.0  0.40803  0.09926  0.25062  1.0000
  H   H147      1.0  0.09279  0.38504  0.47599  1.0000
  H   H148      1.0  0.35098  0.25000  0.27341  1.0000
  H   H149      1.0  0.36293  0.22903  0.25003  1.0000
  N   N8        1.0  0.32837  0.14221  0.39645  1.0000
  C   C123      1.0  0.30976  0.12780  0.38028  1.0000
  C   C124      1.0  0.35665  0.14381  0.39367  1.0000
  C   C125      1.0  0.31650  0.12425  0.41240  1.0000
  C   C126      1.0  0.33083  0.17101  0.39871  1.0000
  C   C127      1.0  0.34140  0.19057  0.38450  1.0000
  C   C128      1.0  0.32328  0.18066  0.41487  1.0000
  C   C129      1.0  0.34429  0.21799  0.38639  1.0000
  C   C130      1.0  0.32596  0.20803  0.41650  1.0000
  C   C131      1.0  0.33653  0.22667  0.40234  1.0000
  H   H150      1.0  0.31868  0.13821  0.36736  1.0000
  H   H151      1.0  0.30656  0.10565  0.37864  1.0000
  H   H152      1.0  0.28863  0.12733  0.38147  1.0000
  H   H153      1.0  0.37110  0.15451  0.40560  1.0000
  H   H154      1.0  0.36661  0.15561  0.38138  1.0000
  H   H155      1.0  0.35571  0.12252  0.39188  1.0000
  H   H156      1.0  0.29495  0.12167  0.41516  1.0000
  H   H157      1.0  0.31481  0.10272  0.41027  1.0000
  H   H158      1.0  0.33024  0.13315  0.42495  1.0000
  H   H159      1.0  0.34797  0.18494  0.37195  1.0000
  H   H160      1.0  0.31603  0.16782  0.42670  1.0000
  H   H161      1.0  0.35317  0.23293  0.37565  1.0000
  H   H162      1.0  0.32079  0.21520  0.42911  1.0000
  H   H163      1.0  0.33959  0.24821  0.40397  1.0000
  N   N9        1.0  0.36080  0.20177  0.27222  1.0000
  C   C132      1.0  0.34196  0.17230  0.27698  1.0000
  C   C133      1.0  0.37106  0.00865  0.48940  1.0000
  H   H164      1.0  0.45380  0.42751  0.47267  1.0000
  C   C134      1.0  0.36389  0.22111  0.28776  1.0000
  H   H165      1.0  0.43432  0.29407  0.26397  1.0000
  H   H166      1.0  0.42910  0.31277  0.31193  1.0000
  H   H167      1.0  0.44487  0.11166  0.35124  1.0000
  C   C135      1.0  0.42485  0.44307  0.48150  1.0000
  H   H168      1.0  0.01178  0.35875  0.44941  1.0000
  H   H169      1.0  0.46606  0.14947  0.35298  1.0000
  H   H170      1.0  0.35148  0.16429  0.28779  1.0000
  H   H171      1.0  0.32142  0.17031  0.28175  1.0000
  H   H172      1.0  0.48409  0.34885  0.28008  1.0000
  C   C136      1.0  0.07052  0.37876  0.47724  1.0000
  H   H173      1.0  0.44730  0.13006  0.37204  1.0000
  H   H174      1.0  0.33740  0.15747  0.26510  1.0000
  H   H175      1.0  0.44256  0.28068  0.32396  1.0000
  C   C137      1.0  0.45047  0.32442  0.30635  1.0000
  H   H176      1.0  0.44754  0.03405  0.46413  1.0000
  H   H177      1.0  0.99040  0.35675  0.47906  1.0000
  H   H178      1.0  0.46680  0.32883  0.31744  1.0000
  C   C138      1.0  0.47416  0.09780  0.37520  1.0000
  H   H179      1.0  0.46110  0.08018  0.36549  1.0000
  C   C139      1.0  0.36107  0.26243  0.30117  1.0000
  C   C140      1.0  0.38883  0.20379  0.26807  1.0000
  H   H180      1.0  0.46071  0.09677  0.38684  1.0000
  C   C141      1.0  0.48231  0.32756  0.28297  1.0000
  H   H181      1.0  0.37826  0.36881  0.48500  1.0000
  C   C142      1.0  0.46010  0.26790  0.45194  1.0000
  H   H182      1.0  0.44787  0.08060  0.46453  1.0000
  C   C143      1.0  0.44760  0.43682  0.48387  1.0000
  H   H183      1.0  0.33579  0.41836  0.46980  1.0000
  C   C144      1.0  0.45374  0.28152  0.29530  1.0000
  H   H184      1.0  0.44380  0.31042  0.44308  1.0000
  N   N10       1.0  0.48472  0.12529  0.36620  1.0000
  N   N11       1.0  0.45466  0.30898  0.29061  1.0000
  H   H185      1.0  0.06291  0.37246  0.44810  1.0000
  C   C145      1.0  0.02481  0.36368  0.46187  1.0000
  C   C146      1.0  0.01277  0.36255  0.47862  1.0000
  C   C147      1.0  0.34302  0.40851  0.48019  1.0000
  C   C148      1.0  0.47687  0.23304  0.44595  1.0000
  C   C149      1.0  0.35794  0.24466  0.28614  1.0000
  C   C150      1.0  0.37627  0.23459  0.32016  1.0000
  H   H186      1.0  0.38737  0.18960  0.25641  1.0000
  H   H187      1.0  0.48100  0.47542  0.34632  1.0000
  H   H188      1.0  0.37239  0.27119  0.32972  1.0000
  H   H189      1.0  0.46172  0.22677  0.27520  1.0000
  H   H190      1.0  0.44944  0.20734  0.30591  1.0000
  C   C151      1.0  0.46766  0.07912  0.46462  1.0000
  C   C152      1.0  0.46758  0.05286  0.46438  1.0000
  H   H191      1.0  0.43903  0.22457  0.45994  1.0000
  C   C153      1.0  0.44569  0.24349  0.31663  1.0000
  H   H192      1.0  0.46884  0.34593  0.44836  1.0000
  H   H193      1.0  0.35660  0.28042  0.29961  1.0000
  C   C154      1.0  0.36688  0.38060  0.48866  1.0000
  C   C155      1.0  0.37088  0.03374  0.48335  1.0000
  H   H194      1.0  0.41091  0.29107  0.28190  1.0000
  C   C156      1.0  0.45085  0.22796  0.30307  1.0000
  C   C157      1.0  0.05361  0.37156  0.46118  1.0000
  S   S48       1.0  0.39673  0.38641  0.24498  1.0000
  C   C158      1.0  0.45711  0.24043  0.45333  1.0000
  H   H195      1.0  0.38072  0.99856  0.48117  1.0000
  H   H196      1.0  0.45173  0.34515  0.30232  1.0000
  H   H197      1.0  0.01371  0.43159  0.46512  1.0000
  H   H198      1.0  0.48151  0.46508  0.44960  1.0000
  H   H199      1.0  0.46384  0.31957  0.46463  1.0000
  H   H200      1.0  0.48158  0.10356  0.42052  1.0000
  C   C159      1.0  0.00948  0.42355  0.49399  1.0000
  C   C160      1.0  0.48339  0.28900  0.44315  1.0000
  H   H201      1.0  0.39768  0.45759  0.49330  1.0000
  C   C161      1.0  0.48333  0.48606  0.44774  1.0000
  C   C162      1.0  0.45963  0.48936  0.44221  1.0000
  S   S49       1.0  0.36498  0.12763  0.24488  1.0000
  H   H202      1.0  0.47756  0.09389  0.24494  1.0000
  H   H203      1.0  0.48562  0.31943  0.26967  1.0000
  H   H204      1.0  0.10006  0.42568  0.66402  1.0000
  Fe  Fe26      1.0  0.29610  0.46299  0.56502  1.0000
  S   S50       1.0  0.28623  0.41789  0.57018  1.0000
  H   H205      1.0  0.39188  0.48682  0.53696  1.0000
  S   S51       1.0  0.00338  0.41043  0.53120  1.0000
  S   S52       1.0  0.35255  0.43957  0.58012  1.0000
  Fe  Fe27      1.0  0.32535  0.42645  0.55422  1.0000
  S   S53       1.0  0.33722  0.39823  0.53570  1.0000
  Fe  Fe28      1.0  0.31500  0.43581  0.59536  1.0000
  S   S54       1.0  0.29886  0.41811  0.62340  1.0000
  C   C163      1.0  0.43030  0.45980  0.51342  1.0000
  H   H206      1.0  0.39223  0.05477  0.60786  1.0000
  C   C164      1.0  0.41608  0.45421  0.49601  1.0000
  S   S55       1.0  0.35511  0.45473  0.70400  1.0000
  H   H207      1.0  0.33552  0.04375  0.51876  1.0000
  H   H208      1.0  0.28175  0.46221  0.63090  1.0000
  S   S56       1.0  0.04608  0.47236  0.56851  1.0000
  Fe  Fe29      1.0  0.10128  0.44374  0.56352  1.0000
  S   S57       1.0  0.05668  0.41714  0.57222  1.0000
  S   S58       1.0  0.12955  0.42175  0.56039  1.0000
  Fe  Fe30      1.0  0.04327  0.43753  0.54934  1.0000
  N   N12       1.0  0.42177  0.47164  0.52914  1.0000
  Fe  Fe31      1.0  0.06340  0.45424  0.59055  1.0000
  S   S59       1.0  0.04957  0.45821  0.61946  1.0000
  S   S60       1.0  0.08755  0.46203  0.53984  1.0000
  S   S61       1.0  0.33313  0.47043  0.54733  1.0000
  Fe  Fe32      1.0  0.07971  0.45003  0.72847  1.0000
  S   S62       1.0  0.08595  0.43686  0.69969  1.0000
  C   C165      1.0  0.09951  0.41704  0.50933  1.0000
  C   C166      1.0  0.06107  0.45315  0.64160  1.0000
  C   C167      1.0  0.07929  0.44077  0.64429  1.0000
  C   C168      1.0  0.08668  0.43607  0.66215  1.0000
  C   C169      1.0  0.07638  0.44408  0.67754  1.0000
  C   C170      1.0  0.05890  0.45728  0.67485  1.0000
  C   C171      1.0  0.05114  0.46156  0.65699  1.0000
  C   C172      1.0  0.39059  0.03757  0.57195  1.0000
  N   N13       1.0  0.37085  0.04590  0.58123  1.0000
  H   H209      1.0  0.07622  0.34686  0.51486  1.0000
  C   C173      1.0  0.38560  0.06522  0.59697  1.0000
  C   C174      1.0  0.40508  0.02479  0.58187  1.0000
  H   H210      1.0  0.05069  0.46344  0.68651  1.0000
  H   H211      1.0  0.17166  0.48097  0.56195  1.0000
  C   C175      1.0  0.99166  0.40799  0.50769  1.0000
  C   C176      1.0  0.22687  0.46395  0.55967  1.0000
  C   C177      1.0  0.21132  0.43465  0.55836  1.0000
  C   C178      1.0  0.18156  0.42210  0.55845  1.0000
  C   C179      1.0  0.16700  0.43864  0.55982  1.0000
  C   C180      1.0  0.18253  0.46794  0.56097  1.0000
  H   H212      1.0  0.40477  0.08377  0.59260  1.0000
  H   H213      1.0  0.22221  0.42165  0.55726  1.0000
  H   H214      1.0  0.16978  0.39942  0.55753  1.0000
  Fe  Fe33      1.0  0.33328  0.44943  0.73122  1.0000
  H   H215      1.0  0.07688  0.39344  0.54035  1.0000
  C   C181      1.0  0.31478  0.42991  0.64563  1.0000
  C   C182      1.0  0.29819  0.41951  0.66097  1.0000
  C   C183      1.0  0.30994  0.42754  0.67887  1.0000
  C   C184      1.0  0.33870  0.44561  0.68170  1.0000
  C   C185      1.0  0.35527  0.45620  0.66637  1.0000
  C   C186      1.0  0.34335  0.44869  0.64845  1.0000
  H   H216      1.0  0.27617  0.40470  0.65903  1.0000
  H   H217      1.0  0.29694  0.41898  0.69047  1.0000
  H   H218      1.0  0.22203  0.47511  0.70355  1.0000
  H   H219      1.0  0.35647  0.45669  0.63683  1.0000
  N   N14       1.0  0.17274  0.47967  0.69614  1.0000
  C   C187      1.0  0.34558  0.39762  0.51225  1.0000
  C   C188      1.0  0.36057  0.38257  0.50708  1.0000
  C   C189      1.0  0.18525  0.48069  0.67812  1.0000
  H   H220      1.0  0.36715  0.37209  0.51739  1.0000
  H   H221      1.0  0.10560  0.37537  0.52660  1.0000
  C   C190      1.0  0.21226  0.48047  0.56084  1.0000
  H   H222      1.0  0.10592  0.37066  0.50254  1.0000
  C   C191      1.0  0.34556  0.03387  0.51068  1.0000
  H   H223      1.0  0.33134  0.02554  0.59485  1.0000
  H   H224      1.0  0.08960  0.43122  0.50623  1.0000
  C   C192      1.0  0.15203  0.49132  0.69378  1.0000
  H   H225      1.0  0.37792  0.45764  0.52118  1.0000
  H   H226      1.0  0.08697  0.43406  0.63261  1.0000
  N   N15       1.0  0.24056  0.45123  0.61842  1.0000
  C   C193      1.0  0.24299  0.43150  0.60497  1.0000
  H   H227      1.0  0.11295  0.42529  0.52206  1.0000
  C   C194      1.0  0.25916  0.45339  0.63454  1.0000
  C   C195      1.0  0.21050  0.44106  0.62274  1.0000
  H   H228      1.0  0.13658  0.48070  0.68226  1.0000
  C   C196      1.0  0.19977  0.43008  0.63997  1.0000
  H   H229      1.0  0.14659  0.44808  0.71438  1.0000
  C   C197      1.0  0.17105  0.42005  0.64337  1.0000
  S   S63       1.0  0.32914  0.99408  0.53766  1.0000
  H   H230      1.0  0.23067  0.42965  0.59212  1.0000
  H   H231      1.0  0.26523  0.43853  0.60116  1.0000
  H   H232      1.0  0.23555  0.41000  0.61048  1.0000
  H   H233      1.0  0.35408  0.00919  0.59807  1.0000
  H   H234      1.0  0.40590  0.45912  0.55602  1.0000
  H   H235      1.0  0.44091  0.01230  0.54799  1.0000
  C   C198      1.0  0.16205  0.43075  0.61272  1.0000
  H   H236      1.0  0.39704  0.43063  0.53978  1.0000
  H   H237      1.0  0.25422  0.43233  0.64011  1.0000
  C   C199      1.0  0.35859  0.99625  0.50588  1.0000
  H   H238      1.0  0.21304  0.42842  0.65088  1.0000
  H   H239      1.0  0.14039  0.43726  0.69088  1.0000
  S   S64       1.0  0.04121  0.44406  0.74377  1.0000
  H   H240      1.0  0.43205  0.44842  0.54980  1.0000
  S   S65       1.0  0.29451  0.41498  0.74271  1.0000
  C   C200      1.0  0.39723  0.47737  0.52493  1.0000
  H   H241      1.0  0.43369  0.00588  0.58108  1.0000
  C   C201      1.0  0.09193  0.36930  0.51385  1.0000
  H   H242      1.0  0.13889  0.48783  0.70593  1.0000
  C   C202      1.0  0.19064  0.44075  0.60920  1.0000
  C   C203      1.0  0.42320  0.01601  0.57331  1.0000
  H   H243      1.0  0.32540  0.42235  0.50227  1.0000
  C   C204      1.0  0.34549  0.00863  0.51663  1.0000
  H   H244      1.0  0.40185  0.02074  0.59623  1.0000
  H   H245      1.0  0.37758  0.46990  0.66832  1.0000
  H   H246      1.0  0.38499  0.04990  0.54416  1.0000
  C   C205      1.0  0.33716  0.41091  0.49865  1.0000
  S   S66       1.0  0.32369  0.48046  0.59056  1.0000
  C   C206      1.0  0.02947  0.36989  0.49475  1.0000
  H   H247      1.0  0.12996  0.41235  0.63235  1.0000
  H   H248      1.0  0.11419  0.41919  0.49831  1.0000
  N   N16       1.0  0.07767  0.38760  0.51120  1.0000
  H   H249      1.0  0.34427  0.06672  0.57658  1.0000
  H   H250      1.0  0.37543  0.07975  0.56350  1.0000
  C   C207      1.0  0.35867  0.06038  0.56918  1.0000
  H   H251      1.0  0.19760  0.46842  0.67769  1.0000
  C   C208      1.0  0.42728  0.01955  0.55467  1.0000
  H   H252      1.0  0.41603  0.03411  0.52994  1.0000
  H   H253      1.0  0.34564  0.04628  0.55764  1.0000
  H   H254      1.0  0.05212  0.40084  0.52733  1.0000
  S   S67       1.0  0.10858  0.47923  0.58323  1.0000
  C   C209      1.0  0.39549  0.04108  0.55299  1.0000
  C   C210      1.0  0.41342  0.03200  0.54454  1.0000
  H   H255      1.0  0.16316  0.41123  0.65646  1.0000
  H   H256      1.0  0.01870  0.36930  0.50713  1.0000
  Fe  Fe34      1.0  0.35923  0.48318  0.57350  1.0000
  C   C211      1.0  0.34705  0.02046  0.58800  1.0000
  C   C212      1.0  0.06240  0.38658  0.52804  1.0000
  H   H257      1.0  0.37174  0.07310  0.60362  1.0000
  H   H258      1.0  0.25780  0.46730  0.64549  1.0000
  C   C213      1.0  0.45361  0.45342  0.51531  1.0000
  S   S68       1.0  0.26443  0.48103  0.56058  1.0000
  H   H259      1.0  0.33571  0.00535  0.57654  1.0000
  H   H260      1.0  0.17147  0.43965  0.70302  1.0000
  H   H261      1.0  0.18091  0.42737  0.73475  1.0000
  C   C214      1.0  0.15226  0.42050  0.62980  1.0000
  H   H262      1.0  0.16872  0.47140  0.66697  1.0000
  C   C215      1.0  0.41398  0.45164  0.54432  1.0000
  C   C216      1.0  0.25166  0.47960  0.61044  1.0000
  C   C217      1.0  0.15725  0.44987  0.70127  1.0000
  H   H263      1.0  0.24137  0.47947  0.59702  1.0000
  H   H264      1.0  0.04604  0.36491  0.53063  1.0000
  S   S69       1.0  0.23789  0.43888  0.74153  1.0000
  H   H265      1.0  0.27452  0.48812  0.60763  1.0000
  C   C218      1.0  0.21954  0.49062  0.71196  1.0000
  H   H266      1.0  0.46527  0.45686  0.52817  1.0000
  H   H267      1.0  0.47968  0.43708  0.50252  1.0000
  H   H268      1.0  0.19696  0.44768  0.59557  1.0000
  H   H269      1.0  0.03684  0.47091  0.65507  1.0000
  H   H270      1.0  0.14735  0.43044  0.60195  1.0000
  H   H271      1.0  0.03108  0.43826  0.49756  1.0000
  S   S70       1.0  0.32031  0.48337  0.73733  1.0000
  C   C219      1.0  0.46204  0.44210  0.50072  1.0000
  C   C220      1.0  0.05904  0.37849  0.49452  1.0000
  C   C221      1.0  0.35816  0.04635  0.49426  1.0000
  C   C222      1.0  0.39090  0.44836  0.80025  1.0000
  H   H272      1.0  0.99527  0.31938  0.83212  1.0000
  Fe  Fe35      1.0  0.23198  0.06301  0.89609  1.0000
  S   S71       1.0  0.26332  0.05065  0.90969  1.0000
  S   S72       1.0  0.25115  0.10842  0.88654  1.0000
  Fe  Fe36      1.0  0.23024  0.02855  0.93034  1.0000
  S   S73       1.0  0.09425  0.43072  0.75120  1.0000
  Fe  Fe37      1.0  0.24289  0.01099  0.89185  1.0000
  C   C223      1.0  0.08673  0.36039  0.81944  1.0000
  S   S74       1.0  0.20019  0.04318  0.91739  1.0000
  S   S75       1.0  0.21330  0.02460  0.87732  1.0000
  C   C224      1.0  0.18908  0.44280  0.74584  1.0000
  S   S76       1.0  0.35796  0.45584  0.75805  1.0000
  H   H273      1.0  0.35165  0.47545  0.82106  1.0000
  C   C225      1.0  0.16148  0.22198  0.98322  1.0000
  C   C226      1.0  0.26324  0.13770  0.96940  1.0000
  Fe  Fe38      1.0  0.31727  0.42474  0.77037  1.0000
  S   S77       1.0  0.31392  0.38877  0.78917  1.0000
  S   S78       1.0  0.30369  0.45778  0.77828  1.0000
  Fe  Fe39      1.0  0.25238  0.30635  0.88785  1.0000
  S   S79       1.0  0.20719  0.27394  0.88231  1.0000
  S   S80       1.0  0.27428  0.34548  0.86985  1.0000
  Fe  Fe40      1.0  0.25152  0.28590  0.92802  1.0000
  S   S81       1.0  0.20671  0.25342  0.92454  1.0000
  S   S82       1.0  0.27374  0.28575  0.95520  1.0000
  Fe  Fe41      1.0  0.21940  0.24363  0.89738  1.0000
  S   S83       1.0  0.19924  0.19618  0.89172  1.0000
  Fe  Fe42      1.0  0.19882  0.28621  0.91001  1.0000
  S   S84       1.0  0.16626  0.30079  0.91761  1.0000
  S   S85       1.0  0.26520  0.27499  0.90130  1.0000
  S   S86       1.0  0.24309  0.31969  0.91525  1.0000
  C   C227      1.0  0.16259  0.23369  0.96610  1.0000
  H   H274      1.0  0.24965  0.20622  0.97870  1.0000
  H   H275      1.0  0.20114  0.33863  0.89257  1.0000
  C   C228      1.0  0.16629  0.27630  0.98046  1.0000
  H   H276      1.0  0.16378  0.42474  0.80895  1.0000
  Fe  Fe43      1.0  0.05847  0.42901  0.76769  1.0000
  S   S87       1.0  0.03257  0.38928  0.78388  1.0000
  H   H277      1.0  0.00582  0.46134  0.76835  1.0000
  Fe  Fe44      1.0  0.00997  0.26101  0.89655  1.0000
  S   S88       1.0  0.02357  0.30519  0.90723  1.0000
  S   S89       1.0  0.03724  0.23893  0.89151  1.0000
  C   C229      1.0  0.02965  0.37884  0.80720  1.0000
  C   C230      1.0  0.01247  0.35047  0.81119  1.0000
  C   C231      1.0  0.00864  0.34124  0.82938  1.0000
  C   C232      1.0  0.36400  0.44606  0.84803  1.0000
  H   H278      1.0  0.20289  0.40621  0.81905  1.0000
  C   C233      1.0  0.13048  0.28282  0.91040  1.0000
  C   C234      1.0  0.11248  0.29485  0.91455  1.0000
  C   C235      1.0  0.08391  0.28157  0.90879  1.0000
  C   C236      1.0  0.07311  0.25610  0.89884  1.0000
  C   C237      1.0  0.09114  0.24403  0.89465  1.0000
  C   C238      1.0  0.11981  0.25738  0.90039  1.0000
  H   H279      1.0  0.12062  0.31451  0.92231  1.0000
  H   H280      1.0  0.07023  0.29093  0.91222  1.0000
  H   H281      1.0  0.08289  0.22428  0.88700  1.0000
  H   H282      1.0  0.13357  0.24793  0.89714  1.0000
  N   N17       1.0  0.38169  0.45893  0.81634  1.0000
  H   H283      1.0  0.22886  0.38553  0.80180  1.0000
  H   H284      1.0  0.40772  0.44208  0.80413  1.0000
  H   H285      1.0  0.18133  0.37677  0.87813  1.0000
  H   H286      1.0  0.09345  0.42169  0.79954  1.0000
  S   S90       1.0  0.26923  0.99347  0.87631  1.0000
  H   H287      1.0  0.05604  0.41987  0.81914  1.0000
  H   H288      1.0  0.14195  0.00247  0.98219  1.0000
  H   H289      1.0  0.21840  0.33185  0.87419  1.0000
  C   C239      1.0  0.21053  0.34193  0.83778  1.0000
  C   C240      1.0  0.29977  0.37613  0.81102  1.0000
  C   C241      1.0  0.29460  0.39282  0.82389  1.0000
  C   C242      1.0  0.28619  0.38280  0.84159  1.0000
  C   C243      1.0  0.28204  0.35568  0.84665  1.0000
  C   C244      1.0  0.28611  0.33859  0.83355  1.0000
  C   C245      1.0  0.29523  0.34889  0.81601  1.0000
  H   H290      1.0  0.29781  0.41374  0.82044  1.0000
  H   H291      1.0  0.28322  0.39633  0.85154  1.0000
  H   H292      1.0  0.28329  0.31781  0.83713  1.0000
  H   H293      1.0  0.29917  0.33571  0.80627  1.0000
  H   H294      1.0  0.23544  0.30758  0.96856  1.0000
  C   C246      1.0  0.26172  0.28827  0.97725  1.0000
  C   C247      1.0  0.19236  0.37632  0.84069  1.0000
  H   H295      1.0  0.23406  0.34477  0.81377  1.0000
  H   H296      1.0  0.99921  0.26158  0.96546  1.0000
  C   C248      1.0  0.23644  0.13254  0.88833  1.0000
  C   C249      1.0  0.20815  0.12381  0.89231  1.0000
  C   C250      1.0  0.19719  0.14361  0.89325  1.0000
  C   C251      1.0  0.21442  0.17238  0.89056  1.0000
  C   C252      1.0  0.24280  0.18116  0.88677  1.0000
  C   C253      1.0  0.25366  0.16130  0.88553  1.0000
  H   H297      1.0  0.19459  0.10177  0.89439  1.0000
  H   H298      1.0  0.17516  0.13656  0.89604  1.0000
  H   H299      1.0  0.25622  0.20316  0.88443  1.0000
  H   H300      1.0  0.27555  0.16826  0.88238  1.0000
  C   C254      1.0  0.02181  0.36034  0.84396  1.0000
  H   H301      1.0  0.05905  0.32882  0.83735  1.0000
  H   H302      1.0  0.23768  0.11240  0.92666  1.0000
  H   H303      1.0  0.23975  0.15868  0.92399  1.0000
  C   C255      1.0  0.25676  0.17368  0.95178  1.0000
  H   H304      1.0  0.17588  0.29830  0.85825  1.0000
  C   C256      1.0  0.23268  0.02693  0.98348  1.0000
  H   H305      1.0  0.00667  0.43273  0.78017  1.0000
  C   C257      1.0  0.04305  0.39792  0.82178  1.0000
  H   H306      1.0  0.14924  0.35172  0.86605  1.0000
  H   H307      1.0  0.34764  0.43296  0.87472  1.0000
  N   N18       1.0  0.25951  0.20263  0.95064  1.0000
  C   C258      1.0  0.25036  0.20887  0.93260  1.0000
  C   C259      1.0  0.24209  0.20715  0.96456  1.0000
  C   C260      1.0  0.28951  0.22315  0.95407  1.0000
  H   H308      1.0  0.26329  0.20699  0.92148  1.0000
  H   H309      1.0  0.22769  0.19476  0.92920  1.0000
  H   H310      1.0  0.25268  0.23078  0.93225  1.0000
  H   H311      1.0  0.21967  0.19112  0.96289  1.0000
  H   H312      1.0  0.24248  0.22824  0.96346  1.0000
  H   H313      1.0  0.16013  0.20108  0.98353  1.0000
  H   H314      1.0  0.29292  0.24520  0.95217  1.0000
  H   H315      1.0  0.29722  0.22245  0.96821  1.0000
  H   H316      1.0  0.30338  0.21919  0.94452  1.0000
  H   H317      1.0  0.07497  0.34769  0.80769  1.0000
  S   S91       1.0  0.08310  0.47229  0.78012  1.0000
  C   C261      1.0  0.21680  0.45168  0.75261  1.0000
  H   H318      1.0  0.14229  0.00744  0.94172  1.0000
  C   C262      1.0  0.37141  0.43836  0.83113  1.0000
  H   H319      1.0  0.00179  0.33547  0.80012  1.0000
  C   C263      1.0  0.19518  0.35294  0.84802  1.0000
  H   H320      1.0  0.37294  0.42999  0.79339  1.0000
  C   C264      1.0  0.18276  0.47483  0.76690  1.0000
  C   C265      1.0  0.35034  0.39947  0.85967  1.0000
  C   C266      1.0  0.22201  0.35330  0.82117  1.0000
  H   H321      1.0  0.35328  0.36942  0.84116  1.0000
  H   H322      1.0  0.08163  0.35618  0.86553  1.0000
  H   H323      1.0  0.99223  0.18384  0.84881  1.0000
  S   S92       1.0  0.16218  0.49071  0.77505  1.0000
  H   H324      1.0  0.36547  0.46679  0.85038  1.0000
  N   N19       1.0  0.28610  0.07943  0.84512  1.0000
  C   C267      1.0  0.29962  0.11062  0.84486  1.0000
  C   C268      1.0  0.25519  0.06882  0.84196  1.0000
  C   C269      1.0  0.29085  0.07128  0.86373  1.0000
  C   C270      1.0  0.29751  0.06822  0.83062  1.0000
  C   C271      1.0  0.29358  0.07312  0.81199  1.0000
  C   C272      1.0  0.31246  0.05213  0.83436  1.0000
  C   C273      1.0  0.30316  0.06184  0.79801  1.0000
  C   C274      1.0  0.32228  0.04132  0.82027  1.0000
  C   C275      1.0  0.31731  0.04581  0.80214  1.0000
  H   H325      1.0  0.29498  0.11857  0.83187  1.0000
  H   H326      1.0  0.29198  0.11971  0.85598  1.0000
  H   H327      1.0  0.32296  0.11941  0.84673  1.0000
  H   H328      1.0  0.24967  0.07654  0.82919  1.0000
  H   H329      1.0  0.24568  0.07574  0.85314  1.0000
  H   H330      1.0  0.24440  0.04541  0.84118  1.0000
  H   H331      1.0  0.31369  0.07940  0.86744  1.0000
  H   H332      1.0  0.28201  0.07992  0.87431  1.0000
  H   H333      1.0  0.28038  0.04802  0.86506  1.0000
  H   H334      1.0  0.28263  0.08533  0.80810  1.0000
  H   H335      1.0  0.31611  0.04675  0.84802  1.0000
  H   H336      1.0  0.29923  0.06512  0.78386  1.0000
  H   H337      1.0  0.33281  0.02833  0.82338  1.0000
  H   H338      1.0  0.32392  0.03627  0.79130  1.0000
  H   H339      1.0  0.12218  0.40332  0.86393  1.0000
  H   H340      1.0  0.15934  0.34396  0.88793  1.0000
  H   H341      1.0  0.22443  0.36711  0.87913  1.0000
  H   H342      1.0  0.17154  0.99394  0.98407  1.0000
  H   H343      1.0  0.34140  0.38432  0.87031  1.0000
  C   C276      1.0  0.17221  0.45446  0.75286  1.0000
  H   H344      1.0  0.15622  0.30081  0.87669  1.0000
  H   H345      1.0  0.37092  0.40172  0.81646  1.0000
  C   C277      1.0  0.03902  0.38873  0.83996  1.0000
  C   C278      1.0  0.99240  0.26976  0.97688  1.0000
  C   C279      1.0  0.20795  0.34484  0.87846  1.0000
  H   H346      1.0  0.12361  0.43689  0.78562  1.0000
  H   H347      1.0  0.13990  0.42344  0.83446  1.0000
  C   C280      1.0  0.24657  0.15390  0.93691  1.0000
  C   C281      1.0  0.26488  0.16467  0.96814  1.0000
  C   C282      1.0  0.20445  0.38788  0.82420  1.0000
  C   C283      1.0  0.27187  0.27903  0.99245  1.0000
  H   H348      1.0  0.02932  0.48762  0.81671  1.0000
  H   H349      1.0  0.42323  0.48066  0.82898  1.0000
  Fe  Fe45      1.0  0.11808  0.47476  0.76247  1.0000
  C   C284      1.0  0.40612  0.48521  0.82310  1.0000
  N   N20       1.0  0.99727  0.46123  0.79699  1.0000
  C   C285      1.0  0.11277  0.39115  0.85146  1.0000
  C   C286      1.0  0.21917  0.37635  0.81445  1.0000
  H   H350      1.0  0.21454  0.32489  0.84279  1.0000
  C   C287      1.0  0.24513  0.12704  0.93829  1.0000
  C   C288      1.0  0.11609  0.42649  0.79874  1.0000
  C   C289      1.0  0.12264  0.40249  0.83451  1.0000
  C   C290      1.0  0.99567  0.44633  0.77941  1.0000
  H   H351      1.0  0.27281  0.17853  0.98003  1.0000
  C   C291      1.0  0.15036  0.40818  0.79877  1.0000
  H   H352      1.0  0.15829  0.41696  0.78521  1.0000
  H   H353      1.0  0.12815  0.44255  0.80955  1.0000
  H   H354      1.0  0.04931  0.40377  0.85108  1.0000
  H   H355      1.0  0.17211  0.01961  0.96857  1.0000
  N   N21       1.0  0.18402  0.34095  0.86584  1.0000
  C   C292      1.0  0.15789  0.99898  0.97443  1.0000
  C   C293      1.0  0.16496  0.31040  0.86349  1.0000
  N   N22       1.0  0.11991  0.40056  0.80018  1.0000
  C   C294      1.0  0.35712  0.39112  0.84322  1.0000
  C   C295      1.0  0.10979  0.38754  0.81794  1.0000
  H   H356      1.0  0.15432  0.38944  0.80061  1.0000
  C   C296      1.0  0.07729  0.34914  0.83647  1.0000
  Fe  Fe46      1.0  0.18438  0.00349  0.90018  1.0000
  C   C297      1.0  0.09005  0.36456  0.85243  1.0000
  C   C298      1.0  0.16780  0.35410  0.87474  1.0000
  H   H357      1.0  0.14687  0.30650  0.85388  1.0000
  C   C299      1.0  0.10474  0.38195  0.78418  1.0000
  H   H358      1.0  0.10681  0.36200  0.78429  1.0000
  H   H359      1.0  0.11320  0.39216  0.77107  1.0000
  S   S93       1.0  0.01760  0.35021  0.86732  1.0000
  C   C300      1.0  0.24329  0.30020  0.98007  1.0000
  H   H360      1.0  0.18139  0.38634  0.84759  1.0000
  H   H361      1.0  0.00294  0.41455  0.80754  1.0000
  H   H362      1.0  0.24867  0.47841  0.77236  1.0000
  H   H363      1.0  0.08189  0.37685  0.78366  1.0000
  C   C301      1.0  0.36736  0.41009  0.82907  1.0000
  C   C302      1.0  0.16493  0.26078  0.96473  1.0000
  C   C303      1.0  0.35875  0.46586  0.81004  1.0000
  S   S94       1.0  0.23407  0.04002  0.96103  1.0000
  H   H364      1.0  0.03699  0.46186  0.80544  1.0000
  C   C304      1.0  0.23134  0.00047  0.98686  1.0000
  H   H365      1.0  0.15135  0.44822  0.74705  1.0000
  Fe  Fe47      1.0  0.28286  0.44952  0.75025  1.0000
  H   H366      1.0  0.16181  0.22185  0.95378  1.0000
  C   C305      1.0  0.22724  0.47143  0.76710  1.0000
  H   H367      1.0  0.39949  0.46461  0.78967  1.0000
  H   H368      1.0  0.25260  0.09824  0.95537  1.0000
  Fe  Fe48      1.0  0.34304  0.48823  0.76445  1.0000
  H   H369      1.0  0.34000  0.44655  0.80496  1.0000
  C   C306      1.0  0.35372  0.42687  0.86206  1.0000
  Fe  Fe49      1.0  0.99761  0.30883  0.88322  1.0000
  C   C307      1.0  0.21014  0.48295  0.77427  1.0000
  H   H370      1.0  0.36541  0.48112  0.79876  1.0000
  H   H371      1.0  0.16601  0.26990  0.95143  1.0000
  H   H372      1.0  0.28634  0.27002  0.99047  1.0000
  C   C308      1.0  0.98710  0.41774  0.81475  1.0000
  C   C309      1.0  0.02722  0.47638  0.80343  1.0000
  H   H373      1.0  0.16878  0.29762  0.97926  1.0000
  H   H374      1.0  0.26972  0.13123  0.98195  1.0000
  C   C310      1.0  0.25352  0.11899  0.95446  1.0000
  Fe  Fe50      1.0  0.06851  0.48789  0.75546  1.0000
  H   H375      1.0  0.18255  0.99505  0.94512  1.0000
  C   C311      1.0  0.98702  0.48266  0.79328  1.0000
  S   S95       1.0  0.98605  0.26540  0.87193  1.0000
  H   H376      1.0  0.23870  0.99734  0.84290  1.0000
  Fe  Fe51      1.0  0.00721  0.81854  0.09829  1.0000
  S   S96       1.0  0.02616  0.78918  0.09259  1.0000
  S   S97       1.0  0.03243  0.86360  0.10912  1.0000
  C   C312      1.0  0.09939  0.88373  0.15130  1.0000
  C   C313      1.0  0.15032  0.89744  0.01776  1.0000
  C   C314      1.0  0.06339  0.78792  0.13417  1.0000
  H   H377      1.0  0.10305  0.87636  0.05197  1.0000
  C   C315      1.0  0.08002  0.83216  0.15128  1.0000
  S   S98       1.0  0.16628  0.93637  0.11054  1.0000
  C   C316      1.0  0.13076  0.86261  0.15672  1.0000
  C   C317      1.0  0.12656  0.88651  0.15451  1.0000
  C   C318      1.0  0.00842  0.77603  0.01643  1.0000
  H   H378      1.0  0.04516  0.76723  0.13049  1.0000
  C   C319      1.0  0.06950  0.88372  0.10746  1.0000
  C   C320      1.0  0.08740  0.87092  0.10562  1.0000
  C   C321      1.0  0.11692  0.88738  0.10659  1.0000
  C   C322      1.0  0.12892  0.91688  0.10868  1.0000
  C   C323      1.0  0.11102  0.92978  0.10970  1.0000
  C   C324      1.0  0.08149  0.91323  0.10940  1.0000
  H   H379      1.0  0.07856  0.84827  0.10426  1.0000
  H   H380      1.0  0.13058  0.87716  0.10588  1.0000
  H   H381      1.0  0.11991  0.95243  0.11138  1.0000
  H   H382      1.0  0.06785  0.92334  0.11092  1.0000
  C   C325      1.0  0.05198  0.78795  0.16576  1.0000
  H   H383      1.0  0.14442  0.90726  0.15499  1.0000
  C   C326      1.0  0.02930  0.80348  0.14287  1.0000
  Fe  Fe52      1.0  0.00159  0.78000  0.06562  1.0000
  N   N23       1.0  0.05647  0.80351  0.14856  1.0000
  H   H384      1.0  0.13818  0.94952  0.03239  1.0000
  H   H385      1.0  0.01224  0.78170  0.14032  1.0000
  H   H386      1.0  0.04709  0.79917  0.17698  1.0000
  H   H387      1.0  0.06956  0.80028  0.12152  1.0000
  C   C327      1.0  0.10787  0.83581  0.15529  1.0000
  H   H388      1.0  0.11222  0.81791  0.15699  1.0000
  C   C328      1.0  0.11311  0.87691  0.03927  1.0000
  H   H389      1.0  0.08099  0.78306  0.13843  1.0000
  H   H390      1.0  0.09627  0.90239  0.14927  1.0000
  H   H391      1.0  0.23058  0.97131  0.00741  1.0000
  H   H392      1.0  0.02171  0.81326  0.15353  1.0000
  H   H393      1.0  0.05611  0.85665  0.14662  1.0000
  C   C329      1.0  0.07636  0.85705  0.14972  1.0000
  H   H394      1.0  0.15198  0.86493  0.15923  1.0000
  H   H395      1.0  0.03127  0.81501  0.13000  1.0000
  H   H396      1.0  0.07082  0.78527  0.17031  1.0000
  H   H397      1.0  0.15185  0.94311  0.07272  1.0000
  C   C330      1.0  0.09914  0.85360  0.02742  1.0000
  H   H398      1.0  0.10023  0.91321  0.00653  1.0000
  C   C331      1.0  0.13922  0.89966  0.03475  1.0000
  H   H399      1.0  0.03407  0.76637  0.16418  1.0000
  H   H400      1.0  0.18076  0.90724  0.05898  1.0000
  S   S99       1.0  0.02418  0.78676  0.03868  1.0000
  C   C332      1.0  0.13984  0.92404  0.06387  1.0000
  C   C333      1.0  0.15872  0.95056  0.03722  1.0000
  N   N24       1.0  0.15467  0.92471  0.04691  1.0000
  H   H401      1.0  0.19439  0.94462  0.06231  1.0000
  C   C334      1.0  0.18275  0.92678  0.05237  1.0000
  C   C335      1.0  0.02252  0.79162  0.00137  1.0000
  H   H402      1.0  0.17246  0.95448  0.02538  1.0000
  H   H403      1.0  0.07940  0.83631  0.03124  1.0000
  H   H404      1.0  0.19673  0.93075  0.04064  1.0000
  H   H405      1.0  0.09971  0.83392  0.00177  1.0000
  Fe  Fe53      1.0  0.19412  0.98251  0.10400  1.0000
  H   H406      1.0  0.16953  0.96969  0.04623  1.0000
  H   H407      1.0  0.04264  0.80988  0.00354  1.0000
  S   S100      1.0  0.23723  0.99028  0.09484  1.0000
  H   H408      1.0  0.13749  0.90588  0.07229  1.0000
  H   H409      1.0  0.11868  0.92310  0.06103  1.0000
  H   H410      1.0  0.17024  0.91375  0.01354  1.0000
  C   C336      1.0  0.11059  0.85218  0.01082  1.0000
  C   C337      1.0  0.13611  0.87407  0.00599  1.0000
  S   S101      1.0  0.98745  0.72224  0.12424  1.0000
  Fe  Fe54      1.0  0.98679  0.75585  0.10483  1.0000
  H   H411      1.0  0.13182  0.95986  0.99634  1.0000
  C   C338      1.0  0.23083  0.99147  0.00497  1.0000
  H   H412      1.0  0.08537  0.75330  0.49197  1.0000
  H   H413      1.0  0.02514  0.69266  0.46890  1.0000
  C   C339      1.0  0.00985  0.68398  0.47937  1.0000
  C   C340      1.0  0.46198  0.51622  0.43944  1.0000
  H   H414      1.0  0.44349  0.51865  0.43499  1.0000
  H   H415      1.0  0.11804  0.78049  0.48430  1.0000
  H   H416      1.0  0.01544  0.62818  0.49285  1.0000
  C   C341      1.0  0.99581  0.60930  0.49079  1.0000
  H   H417      1.0  0.99138  0.61963  0.46289  1.0000
  Fe  Fe55      1.0  0.04413  0.69708  0.55462  1.0000
  S   S102      1.0  0.07524  0.68133  0.54673  1.0000
  S   S103      1.0  0.00811  0.69357  0.53472  1.0000
  Fe  Fe56      1.0  0.06693  0.70715  0.59555  1.0000
  S   S104      1.0  0.09827  0.69067  0.58977  1.0000
  S   S105      1.0  0.07195  0.72828  0.62367  1.0000
  Fe  Fe57      1.0  0.10694  0.71697  0.56476  1.0000
  S   S106      1.0  0.15268  0.74293  0.55729  1.0000
  Fe  Fe58      1.0  0.06343  0.65722  0.57258  1.0000
  S   S107      1.0  0.04471  0.60993  0.57314  1.0000
  S   S108      1.0  0.07674  0.73477  0.57092  1.0000
  S   S109      1.0  0.03118  0.67173  0.58010  1.0000
  H   H418      1.0  0.45392  0.90388  0.53723  1.0000
  C   C342      1.0  0.06484  0.57656  0.61507  1.0000
  S   S110      1.0  0.04266  0.67616  0.70308  1.0000
  Fe  Fe59      1.0  0.27527  0.90190  0.57232  1.0000
  S   S111      1.0  0.29000  0.94829  0.57836  1.0000
  S   S112      1.0  0.22743  0.87469  0.57258  1.0000
  Fe  Fe60      1.0  0.33575  0.91021  0.57068  1.0000
  S   S113      1.0  0.35420  0.95662  0.57645  1.0000
  S   S114      1.0  0.36335  0.88758  0.57067  1.0000
  Fe  Fe61      1.0  0.32177  0.94513  0.59805  1.0000
  S   S115      1.0  0.33887  0.96724  0.62589  1.0000
  Fe  Fe62      1.0  0.32127  0.95624  0.55610  1.0000
  S   S116      1.0  0.30530  0.89864  0.59341  1.0000
  S   S117      1.0  0.30441  0.90984  0.54887  1.0000
  H   H419      1.0  0.44927  0.77351  0.53709  1.0000
  S   S118      1.0  0.28509  0.92692  0.70373  1.0000
  C   C343      1.0  0.08160  0.62151  0.63120  1.0000
  S   S119      1.0  0.40593  0.51223  0.57604  1.0000
  S   S120      1.0  0.11366  0.54213  0.55581  1.0000
  C   C344      1.0  0.32408  0.95466  0.64742  1.0000
  H   H420      1.0  0.10889  0.64540  0.72520  1.0000
  C   C345      1.0  0.32927  0.95768  0.68089  1.0000
  C   C346      1.0  0.30129  0.93732  0.68231  1.0000
  C   C347      1.0  0.28503  0.92541  0.66615  1.0000
  C   C348      1.0  0.29640  0.93371  0.64883  1.0000
  H   H421      1.0  0.26333  0.90989  0.66705  1.0000
  H   H422      1.0  0.28345  0.92450  0.63659  1.0000
  H   H423      1.0  0.07433  0.50908  0.60109  1.0000
  C   C349      1.0  0.40016  0.90850  0.57100  1.0000
  C   C350      1.0  0.41814  0.89792  0.57842  1.0000
  C   C351      1.0  0.44758  0.91448  0.57907  1.0000
  C   C352      1.0  0.45912  0.94141  0.57190  1.0000
  C   C353      1.0  0.44110  0.95208  0.56473  1.0000
  C   C354      1.0  0.41172  0.93574  0.56431  1.0000
  H   H424      1.0  0.40928  0.87703  0.58392  1.0000
  H   H425      1.0  0.46130  0.90674  0.58548  1.0000
  H   H426      1.0  0.40142  0.57674  0.71963  1.0000
  H   H427      1.0  0.39806  0.94405  0.55849  1.0000
  C   C355      1.0  0.44984  0.60509  0.56140  1.0000
  C   C356      1.0  0.46521  0.58996  0.56500  1.0000
  C   C357      1.0  0.45130  0.56141  0.56910  1.0000
  C   C358      1.0  0.42180  0.54743  0.56923  1.0000
  C   C359      1.0  0.40614  0.56204  0.56482  1.0000
  C   C360      1.0  0.42020  0.59089  0.56093  1.0000
  H   H428      1.0  0.16268  0.51422  0.69109  1.0000
  H   H429      1.0  0.46355  0.55024  0.57250  1.0000
  H   H430      1.0  0.38333  0.55136  0.56482  1.0000
  H   H431      1.0  0.40811  0.60239  0.55799  1.0000
  H   H432      1.0  0.16421  0.86446  0.52992  1.0000
  C   C361      1.0  0.41270  0.51867  0.71973  1.0000
  C   C362      1.0  0.06426  0.59225  0.56648  1.0000
  C   C363      1.0  0.09361  0.60617  0.56548  1.0000
  C   C364      1.0  0.10861  0.59079  0.56133  1.0000
  C   C365      1.0  0.09428  0.56156  0.55811  1.0000
  C   C366      1.0  0.06483  0.54806  0.55804  1.0000
  C   C367      1.0  0.04989  0.56328  0.56251  1.0000
  H   H433      1.0  0.10479  0.62858  0.56841  1.0000
  H   H434      1.0  0.13141  0.60139  0.56115  1.0000
  H   H435      1.0  0.05358  0.52573  0.55507  1.0000
  H   H436      1.0  0.02715  0.55246  0.56310  1.0000
  C   C368      1.0  0.17328  0.77936  0.56244  1.0000
  C   C369      1.0  0.16098  0.79672  0.56759  1.0000
  C   C370      1.0  0.17798  0.82576  0.57087  1.0000
  C   C371      1.0  0.20743  0.83776  0.56922  1.0000
  C   C372      1.0  0.21978  0.82029  0.56446  1.0000
  C   C373      1.0  0.20274  0.79128  0.56097  1.0000
  H   H437      1.0  0.13838  0.78795  0.56877  1.0000
  H   H438      1.0  0.16824  0.83915  0.57445  1.0000
  H   H439      1.0  0.24239  0.82924  0.56310  1.0000
  H   H440      1.0  0.21246  0.77804  0.55700  1.0000
  C   C374      1.0  0.06485  0.71284  0.64556  1.0000
  C   C375      1.0  0.07583  0.73035  0.66126  1.0000
  C   C376      1.0  0.07002  0.71933  0.67891  1.0000
  C   C377      1.0  0.05241  0.69071  0.68111  1.0000
  C   C378      1.0  0.04154  0.67313  0.66541  1.0000
  C   C379      1.0  0.04802  0.68402  0.64775  1.0000
  H   H441      1.0  0.08853  0.75272  0.65982  1.0000
  H   H442      1.0  0.07838  0.73318  0.69080  1.0000
  H   H443      1.0  0.02759  0.65104  0.66691  1.0000
  H   H444      1.0  0.03912  0.67033  0.63585  1.0000
  H   H445      1.0  0.37854  0.54492  0.69168  1.0000
  N   N25       1.0  0.16105  0.78189  0.62418  1.0000
  C   C380      1.0  0.14487  0.75377  0.63206  1.0000
  C   C381      1.0  0.14053  0.78964  0.61464  1.0000
  C   C382      1.0  0.17982  0.77892  0.61057  1.0000
  C   C383      1.0  0.17790  0.80415  0.63797  1.0000
  C   C384      1.0  0.17620  0.79956  0.65708  1.0000
  C   C385      1.0  0.19634  0.83170  0.63245  1.0000
  C   C386      1.0  0.19246  0.82108  0.66971  1.0000
  C   C387      1.0  0.21258  0.85302  0.64521  1.0000
  C   C388      1.0  0.21070  0.84769  0.66380  1.0000
  H   H446      1.0  0.15899  0.74658  0.63949  1.0000
  H   H447      1.0  0.12879  0.75379  0.64148  1.0000
  H   H448      1.0  0.13273  0.73744  0.62133  1.0000
  H   H449      1.0  0.12600  0.79204  0.62444  1.0000
  H   H450      1.0  0.12708  0.77318  0.60433  1.0000
  H   H451      1.0  0.15110  0.80973  0.60735  1.0000
  H   H452      1.0  0.19058  0.79809  0.60245  1.0000
  H   H453      1.0  0.19651  0.77455  0.61731  1.0000
  H   H454      1.0  0.16788  0.76148  0.60044  1.0000
  H   H455      1.0  0.16235  0.77960  0.66269  1.0000
  H   H456      1.0  0.19827  0.83708  0.61821  1.0000
  H   H457      1.0  0.19082  0.81714  0.68423  1.0000
  H   H458      1.0  0.22663  0.87385  0.64066  1.0000
  H   H459      1.0  0.22324  0.86427  0.67369  1.0000
  H   H460      1.0  0.35089  0.88531  0.62122  1.0000
  H   H461      1.0  0.09831  0.51425  0.62964  1.0000
  C   C389      1.0  0.37944  0.92748  0.64585  1.0000
  H   H462      1.0  0.43167  0.87741  0.52084  1.0000
  H   H463      1.0  0.39512  0.50634  0.72881  1.0000
  H   H464      1.0  0.01763  0.64075  0.52295  1.0000
  C   C390      1.0  0.09559  0.53333  0.63333  1.0000
  C   C391      1.0  0.19255  0.51369  0.72348  1.0000
  H   H465      1.0  0.09995  0.64235  0.68426  1.0000
  C   C392      1.0  0.40961  0.77448  0.53150  1.0000
  H   H466      1.0  0.46169  0.64554  0.63842  1.0000
  H   H467      1.0  0.01329  0.62642  0.54505  1.0000
  N   N26       1.0  0.99947  0.59523  0.52302  1.0000
  H   H468      1.0  0.06316  0.56716  0.72246  1.0000
  H   H469      1.0  0.48491  0.96463  0.61186  1.0000
  Fe  Fe63      1.0  0.09100  0.49534  0.56038  1.0000
  H   H470      1.0  0.12645  0.59297  0.63939  1.0000
  H   H471      1.0  0.09092  0.66192  0.70066  1.0000
  S   S121      1.0  0.07743  0.74032  0.74212  1.0000
  H   H472      1.0  0.13833  0.57150  0.61522  1.0000
  C   C393      1.0  0.46850  0.58923  0.62084  1.0000
  H   H473      1.0  0.43960  0.50854  0.54694  1.0000
  C   C394      1.0  0.45380  0.81590  0.53769  1.0000
  H   H474      1.0  0.12024  0.63473  0.64713  1.0000
  H   H475      1.0  0.47301  0.86834  0.51130  1.0000
  H   H476      1.0  0.38131  0.88595  0.61079  1.0000
  C   C395      1.0  0.42975  0.91628  0.64527  1.0000
  C   C396      1.0  0.08816  0.57261  0.62205  1.0000
  N   N27       1.0  0.39014  0.92152  0.62865  1.0000
  C   C397      1.0  0.99900  0.68072  0.51161  1.0000
  C   C398      1.0  0.38432  0.93777  0.61420  1.0000
  H   H477      1.0  0.42354  0.52282  0.67981  1.0000
  C   C399      1.0  0.42042  0.92838  0.63101  1.0000
  H   H478      1.0  0.07929  0.64041  0.63433  1.0000
  H   H479      1.0  0.13670  0.74029  0.51947  1.0000
  C   C400      1.0  0.02756  0.59607  0.52065  1.0000
  H   H480      1.0  0.12245  0.82061  0.52177  1.0000
  H   H481      1.0  0.35704  0.92377  0.64412  1.0000
  C   C401      1.0  0.43854  0.78670  0.53553  1.0000
  C   C402      1.0  0.46909  0.87130  0.55731  1.0000
  H   H482      1.0  0.45203  0.86371  0.56730  1.0000
  H   H483      1.0  0.04606  0.60083  0.72785  1.0000
  H   H484      1.0  0.11856  0.57009  0.59466  1.0000
  H   H485      1.0  0.03917  0.51447  0.67450  1.0000
  H   H486      1.0  0.37985  0.91395  0.65716  1.0000
  N   N28       1.0  0.40843  0.54149  0.71083  1.0000
  H   H487      1.0  0.06722  0.53597  0.59202  1.0000
  H   H488      1.0  0.39196  0.94985  0.65046  1.0000
  H   H489      1.0  0.11399  0.54669  0.64238  1.0000
  H   H490      1.0  0.20410  0.83127  0.72614  1.0000
  H   H491      1.0  0.41512  0.90215  0.65468  1.0000
  C   C403      1.0  0.12593  0.74516  0.50772  1.0000
  N   N29       1.0  0.45725  0.86473  0.53834  1.0000
  H   H492      1.0  0.02552  0.57600  0.51441  1.0000
  C   C404      1.0  0.06056  0.58520  0.67809  1.0000
  H   H493      1.0  0.48220  0.89434  0.55972  1.0000
  C   C405      1.0  0.44051  0.83387  0.53583  1.0000
  H   H494      1.0  0.39784  0.75180  0.52988  1.0000
  H   H495      1.0  0.37327  0.78182  0.52661  1.0000
  H   H496      1.0  0.25896  0.50063  0.72652  1.0000
  S   S122      1.0  0.32816  0.90846  0.74067  1.0000
  H   H497      1.0  0.10632  0.72547  0.50446  1.0000
  N   N30       1.0  0.07558  0.61776  0.70633  1.0000
  C   C406      1.0  0.10790  0.59421  0.63389  1.0000
  C   C407      1.0  0.19342  0.84727  0.52595  1.0000
  H   H498      1.0  0.43623  0.95582  0.60752  1.0000
  C   C408      1.0  0.05134  0.53896  0.69958  1.0000
  H   H499      1.0  0.12282  0.53992  0.60137  1.0000
  H   H500      1.0  0.09687  0.60935  0.72946  1.0000
  C   C409      1.0  0.44121  0.94611  0.61902  1.0000
  C   C410      1.0  0.17307  0.79790  0.51694  1.0000
  C   C411      1.0  0.44805  0.56160  0.61549  1.0000
  H   H501      1.0  0.38107  0.51229  0.68969  1.0000
  H   H502      1.0  0.21760  0.82443  0.52194  1.0000
  H   H503      1.0  0.04899  0.56174  0.60564  1.0000
  C   C412      1.0  0.37375  0.89123  0.62363  1.0000
  C   C413      1.0  0.06061  0.56566  0.70775  1.0000
  H   H504      1.0  0.04934  0.51767  0.61194  1.0000
  N   N31       1.0  0.11974  0.76918  0.51219  1.0000
  C   C414      1.0  0.44066  0.88076  0.53506  1.0000
  H   H505      1.0  0.39554  0.96082  0.61721  1.0000
  C   C415      1.0  0.44561  0.49863  0.53548  1.0000
  S   S123      1.0  0.46714  0.64194  0.55886  1.0000
  H   H506      1.0  0.25229  0.85701  0.73987  1.0000
  H   H507      1.0  0.46483  0.91252  0.65856  1.0000
  H   H508      1.0  0.43040  0.62661  0.61215  1.0000
  C   C416      1.0  0.04670  0.53530  0.68074  1.0000
  C   C417      1.0  0.10421  0.77318  0.49620  1.0000
  C   C418      1.0  0.19666  0.82338  0.52138  1.0000
  H   H509      1.0  0.04114  0.61347  0.51189  1.0000
  C   C419      1.0  0.21389  0.52781  0.73678  1.0000
  C   C420      1.0  0.05119  0.55835  0.67003  1.0000
  C   C421      1.0  0.19505  0.49509  0.71033  1.0000
  H   H510      1.0  0.38999  0.93314  0.60057  1.0000
  H   H511      1.0  0.35108  0.86701  0.73675  1.0000
  C   C422      1.0  0.40458  0.55901  0.72539  1.0000
  H   H512      1.0  0.24882  0.49482  0.61965  1.0000
  H   H513      1.0  0.44583  0.90336  0.73630  1.0000
  H   H514      1.0  0.04050  0.70447  0.50153  1.0000
  H   H515      1.0  0.11259  0.75915  0.54031  1.0000
  C   C423      1.0  0.39583  0.79144  0.52965  1.0000
  H   H516      1.0  0.04739  0.52098  0.70801  1.0000
  H   H517      1.0  0.35887  0.97694  0.51016  1.0000
  C   C424      1.0  0.38178  0.52871  0.69951  1.0000
  H   H518      1.0  0.39733  0.89396  0.74171  1.0000
  C   C425      1.0  0.43392  0.60745  0.61290  1.0000
  H   H519      1.0  0.07624  0.52597  0.64142  1.0000
  C   C426      1.0  0.24087  0.50507  0.72519  1.0000
  H   H520      1.0  0.37536  0.87742  0.63440  1.0000
  H   H521      1.0  0.43275  0.52728  0.72814  1.0000
  C   C427      1.0  0.14531  0.79577  0.51674  1.0000
  H   H522      1.0  0.04423  0.60358  0.61371  1.0000
  H   H523      1.0  0.46416  0.49596  0.54064  1.0000
  H   H524      1.0  0.22405  0.50316  0.56173  1.0000
  H   H525      1.0  0.44999  0.97299  0.55930  1.0000
  H   H526      1.0  0.41750  0.59237  0.62167  1.0000
  C   C428      1.0  0.43273  0.55750  0.69932  1.0000
  C   C429      1.0  0.14282  0.82062  0.52137  1.0000
  N   N32       1.0  0.46284  0.61414  0.62000  1.0000
  C   C430      1.0  0.06176  0.60068  0.61964  1.0000
  C   C431      1.0  0.45811  0.92189  0.64753  1.0000
  S   S124      1.0  0.15577  0.78268  0.73644  1.0000
  H   H527      1.0  0.06438  0.63911  0.68500  1.0000
  C   C432      1.0  0.06591  0.58974  0.69726  1.0000
  C   C433      1.0  0.46948  0.95140  0.62134  1.0000
  C   C434      1.0  0.41091  0.82072  0.53179  1.0000
  H   H528      1.0  0.04692  0.55534  0.65542  1.0000
  H   H529      1.0  0.36307  0.51757  0.70800  1.0000
  C   C435      1.0  0.10103  0.76106  0.52791  1.0000
  C   C436      1.0  0.05281  0.61762  0.71766  1.0000
  C   C437      1.0  0.21017  0.82310  0.73806  1.0000
  H   H530      1.0  0.34201  0.96722  0.69315  1.0000
  C   C438      1.0  0.46046  0.55901  0.67268  1.0000
  H   H531      1.0  0.41343  0.50322  0.70964  1.0000
  S   S125      1.0  0.10912  0.70111  0.73345  1.0000
  H   H532      1.0  0.21174  0.86669  0.53005  1.0000
  C   C439      1.0  0.10459  0.61825  0.63837  1.0000
  H   H533      1.0  0.38590  0.54653  0.73364  1.0000
  H   H534      1.0  0.43874  0.51803  0.61141  1.0000
  C   C440      1.0  0.10101  0.62433  0.71826  1.0000
  C   C441      1.0  0.16656  0.84589  0.52596  1.0000
  H   H535      1.0  0.03951  0.59948  0.53391  1.0000
  C   C442      1.0  0.43742  0.54452  0.68359  1.0000
  H   H536      1.0  0.17720  0.78008  0.51421  1.0000
  C   C443      1.0  0.45449  0.53875  0.61607  1.0000
  H   H537      1.0  0.06302  0.60197  0.66906  1.0000
  H   H538      1.0  0.48299  0.86124  0.56072  1.0000
  C   C444      1.0  0.34046  0.96648  0.66355  1.0000
  Fe  Fe64      1.0  0.30422  0.93274  0.73290  1.0000
  H   H539      1.0  0.42294  0.56777  0.73527  1.0000
  H   H540      1.0  0.05959  0.63798  0.72534  1.0000
  H   H541      1.0  0.08206  0.74049  0.52542  1.0000
  H   H542      1.0  0.43026  0.59844  0.59874  1.0000
  C   C445      1.0  0.45300  0.58567  0.70366  1.0000
  H   H543      1.0  0.34257  0.83036  0.73785  1.0000
  H   H544      1.0  0.45263  0.61174  0.64827  1.0000
  H   H545      1.0  0.11849  0.62406  0.71038  1.0000
  C   C446      1.0  0.47609  0.59989  0.69272  1.0000
  C   C447      1.0  0.00350  0.62264  0.53100  1.0000
  C   C448      1.0  0.23811  0.52372  0.73752  1.0000
  H   H546      1.0  0.42713  0.55703  0.61026  1.0000
  H   H547      1.0  0.45184  0.59715  0.71561  1.0000
  C   C449      1.0  0.08309  0.64112  0.69338  1.0000
  Fe  Fe65      1.0  0.06541  0.69717  0.73019  1.0000
  H   H548      1.0  0.39886  0.83252  0.53028  1.0000
  C   C450      1.0  0.06982  0.52692  0.60502  1.0000
  N   N33       1.0  0.09293  0.54805  0.61684  1.0000
  H   H549      1.0  0.03379  0.61432  0.70910  1.0000
  H   H550      1.0  0.36146  0.93211  0.61286  1.0000
  C   C451      1.0  0.11933  0.55784  0.60671  1.0000
  H   H551      1.0  0.42320  0.87492  0.54469  1.0000
  H   H552      1.0  0.09310  0.77666  0.53124  1.0000
  C   C452      1.0  0.48125  0.54262  0.62196  1.0000
  H   H553      1.0  0.36186  0.98279  0.66268  1.0000
  H   H554      1.0  0.99653  0.57784  0.54981  1.0000
  H   H555      1.0  0.45258  0.51399  0.52430  1.0000
  H   H556      1.0  0.47617  0.82432  0.54097  1.0000
  H   H557      1.0  0.17401  0.51716  0.72415  1.0000
  H   H558      1.0  0.46359  0.54857  0.66078  1.0000
  H   H559      1.0  0.13940  0.74945  0.49568  1.0000
  C   C453      1.0  0.46657  0.62719  0.63849  1.0000
  H   H560      1.0  0.45579  0.97296  0.74312  1.0000
  C   C454      1.0  0.48302  0.63518  0.60786  1.0000
  C   C455      1.0  0.01869  0.69058  0.49791  1.0000
  C   C456      1.0  0.47980  0.58662  0.67727  1.0000
  S   S126      1.0  0.10601  0.49451  0.73894  1.0000
  H   H561      1.0  0.47774  0.65292  0.60517  1.0000
  H   H562      1.0  0.19939  0.50279  0.67460  1.0000
  C   C457      1.0  0.48084  0.87515  0.52562  1.0000
  H   H563      1.0  0.09630  0.78897  0.49902  1.0000
  C   C458      1.0  0.47792  0.93937  0.63557  1.0000
  H   H564      1.0  0.48330  0.62547  0.59445  1.0000
  H   H565      1.0  0.40153  0.49256  0.51375  1.0000
  Fe  Fe66      1.0  0.03148  0.82043  0.91220  1.0000
  S   S127      1.0  0.07811  0.84942  0.91648  1.0000
  S   S128      1.0  0.02340  0.77582  0.91711  1.0000
  Fe  Fe67      1.0  0.06790  0.72092  0.76998  1.0000
  S   S129      1.0  0.11217  0.72591  0.77513  1.0000
  S   S130      1.0  0.04967  0.74308  0.78933  1.0000
  H   H566      1.0  0.07483  0.87389  0.98435  1.0000
  S   S131      1.0  0.11171  0.65056  0.76904  1.0000
  Fe  Fe68      1.0  0.09628  0.68298  0.76107  1.0000
  H   H567      1.0  0.06321  0.80700  0.88716  1.0000
  C   C459      1.0  0.01063  0.78394  0.98349  1.0000
  H   H568      1.0  0.11240  0.92790  0.94024  1.0000
  Fe  Fe69      1.0  0.35448  0.94526  0.75945  1.0000
  C   C460      1.0  0.08358  0.76907  0.88508  1.0000
  Fe  Fe70      1.0  0.29940  0.89303  0.76408  1.0000
  C   C461      1.0  0.01724  0.73834  0.84796  1.0000
  Fe  Fe71      1.0  0.99768  0.76543  0.89068  1.0000
  Fe  Fe72      1.0  0.30265  0.95036  0.77389  1.0000
  S   S132      1.0  0.32754  0.92768  0.78384  1.0000
  H   H569      1.0  0.07343  0.76765  0.89837  1.0000
  C   C462      1.0  0.27569  0.97430  0.81502  1.0000
  H   H570      1.0  0.46741  0.87622  0.75176  1.0000
  H   H571      1.0  0.40535  0.93205  0.78834  1.0000
  S   S133      1.0  0.04741  0.51707  0.75699  1.0000
  H   H572      1.0  0.10403  0.81365  0.90665  1.0000
  H   H573      1.0  0.43937  0.83798  0.77221  1.0000
  C   C463      1.0  0.44539  0.87092  0.75366  1.0000
  C   C464      1.0  0.08880  0.89461  0.97961  1.0000
  C   C465      1.0  0.29200  0.96940  0.82861  1.0000
  H   H574      1.0  0.13363  0.81143  0.89697  1.0000
  C   C466      1.0  0.46937  0.93642  0.77678  1.0000
  C   C467      1.0  0.23746  0.83782  0.74589  1.0000
  N   N34       1.0  0.35911  0.85357  0.76318  1.0000
  C   C468      1.0  0.42749  0.95262  0.76465  1.0000
  C   C469      1.0  0.42383  0.93710  0.78047  1.0000
  C   C470      1.0  0.44460  0.92893  0.78644  1.0000
  H   H575      1.0  0.17584  0.83689  0.84151  1.0000
  H   H576      1.0  0.08129  0.88166  0.95127  1.0000
  C   C471      1.0  0.46678  0.58768  0.76776  1.0000
  H   H577      1.0  0.10109  0.76754  0.81931  1.0000
  C   C472      1.0  0.42614  0.54090  0.76780  1.0000
  C   C473      1.0  0.40837  0.55294  0.77244  1.0000
  C   C474      1.0  0.41998  0.58239  0.77465  1.0000
  C   C475      1.0  0.44891  0.59969  0.77212  1.0000
  H   H578      1.0  0.06620  0.75454  0.87568  1.0000
  H   H579      1.0  0.37221  0.88331  0.78574  1.0000
  H   H580      1.0  0.40649  0.59195  0.77834  1.0000
  C   C476      1.0  0.12854  0.98632  0.94710  1.0000
  H   H581      1.0  0.03399  0.77945  0.81049  1.0000
  H   H582      1.0  0.01650  0.77754  0.84177  1.0000
  C   C477      1.0  0.24543  0.82772  0.76143  1.0000
  H   H583      1.0  0.18355  0.76858  0.76703  1.0000
  C   C478      1.0  0.19860  0.78774  0.76105  1.0000
  N   N35       1.0  0.09718  0.79843  0.87860  1.0000
  H   H584      1.0  0.13117  0.60809  0.76927  1.0000
  C   C479      1.0  0.09321  0.61339  0.76631  1.0000
  H   H585      1.0  0.12407  0.83930  0.89096  1.0000
  H   H586      1.0  0.02756  0.55935  0.75821  1.0000
  C   C480      1.0  0.06560  0.55408  0.76087  1.0000
  C   C481      1.0  0.05022  0.56992  0.76057  1.0000
  C   C482      1.0  0.06394  0.59943  0.76322  1.0000
  C   C483      1.0  0.03132  0.76202  0.81902  1.0000
  C   C484      1.0  0.11031  0.92563  0.95480  1.0000
  H   H587      1.0  0.36928  0.89784  0.76428  1.0000
  H   H588      1.0  0.05188  0.61138  0.76298  1.0000
  C   C485      1.0  0.09379  0.88454  0.90949  1.0000
  C   C486      1.0  0.07769  0.89850  0.90466  1.0000
  C   C487      1.0  0.09119  0.92717  0.90038  1.0000
  C   C488      1.0  0.12077  0.94189  0.90075  1.0000
  C   C489      1.0  0.13679  0.92765  0.90511  1.0000
  C   C490      1.0  0.12334  0.89915  0.90962  1.0000
  H   H589      1.0  0.05489  0.88741  0.90458  1.0000
  H   H590      1.0  0.07867  0.93806  0.89696  1.0000
  H   H591      1.0  0.15953  0.93862  0.90518  1.0000
  H   H592      1.0  0.13591  0.88846  0.91337  1.0000
  H   H593      1.0  0.32145  0.82546  0.77660  1.0000
  C   C491      1.0  0.03745  0.74056  0.81205  1.0000
  C   C492      1.0  0.03346  0.71800  0.82324  1.0000
  C   C493      1.0  0.02325  0.71684  0.84097  1.0000
  H   H594      1.0  0.03794  0.70125  0.81816  1.0000
  H   H595      1.0  0.35353  0.83212  0.78869  1.0000
  H   H596      1.0  0.11074  0.85514  0.81227  1.0000
  S   S134      1.0  0.27873  0.84754  0.77232  1.0000
  H   H597      1.0  0.08416  0.82960  0.86988  1.0000
  C   C494      1.0  0.02144  0.76104  0.83682  1.0000
  H   H598      1.0  0.05915  0.79388  0.86427  1.0000
  C   C495      1.0  0.09485  0.56802  0.76399  1.0000
  C   C496      1.0  0.11574  0.81649  0.89386  1.0000
  S   S135      1.0  0.27341  0.91453  0.75531  1.0000
  H   H599      1.0  0.46884  0.54865  0.76230  1.0000
  H   H600      1.0  0.33820  0.87569  0.77576  1.0000
  H   H601      1.0  0.15269  0.83605  0.86968  1.0000
  C   C497      1.0  0.10852  0.59749  0.76682  1.0000
  S   S136      1.0  0.05146  0.67673  0.75747  1.0000
  C   C498      1.0  0.14012  0.80207  0.82877  1.0000
  H   H602      1.0  0.45746  0.62230  0.77392  1.0000
  C   C499      1.0  0.22616  0.80235  0.76880  1.0000
  H   H603      1.0  0.21179  0.88897  0.75331  1.0000
  H   H604      1.0  0.15067  0.80271  0.81622  1.0000
  C   C500      1.0  0.11235  0.79996  0.86168  1.0000
  C   C501      1.0  0.09849  0.78125  0.84668  1.0000
  H   H605      1.0  0.41761  0.51829  0.76614  1.0000
  C   C502      1.0  0.07499  0.80762  0.87475  1.0000
  H   H606      1.0  0.02002  0.69909  0.84935  1.0000
  H   H607      1.0  0.10698  0.55614  0.76431  1.0000
  C   C503      1.0  0.45520  0.55818  0.76563  1.0000
  C   C504      1.0  0.12527  0.94882  0.96705  1.0000
  N   N36       1.0  0.19088  0.87288  0.77847  1.0000
  C   C505      1.0  0.20924  0.85958  0.78386  1.0000
  C   C506      1.0  0.19051  0.87514  0.75831  1.0000
  C   C507      1.0  0.20400  0.90200  0.78643  1.0000
  C   C508      1.0  0.16186  0.85522  0.78441  1.0000
  C   C509      1.0  0.14619  0.82734  0.77719  1.0000
  C   C510      1.0  0.14838  0.86475  0.79739  1.0000
  C   C511      1.0  0.11859  0.81038  0.78225  1.0000
  C   C512      1.0  0.12075  0.84749  0.80243  1.0000
  C   C513      1.0  0.10584  0.82047  0.79477  1.0000
  H   H608      1.0  0.21010  0.85745  0.79890  1.0000
  H   H609      1.0  0.20171  0.83823  0.77761  1.0000
  H   H610      1.0  0.23130  0.87198  0.77953  1.0000
  H   H611      1.0  0.41508  0.50050  0.81198  1.0000
  H   H612      1.0  0.17593  0.88391  0.75365  1.0000
  H   H613      1.0  0.10693  0.78927  0.77634  1.0000
  H   H614      1.0  0.20660  0.90222  0.80155  1.0000
  H   H615      1.0  0.22565  0.91473  0.78142  1.0000
  H   H616      1.0  0.19154  0.91354  0.78269  1.0000
  H   H617      1.0  0.15506  0.81838  0.76743  1.0000
  H   H618      1.0  0.15864  0.88547  0.80377  1.0000
  S   S137      1.0  0.21268  0.98756  0.91395  1.0000
  C   C514      1.0  0.35974  0.87868  0.77261  1.0000
  H   H619      1.0  0.08440  0.80712  0.79859  1.0000
  C   C515      1.0  0.12126  0.94361  0.98599  1.0000
  C   C516      1.0  0.45252  0.96055  0.75521  1.0000
  H   H620      1.0  0.34235  0.80924  0.76845  1.0000
  C   C517      1.0  0.16727  0.97430  0.95013  1.0000
  H   H621      1.0  0.02157  0.79627  0.97206  1.0000
  S   S138      1.0  0.37184  0.53219  0.77606  1.0000
  H   H622      1.0  0.44152  0.91687  0.79866  1.0000
  C   C518      1.0  0.15422  0.82126  0.84303  1.0000
  H   H623      1.0  0.14502  0.87281  0.99308  1.0000
  C   C519      1.0  0.09241  0.89900  0.96101  1.0000
  N   N37       1.0  0.14439  0.97668  0.95999  1.0000
  C   C520      1.0  0.14063  0.82042  0.85926  1.0000
  C   C521      1.0  0.11224  0.78222  0.83055  1.0000
  S   S139      1.0  0.00435  0.73551  0.87051  1.0000
  S   S140      1.0  0.00733  0.81026  0.88523  1.0000
  H   H624      1.0  0.17935  0.96640  0.95910  1.0000
  H   H625      1.0  0.99928  0.49730  0.78249  1.0000
  H   H626      1.0  0.18368  0.85450  0.75110  1.0000
  H   H627      1.0  0.09918  0.76047  0.88679  1.0000
  H   H628      1.0  0.15919  0.96000  0.93792  1.0000
  H   H629      1.0  0.23224  0.79440  0.78080  1.0000
  H   H630      1.0  0.07679  0.76575  0.84723  1.0000
  S   S141      1.0  0.27935  0.96964  0.79115  1.0000
  C   C522      1.0  0.38842  0.85868  0.75976  1.0000
  H   H631      1.0  0.32026  0.84388  0.74781  1.0000
  S   S142      1.0  0.40233  0.96400  0.75670  1.0000
  H   H632      1.0  0.39054  0.82660  0.77760  1.0000
  C   C523      1.0  0.42955  0.84948  0.76527  1.0000
  S   S143      1.0  0.99489  0.81728  0.92850  1.0000
  C   C524      1.0  0.34362  0.82896  0.77473  1.0000
  H   H633      1.0  0.11993  0.97219  0.93484  1.0000
  S   S144      1.0  0.13698  0.97831  0.89672  1.0000
  C   C525      1.0  0.40143  0.84325  0.76830  1.0000
  C   C526      1.0  0.27047  0.98546  0.85261  1.0000
  H   H634      1.0  0.98958  0.49623  0.80555  1.0000
  H   H635      1.0  0.40033  0.49657  0.83373  1.0000
  H   H636      1.0  0.30261  0.97164  0.85747  1.0000
  C   C527      1.0  0.25642  0.98438  0.82045  1.0000
  C   C528      1.0  0.47334  0.95245  0.76118  1.0000
  H   H637      1.0  0.30698  0.96176  0.82478  1.0000
  C   C529      1.0  0.40528  0.88049  0.74809  1.0000
  S   S145      1.0  0.33166  0.97081  0.75059  1.0000
  Fe  Fe73      1.0  0.12061  0.74301  0.74692  1.0000
  H   H638      1.0  0.11049  0.98752  0.95373  1.0000
  C   C530      1.0  0.28950  0.97510  0.84719  1.0000
  H   H639      1.0  0.24372  0.98838  0.81015  1.0000
  C   C531      1.0  0.10316  0.91685  0.99207  1.0000
  C   C532      1.0  0.25367  0.98974  0.83906  1.0000
  H   H640      1.0  0.23148  0.98727  0.97557  1.0000
  H   H641      1.0  0.25418  0.53403  0.74822  1.0000
  H   H642      1.0  0.21842  0.49874  0.78516  1.0000
  C   C533      1.0  0.19051  0.79835  0.74577  1.0000
  C   C534      1.0  0.43319  0.88620  0.74496  1.0000
  H   H643      1.0  0.21115  0.54118  0.74704  1.0000
  C   C535      1.0  0.34266  0.84850  0.74564  1.0000
  H   H644      1.0  0.04017  0.49235  0.79351  1.0000
  Fe  Fe74      1.0  0.78038  0.07461  0.09357  1.0000
  S   S146      1.0  0.73624  0.06788  0.08645  1.0000
  S   S147      1.0  0.80955  0.12156  0.09384  1.0000
  Fe  Fe75      1.0  0.72322  0.03879  0.11007  1.0000
  S   S148      1.0  0.68974  0.04360  0.12729  1.0000
  Fe  Fe76      1.0  0.73219  0.03167  0.06862  1.0000
  S   S149      1.0  0.70922  0.01722  0.04069  1.0000
  S   S150      1.0  0.76770  0.04684  0.11793  1.0000
  S   S151      1.0  0.77721  0.04033  0.07390  1.0000
  Fe  Fe77      1.0  0.66861  0.10448  0.22735  1.0000
  S   S152      1.0  0.64466  0.12639  0.21489  1.0000
  S   S153      1.0  0.69191  0.08478  0.21057  1.0000
  C   C536      1.0  0.75825  0.12293  0.13094  1.0000
  H   H645      1.0  0.71575  0.12793  0.08720  1.0000
  H   H646      1.0  0.65166  0.05798  0.14721  1.0000
  H   H647      1.0  0.62054  0.46012  0.22591  1.0000
  H   H648      1.0  0.92699  0.44575  0.16005  1.0000
  S   S154      1.0  0.71521  0.00124  0.09153  1.0000
  H   H649      1.0  0.72448  0.10630  0.03211  1.0000
  C   C537      1.0  0.54413  0.47897  0.21627  1.0000
  C   C538      1.0  0.70802  0.11331  0.07560  1.0000
  C   C539      1.0  0.55600  0.13503  0.23192  1.0000
  S   S155      1.0  0.94795  0.30814  0.11422  1.0000
  Fe  Fe78      1.0  0.96665  0.22850  0.09517  1.0000
  S   S156      1.0  0.94313  0.18386  0.10500  1.0000
  S   S157      1.0  0.94747  0.25207  0.07952  1.0000
  Fe  Fe79      1.0  0.91554  0.35167  0.21507  1.0000
  S   S158      1.0  0.87168  0.34093  0.20454  1.0000
  S   S159      1.0  0.94949  0.34981  0.19701  1.0000
  C   C540      1.0  0.77714  0.26855  0.22342  1.0000
  C   C541      1.0  0.50209  0.47284  0.23212  1.0000
  Fe  Fe80      1.0  0.87557  0.37791  0.22209  1.0000
  S   S160      1.0  0.86069  0.40986  0.21237  1.0000
  H   H650      1.0  0.50535  0.44018  0.21623  1.0000
  H   H651      1.0  0.53348  0.06422  0.20479  1.0000
  H   H652      1.0  0.70419  0.12539  0.15272  1.0000
  H   H653      1.0  0.87414  0.27620  0.20102  1.0000
  C   C542      1.0  0.94772  0.31751  0.13771  1.0000
  C   C543      1.0  0.78061  0.13896  0.14303  1.0000
  H   H654      1.0  0.91818  0.44774  0.22556  1.0000
  C   C544      1.0  0.94738  0.33610  0.17431  1.0000
  C   C545      1.0  0.92491  0.33138  0.16198  1.0000
  C   C546      1.0  0.92524  0.32240  0.14380  1.0000
  H   H655      1.0  0.90757  0.33521  0.16630  1.0000
  H   H656      1.0  0.90813  0.31964  0.13431  1.0000
  Fe  Fe81      1.0  0.76059  0.01134  0.09758  1.0000
  H   H657      1.0  0.70043  0.13018  0.18387  1.0000
  C   C547      1.0  0.68476  0.08708  0.07726  1.0000
  H   H658      1.0  0.62108  0.05701  0.06493  1.0000
  C   C548      1.0  0.51402  0.06573  0.20175  1.0000
  C   C549      1.0  0.96371  0.42917  0.19241  1.0000
  H   H659      1.0  0.64422  0.45354  0.21167  1.0000
  H   H660      1.0  0.70506  0.16111  0.17138  1.0000
  H   H661      1.0  0.90864  0.40859  0.19286  1.0000
  S   S161      1.0  0.69573  0.20828  0.22358  1.0000
  H   H662      1.0  0.63127  0.05009  0.08725  1.0000
  C   C550      1.0  0.84676  0.13740  0.09599  1.0000
  C   C551      1.0  0.86154  0.12342  0.10337  1.0000
  C   C552      1.0  0.89115  0.13773  0.10593  1.0000
  C   C553      1.0  0.90613  0.16589  0.10088  1.0000
  C   C554      1.0  0.89130  0.17960  0.09324  1.0000
  C   C555      1.0  0.86177  0.16553  0.09100  1.0000
  H   H663      1.0  0.85013  0.10177  0.10736  1.0000
  H   H664      1.0  0.90242  0.12691  0.11185  1.0000
  H   H665      1.0  0.90244  0.20114  0.08922  1.0000
  H   H666      1.0  0.85048  0.17646  0.08526  1.0000
  C   C556      1.0  0.71969  0.03359  0.01938  1.0000
  C   C557      1.0  0.74150  0.06081  0.01800  1.0000
  H   H667      1.0  0.49271  0.11398  0.18841  1.0000
  H   H668      1.0  0.75260  0.07260  0.03024  1.0000
  H   H669      1.0  0.78330  0.19781  0.17990  1.0000
  C   C558      1.0  0.69105  0.05542  0.15046  1.0000
  C   C559      1.0  0.71323  0.05941  0.16284  1.0000
  C   C560      1.0  0.71295  0.06818  0.18109  1.0000
  C   C561      1.0  0.69085  0.07365  0.18725  1.0000
  C   C562      1.0  0.66898  0.07026  0.17475  1.0000
  C   C563      1.0  0.66899  0.06100  0.15658  1.0000
  H   H670      1.0  0.73038  0.05529  0.15846  1.0000
  H   H671      1.0  0.72999  0.07059  0.19055  1.0000
  H   H672      1.0  0.65174  0.07421  0.17918  1.0000
  H   H673      1.0  0.96423  0.40980  0.19773  1.0000
  S   S162      1.0  0.90172  0.32517  0.24000  1.0000
  C   C564      1.0  0.73106  0.11877  0.13460  1.0000
  C   C565      1.0  0.87845  0.44668  0.21713  1.0000
  C   C566      1.0  0.86379  0.46299  0.21462  1.0000
  C   C567      1.0  0.71383  0.15320  0.18267  1.0000
  C   C568      1.0  0.76015  0.19078  0.17944  1.0000
  C   C569      1.0  0.91976  0.48912  0.22762  1.0000
  C   C570      1.0  0.75378  0.14944  0.19610  1.0000
  H   H674      1.0  0.75454  0.19897  0.16684  1.0000
  H   H675      1.0  0.96850  0.29922  0.01826  1.0000
  H   H676      1.0  0.71121  0.16313  0.19550  1.0000
  H   H677      1.0  0.76970  0.03286  0.99523  1.0000
  H   H678      1.0  0.74850  0.15648  0.20916  1.0000
  H   H679      1.0  0.74365  0.12600  0.19605  1.0000
  N   N38       1.0  0.65045  0.03916  0.06471  1.0000
  C   C571      1.0  0.68971  0.07488  0.04610  1.0000
  Fe  Fe82      1.0  0.97258  0.28758  0.09994  1.0000
  H   H680      1.0  0.97505  0.37846  0.11872  1.0000
  C   C572      1.0  0.67463  0.06714  0.06246  1.0000
  H   H681      1.0  0.60731  0.02173  0.07322  1.0000
  H   H682      1.0  0.95645  0.43806  0.20381  1.0000
  H   H683      1.0  0.74533  0.99838  0.01468  1.0000
  C   C573      1.0  0.74740  0.25461  0.22220  1.0000
  H   H684      1.0  0.76197  0.11334  0.11882  1.0000
  H   H685      1.0  0.74065  0.14031  0.05824  1.0000
  C   C574      1.0  0.95417  0.41174  0.16018  1.0000
  H   H686      1.0  0.93724  0.45850  0.18285  1.0000
  H   H687      1.0  0.62065  0.00248  0.04916  1.0000
  H   H688      1.0  0.80161  0.14169  0.14010  1.0000
  N   N39       1.0  0.94477  0.42280  0.17587  1.0000
  H   H689      1.0  0.67556  0.08208  0.09048  1.0000
  H   H690      1.0  0.91674  0.38131  0.18397  1.0000
  C   C575      1.0  0.74873  0.07298  0.00075  1.0000
  C   C576      1.0  0.96965  0.33083  0.16828  1.0000
  C   C577      1.0  0.71304  0.10111  0.04464  1.0000
  C   C578      1.0  0.53690  0.14657  0.22891  1.0000
  H   H691      1.0  0.67723  0.01965  0.07135  1.0000
  C   C579      1.0  0.79241  0.25309  0.22631  1.0000
  N   N40       1.0  0.89151  0.22927  0.13977  1.0000
  C   C580      1.0  0.92129  0.23472  0.13746  1.0000
  C   C581      1.0  0.87421  0.19830  0.14018  1.0000
  C   C582      1.0  0.88262  0.24012  0.12350  1.0000
  C   C583      1.0  0.88731  0.24253  0.15655  1.0000
  C   C584      1.0  0.90969  0.25864  0.16931  1.0000
  C   C585      1.0  0.85996  0.23925  0.16066  1.0000
  C   C586      1.0  0.90475  0.27035  0.18519  1.0000
  C   C587      1.0  0.85535  0.25127  0.17652  1.0000
  C   C588      1.0  0.87771  0.26675  0.18877  1.0000
  H   H692      1.0  0.92925  0.22628  0.14888  1.0000
  H   H693      1.0  0.92372  0.22450  0.12471  1.0000
  H   H694      1.0  0.93538  0.25764  0.13637  1.0000
  H   H695      1.0  0.87807  0.18735  0.12835  1.0000
  H   H696      1.0  0.85121  0.19208  0.13961  1.0000
  H   H697      1.0  0.87921  0.18958  0.15276  1.0000
  H   H698      1.0  0.89410  0.26352  0.12330  1.0000
  H   H699      1.0  0.88708  0.23192  0.11056  1.0000
  H   H700      1.0  0.85969  0.23417  0.12294  1.0000
  H   H701      1.0  0.93133  0.26298  0.16725  1.0000
  H   H702      1.0  0.84200  0.22749  0.15154  1.0000
  H   H703      1.0  0.92218  0.28295  0.19462  1.0000
  H   H704      1.0  0.93453  0.38953  0.11550  1.0000
  H   H705      1.0  0.76538  0.09420  0.99984  1.0000
  N   N41       1.0  0.74383  0.15972  0.18001  1.0000
  H   H706      1.0  0.77696  0.15677  0.19666  1.0000
  C   C589      1.0  0.72216  0.12028  0.05933  1.0000
  H   H707      1.0  0.66685  0.03299  0.09071  1.0000
  C   C590      1.0  0.90658  0.45993  0.22361  1.0000
  Fe  Fe83      1.0  0.85781  0.31594  0.22992  1.0000
  C   C591      1.0  0.94319  0.44916  0.17101  1.0000
  H   H708      1.0  0.61422  0.49031  0.20570  1.0000
  H   H709      1.0  0.63623  0.48600  0.18925  1.0000
  H   H710      1.0  0.90021  0.39718  0.16960  1.0000
  C   C592      1.0  0.91636  0.40159  0.18077  1.0000
  C   C593      1.0  0.77582  0.15088  0.15887  1.0000
  S   S163      1.0  0.82939  0.26904  0.22891  1.0000
  H   H711      1.0  0.92067  0.40963  0.14120  1.0000
  H   H712      1.0  0.96386  0.46520  0.16633  1.0000
  C   C594      1.0  0.62657  0.04224  0.07284  1.0000
  C   C595      1.0  0.70548  0.01864  0.00331  1.0000
  H   H713      1.0  0.55448  0.47042  0.20738  1.0000
  H   H714      1.0  0.53535  0.10870  0.19379  1.0000
  C   C596      1.0  0.93903  0.40593  0.14310  1.0000
  H   H715      1.0  0.78817  0.29117  0.22226  1.0000
  H   H716      1.0  0.63380  0.03483  0.03704  1.0000
  C   C597      1.0  0.72594  0.13033  0.15048  1.0000
  C   C598      1.0  0.65943  0.02253  0.07705  1.0000
  C   C599      1.0  0.74827  0.14685  0.16313  1.0000
  S   S164      1.0  0.92038  0.39040  0.23108  1.0000
  C   C600      1.0  0.51623  0.46175  0.22128  1.0000
  C   C601      1.0  0.96971  0.32133  0.15020  1.0000
  C   C602      1.0  0.64312  0.46785  0.22249  1.0000
  H   H717      1.0  0.54418  0.16695  0.22278  1.0000
  H   H718      1.0  0.84204  0.45296  0.20957  1.0000
  H   H719      1.0  0.73762  0.18758  0.22775  1.0000
  C   C603      1.0  0.94674  0.39438  0.12830  1.0000
  H   H720      1.0  0.75581  0.20147  0.19120  1.0000
  H   H721      1.0  0.71364  0.10561  0.12537  1.0000
  C   C604      1.0  0.74838  0.21003  0.22667  1.0000
  C   C605      1.0  0.63963  0.02278  0.04725  1.0000
  H   H722      1.0  0.57769  0.14645  0.22806  1.0000
  H   H723      1.0  0.79377  0.16298  0.16792  1.0000
  H   H724      1.0  0.68444  0.06081  0.03434  1.0000
  H   H725      1.0  0.83444  0.24886  0.17940  1.0000
  C   C606      1.0  0.49935  0.10552  0.24139  1.0000
  H   H726      1.0  0.73557  0.26659  0.22010  1.0000
  H   H727      1.0  0.48751  0.02385  0.21013  1.0000
  C   C607      1.0  0.77794  0.22379  0.22770  1.0000
  C   C608      1.0  0.73294  0.22531  0.22408  1.0000
  H   H728      1.0  0.97341  0.15641  0.12965  1.0000
  Fe  Fe84      1.0  0.67366  0.16325  0.23290  1.0000
  Fe  Fe85      1.0  0.61730  0.11237  0.23950  1.0000
  H   H729      1.0  0.65543  0.01689  0.04129  1.0000
  C   C609      1.0  0.49015  0.09350  0.19243  1.0000
  H   H730      1.0  0.65401  0.46539  0.23502  1.0000
  C   C610      1.0  0.54675  0.10835  0.23931  1.0000
  C   C611      1.0  0.96967  0.38828  0.13003  1.0000
  C   C612      1.0  0.97744  0.40517  0.16148  1.0000
  C   C613      1.0  0.51502  0.09081  0.19551  1.0000
  H   H731      1.0  0.78967  0.21173  0.22989  1.0000
  C   C614      1.0  0.50846  0.13188  0.23350  1.0000
  H   H732      1.0  0.68845  0.99764  0.00420  1.0000
  S   S165      1.0  0.56921  0.09160  0.24157  1.0000
  C   C615      1.0  0.48809  0.04309  0.20486  1.0000
  H   H733      1.0  0.64205  0.00123  0.07927  1.0000
  C   C616      1.0  0.97513  0.29088  0.00684  1.0000
  C   C617      1.0  0.51838  0.09379  0.24417  1.0000
  C   C618      1.0  0.98503  0.39377  0.14654  1.0000
  H   H734      1.0  0.98562  0.44482  0.18963  1.0000
  Fe  Fe86      1.0  0.66743  0.12779  0.26683  1.0000
  C   C619      1.0  0.59737  0.02112  0.49098  1.0000
  S   S166      1.0  0.68180  0.14228  0.29653  1.0000
  C   C620      1.0  0.58646  0.07934  0.33270  1.0000
  Fe  Fe87      1.0  0.66209  0.10379  0.40100  1.0000
  S   S167      1.0  0.65238  0.14044  0.39884  1.0000
  S   S168      1.0  0.67196  0.08696  0.37467  1.0000
  Fe  Fe88      1.0  0.64386  0.09360  0.44205  1.0000
  S   S169      1.0  0.63423  0.13104  0.44156  1.0000
  S   S170      1.0  0.62178  0.06027  0.46405  1.0000
  Fe  Fe89      1.0  0.61362  0.11467  0.41403  1.0000
  S   S171      1.0  0.56893  0.10202  0.40366  1.0000
  Fe  Fe90      1.0  0.67467  0.15356  0.42646  1.0000
  S   S172      1.0  0.70149  0.20127  0.42900  1.0000
  S   S173      1.0  0.62186  0.07698  0.41467  1.0000
  S   S174      1.0  0.68611  0.11730  0.42833  1.0000
  Fe  Fe91      1.0  0.90155  0.36236  0.25499  1.0000
  H   H735      1.0  0.56767  0.05577  0.44767  1.0000
  S   S175      1.0  0.91769  0.38195  0.28361  1.0000
  H   H736      1.0  0.51080  0.16898  0.37339  1.0000
  H   H737      1.0  0.49485  0.46645  0.36624  1.0000
  Fe  Fe92      1.0  0.86748  0.38088  0.41568  1.0000
  S   S176      1.0  0.90994  0.39237  0.40415  1.0000
  S   S177      1.0  0.84308  0.40618  0.41122  1.0000
  Fe  Fe93      1.0  0.85941  0.32256  0.42683  1.0000
  S   S178      1.0  0.90162  0.33031  0.41622  1.0000
  S   S179      1.0  0.83421  0.27920  0.43871  1.0000
  Fe  Fe94      1.0  0.91818  0.37334  0.43004  1.0000
  S   S180      1.0  0.96066  0.39547  0.44660  1.0000
  Fe  Fe95      1.0  0.88965  0.34847  0.39157  1.0000
  S   S181      1.0  0.88601  0.32923  0.36278  1.0000
  S   S182      1.0  0.87653  0.36444  0.44199  1.0000
  S   S183      1.0  0.84673  0.33829  0.40180  1.0000
  H   H738      1.0  0.81908  0.27079  0.40046  1.0000
  H   H739      1.0  0.51527  0.24725  0.43160  1.0000
  S   S184      1.0  0.49866  0.41425  0.44564  1.0000
  C   C621      1.0  0.51920  0.44506  0.43383  1.0000
  S   S185      1.0  0.64417  0.15141  0.25606  1.0000
  C   C622      1.0  0.90733  0.36704  0.30545  1.0000
  C   C623      1.0  0.88996  0.33832  0.30754  1.0000
  C   C624      1.0  0.88340  0.32728  0.32516  1.0000
  C   C625      1.0  0.89369  0.34478  0.34092  1.0000
  C   C626      1.0  0.91044  0.37363  0.33882  1.0000
  C   C627      1.0  0.91734  0.38461  0.32121  1.0000
  H   H740      1.0  0.88222  0.32449  0.29561  1.0000
  H   H741      1.0  0.87060  0.30492  0.32657  1.0000
  H   H742      1.0  0.91887  0.38730  0.35077  1.0000
  H   H743      1.0  0.93100  0.40680  0.31981  1.0000
  C   C628      1.0  0.73864  0.22204  0.43097  1.0000
  C   C629      1.0  0.74994  0.25081  0.42700  1.0000
  C   C630      1.0  0.77920  0.26840  0.42880  1.0000
  C   C631      1.0  0.79744  0.25753  0.43511  1.0000
  C   C632      1.0  0.78621  0.22877  0.43903  1.0000
  C   C633      1.0  0.75700  0.21101  0.43677  1.0000
  H   H744      1.0  0.73591  0.25954  0.42251  1.0000
  H   H745      1.0  0.78754  0.29045  0.42564  1.0000
  H   H746      1.0  0.80012  0.22013  0.44390  1.0000
  H   H747      1.0  0.74861  0.18895  0.43990  1.0000
  C   C634      1.0  0.54985  0.11768  0.41402  1.0000
  C   C635      1.0  0.52045  0.10258  0.41415  1.0000
  C   C636      1.0  0.84236  0.24503  0.36591  1.0000
  C   C637      1.0  0.51721  0.14348  0.42662  1.0000
  C   C638      1.0  0.54676  0.15830  0.42712  1.0000
  C   C639      1.0  0.56312  0.14536  0.42092  1.0000
  H   H748      1.0  0.51017  0.08093  0.40918  1.0000
  H   H749      1.0  0.53758  0.12148  0.46447  1.0000
  H   H750      1.0  0.58587  0.15713  0.42086  1.0000
  C   C640      1.0  0.54767  0.05651  0.48114  1.0000
  H   H751      1.0  0.55431  0.03914  0.32146  1.0000
  S   S186      1.0  0.63941  0.08770  0.25109  1.0000
  H   H752      1.0  0.79217  0.30604  0.46035  1.0000
  S   S187      1.0  0.49703  0.16085  0.43272  1.0000
  C   C641      1.0  0.76932  0.16762  0.37536  1.0000
  H   H753      1.0  0.86987  0.31379  0.49270  1.0000
  H   H754      1.0  0.55081  0.47291  0.34937  1.0000
  C   C642      1.0  0.74867  0.19555  0.38850  1.0000
  H   H755      1.0  0.54133  0.03798  0.35024  1.0000
  C   C643      1.0  0.67788  0.12577  0.31792  1.0000
  C   C644      1.0  0.68104  0.14200  0.33389  1.0000
  C   C645      1.0  0.67926  0.13045  0.35127  1.0000
  C   C646      1.0  0.67481  0.10256  0.35297  1.0000
  C   C647      1.0  0.67197  0.08640  0.33700  1.0000
  C   C648      1.0  0.67306  0.09777  0.31956  1.0000
  H   H756      1.0  0.68457  0.16361  0.33281  1.0000
  H   H757      1.0  0.68147  0.14322  0.36334  1.0000
  H   H758      1.0  0.66870  0.06486  0.33812  1.0000
  H   H759      1.0  0.67085  0.08508  0.30742  1.0000
  C   C649      1.0  0.82696  0.26963  0.38680  1.0000
  C   C650      1.0  0.50805  0.45132  0.41801  1.0000
  C   C651      1.0  0.79572  0.19119  0.37575  1.0000
  C   C652      1.0  0.91189  0.44477  0.27087  1.0000
  C   C653      1.0  0.88365  0.46970  0.37615  1.0000
  C   C654      1.0  0.88050  0.45111  0.43255  1.0000
  C   C655      1.0  0.85697  0.44063  0.42050  1.0000
  C   C656      1.0  0.84393  0.45775  0.41583  1.0000
  H   H760      1.0  0.86005  0.41784  0.25470  1.0000
  H   H761      1.0  0.89057  0.43797  0.43628  1.0000
  H   H762      1.0  0.82552  0.44957  0.40665  1.0000
  H   H763      1.0  0.92110  0.46347  0.26217  1.0000
  H   H764      1.0  0.53106  0.03438  0.48059  1.0000
  H   H765      1.0  0.62073  0.12219  0.33694  1.0000
  C   C657      1.0  0.93218  0.47854  0.37254  1.0000
  H   H766      1.0  0.60039  0.08511  0.37920  1.0000
  C   C658      1.0  0.54643  0.46388  0.44040  1.0000
  H   H767      1.0  0.82896  0.24537  0.35403  1.0000
  C   C659      1.0  0.50325  0.28076  0.43589  1.0000
  C   C660      1.0  0.95358  0.38524  0.48410  1.0000
  H   H768      1.0  0.88924  0.41528  0.29994  1.0000
  C   C661      1.0  0.74587  0.16978  0.38177  1.0000
  H   H769      1.0  0.48731  0.43692  0.41267  1.0000
  H   H770      1.0  0.49163  0.09358  0.38067  1.0000
  H   H771      1.0  0.77561  0.23835  0.39470  1.0000
  H   H772      1.0  0.81398  0.27388  0.37625  1.0000
  C   C662      1.0  0.49994  0.25317  0.43728  1.0000
  H   H773      1.0  0.49401  0.47047  0.31702  1.0000
  H   H774      1.0  0.78121  0.33608  0.44033  1.0000
  H   H775      1.0  0.55720  0.05406  0.28983  1.0000
  C   C663      1.0  0.50127  0.14807  0.37984  1.0000
  N   N42       1.0  0.48732  0.31831  0.44134  1.0000
  C   C664      1.0  0.80415  0.32846  0.46266  1.0000
  H   H776      1.0  0.72560  0.15126  0.38185  1.0000
  C   C665      1.0  0.88964  0.46628  0.28969  1.0000
  C   C666      1.0  0.97150  0.40053  0.47037  1.0000
  H   H777      1.0  0.59593  0.11015  0.36512  1.0000
  C   C667      1.0  0.79930  0.21793  0.38229  1.0000
  H   H778      1.0  0.73045  0.19696  0.39392  1.0000
  C   C668      1.0  0.62210  0.04433  0.48558  1.0000
  C   C669      1.0  0.84463  0.23823  0.39831  1.0000
  C   C670      1.0  0.50419  0.11539  0.42050  1.0000
  H   H779      1.0  0.86249  0.26489  0.36573  1.0000
  H   H780      1.0  0.92787  0.44733  0.28187  1.0000
  H   H781      1.0  0.61705  0.05619  0.34811  1.0000
  C   C671      1.0  0.89080  0.47854  0.44000  1.0000
  H   H782      1.0  0.49302  0.12385  0.46469  1.0000
  C   C672      1.0  0.54730  0.05719  0.44827  1.0000
  H   H783      1.0  0.57265  0.11258  0.47833  1.0000
  H   H784      1.0  0.84362  0.43411  0.26861  1.0000
  C   C673      1.0  0.84071  0.37022  0.47768  1.0000
  H   H785      1.0  0.50512  0.32397  0.41461  1.0000
  H   H786      1.0  0.86604  0.25637  0.39989  1.0000
  N   N43       1.0  0.75053  0.22606  0.28472  1.0000
  C   C674      1.0  0.75469  0.20122  0.27922  1.0000
  C   C675      1.0  0.72065  0.21974  0.28057  1.0000
  C   C676      1.0  0.76832  0.24979  0.27319  1.0000
  C   C677      1.0  0.75723  0.23215  0.30451  1.0000
  C   C678      1.0  0.74170  0.21179  0.31737  1.0000
  C   C679      1.0  0.77907  0.25802  0.31162  1.0000
  C   C680      1.0  0.74697  0.21722  0.33614  1.0000
  C   C681      1.0  0.78413  0.26329  0.33044  1.0000
  C   C682      1.0  0.76788  0.24306  0.34264  1.0000
  H   H787      1.0  0.73995  0.18170  0.28592  1.0000
  H   H788      1.0  0.75077  0.19661  0.26428  1.0000
  H   H789      1.0  0.77659  0.20459  0.28268  1.0000
  H   H790      1.0  0.70555  0.20057  0.28737  1.0000
  H   H791      1.0  0.71507  0.21567  0.26567  1.0000
  H   H792      1.0  0.71628  0.23750  0.28494  1.0000
  H   H793      1.0  0.79102  0.25449  0.27442  1.0000
  H   H794      1.0  0.76204  0.24490  0.25856  1.0000
  H   H795      1.0  0.76600  0.26916  0.27643  1.0000
  H   H796      1.0  0.72524  0.19147  0.31297  1.0000
  H   H797      1.0  0.79250  0.27461  0.30297  1.0000
  H   H798      1.0  0.73460  0.20130  0.34566  1.0000
  H   H799      1.0  0.80068  0.28330  0.33557  1.0000
  H   H800      1.0  0.77138  0.24742  0.35717  1.0000
  H   H801      1.0  0.53302  0.33786  0.44354  1.0000
  H   H802      1.0  0.93214  0.37024  0.48046  1.0000
  H   H803      1.0  0.50586  0.48446  0.28584  1.0000
  H   H804      1.0  0.88740  0.40943  0.36394  1.0000
  C   C683      1.0  0.86414  0.43675  0.26339  1.0000
  H   H805      1.0  0.53029  0.03527  0.44735  1.0000
  C   C684      1.0  0.60593  0.10667  0.32738  1.0000
  H   H806      1.0  0.56821  0.05541  0.48225  1.0000
  H   H807      1.0  0.58183  0.02902  0.34422  1.0000
  H   H808      1.0  0.55523  0.45913  0.45263  1.0000
  C   C685      1.0  0.51465  0.33825  0.45021  1.0000
  H   H809      1.0  0.76703  0.14734  0.37039  1.0000
  C   C686      1.0  0.77493  0.21931  0.38887  1.0000
  H   H810      1.0  0.81338  0.18806  0.37129  1.0000
  C   C687      1.0  0.49306  0.05084  0.46443  1.0000
  H   H811      1.0  0.80755  0.38786  0.44330  1.0000
  H   H812      1.0  0.51770  0.36046  0.44969  1.0000
  C   C688      1.0  0.57052  0.06876  0.30046  1.0000
  C   C689      1.0  0.59507  0.04800  0.35280  1.0000
  C   C690      1.0  0.92303  0.45018  0.36763  1.0000
  N   N44       1.0  0.54616  0.07250  0.46502  1.0000
  C   C691      1.0  0.56231  0.48890  0.43116  1.0000
  H   H813      1.0  0.85341  0.41020  0.29517  1.0000
  H   H814      1.0  0.56639  0.12527  0.34376  1.0000
  C   C692      1.0  0.56894  0.06055  0.31862  1.0000
  C   C693      1.0  0.60745  0.11456  0.30916  1.0000
  C   C694      1.0  0.87385  0.41459  0.28903  1.0000
  C   C695      1.0  0.54622  0.12513  0.34062  1.0000
  H   H815      1.0  0.84851  0.28756  0.38682  1.0000
  H   H816      1.0  0.62511  0.10159  0.36243  1.0000
  H   H817      1.0  0.49783  0.45232  0.34479  1.0000
  H   H818      1.0  0.55698  0.18002  0.43195  1.0000
  H   H819      1.0  0.59538  0.04101  0.36705  1.0000
  C   C696      1.0  0.50268  0.12552  0.35104  1.0000
  C   C697      1.0  0.83387  0.38705  0.46594  1.0000
  H   H820      1.0  0.55412  0.05249  0.37251  1.0000
  H   H821      1.0  0.84850  0.22785  0.36356  1.0000
  C   C698      1.0  0.54887  0.48986  0.35736  1.0000
  H   H822      1.0  0.85260  0.42657  0.37170  1.0000
  H   H823      1.0  0.51431  0.48118  0.39712  1.0000
  H   H824      1.0  0.86730  0.47549  0.37978  1.0000
  C   C699      1.0  0.52360  0.47638  0.40903  1.0000
  H   H825      1.0  0.84586  0.40980  0.46675  1.0000
  C   C700      1.0  0.89439  0.43161  0.36712  1.0000
  N   N45       1.0  0.58493  0.06989  0.35175  1.0000
  C   C701      1.0  0.51875  0.10172  0.46475  1.0000
  H   H826      1.0  0.54532  0.06807  0.43582  1.0000
  H   H827      1.0  0.50009  0.33023  0.29253  1.0000
  H   H828      1.0  0.84742  0.21888  0.39614  1.0000
  N   N46       1.0  0.82766  0.24235  0.38327  1.0000
  H   H829      1.0  0.51097  0.07306  0.24978  1.0000
  C   C702      1.0  0.55541  0.05779  0.35778  1.0000
  N   N47       1.0  0.88490  0.44095  0.27859  1.0000
  H   H830      1.0  0.90911  0.42624  0.26224  1.0000
  C   C703      1.0  0.49314  0.10345  0.46482  1.0000
  C   C704      1.0  0.51949  0.07524  0.46474  1.0000
  H   H831      1.0  0.59135  0.10176  0.28156  1.0000
  H   H832      1.0  0.87145  0.45472  0.25406  1.0000
  H   H833      1.0  0.62306  0.13520  0.30529  1.0000
  C   C705      1.0  0.82595  0.34034  0.47647  1.0000
  S   S188      1.0  0.85671  0.35143  0.24646  1.0000
  H   H834      1.0  0.83428  0.23625  0.41160  1.0000
  H   H835      1.0  0.87949  0.44659  0.31643  1.0000
  H   H836      1.0  0.87006  0.39597  0.28015  1.0000
  C   C706      1.0  0.58978  0.09569  0.29573  1.0000
  H   H837      1.0  0.54641  0.07301  0.35604  1.0000
  C   C707      1.0  0.88572  0.46560  0.30882  1.0000
  H   H838      1.0  0.57314  0.11248  0.45359  1.0000
  C   C708      1.0  0.87478  0.44136  0.37136  1.0000
  H   H839      1.0  0.48947  0.34661  0.41989  1.0000
  C   C709      1.0  0.88978  0.48987  0.31877  1.0000
  H   H840      1.0  0.59144  0.09703  0.46661  1.0000
  H   H841      1.0  0.51580  0.33328  0.46483  1.0000
  C   C710      1.0  0.60232  0.09283  0.36505  1.0000
  C   C711      1.0  0.81233  0.37472  0.45264  1.0000
  C   C712      1.0  0.52888  0.12484  0.35471  1.0000
  H   H842      1.0  0.52145  0.29558  0.42901  1.0000
  C   C713      1.0  0.57184  0.09996  0.46592  1.0000
  C   C714      1.0  0.86255  0.32629  0.48381  1.0000
  C   C715      1.0  0.79755  0.34553  0.45098  1.0000
  H   H843      1.0  0.55118  0.12542  0.31159  1.0000
  H   H844      1.0  0.54439  0.48277  0.37164  1.0000
  C   C716      1.0  0.49454  0.12549  0.33236  1.0000
  C   C717      1.0  0.51193  0.12541  0.31838  1.0000
  C   C718      1.0  0.53774  0.12534  0.32249  1.0000
  H   H845      1.0  0.51862  0.14505  0.38675  1.0000
  H   H846      1.0  0.81427  0.28325  0.47355  1.0000
  N   N48       1.0  0.83425  0.32295  0.48863  1.0000
  H   H847      1.0  0.57883  0.01295  0.48194  1.0000
  H   H848      1.0  0.93827  0.44233  0.36472  1.0000
  C   C719      1.0  0.49892  0.47164  0.35161  1.0000
  H   H849      1.0  0.90887  0.48647  0.44948  1.0000
  H   H850      1.0  0.53618  0.12403  0.36854  1.0000
  C   C720      1.0  0.85457  0.48538  0.42301  1.0000
  C   C721      1.0  0.48741  0.32497  0.42176  1.0000
  H   H851      1.0  0.48797  0.14916  0.39104  1.0000
  C   C722      1.0  0.81444  0.29243  0.48729  1.0000
  H   H852      1.0  0.85836  0.38085  0.48723  1.0000
  H   H853      1.0  0.50536  0.12546  0.30422  1.0000
  H   H854      1.0  0.86232  0.31905  0.46947  1.0000
  H   H855      1.0  0.87885  0.34860  0.48501  1.0000
  H   H856      1.0  0.49192  0.03000  0.46421  1.0000
  H   H857      1.0  0.79251  0.28852  0.49022  1.0000
  C   C723      1.0  0.91275  0.48923  0.37692  1.0000
  C   C724      1.0  0.51390  0.48861  0.31506  1.0000
  H   H858      1.0  0.88644  0.48883  0.33330  1.0000
  S   S189      1.0  0.69856  0.14221  0.24450  1.0000
  H   H859      1.0  0.54550  0.06659  0.49400  1.0000
  H   H860      1.0  0.66519  0.07181  0.49365  1.0000
  C   C725      1.0  0.65054  0.99868  0.58973  1.0000
  C   C726      1.0  0.67417  0.04609  0.57961  1.0000
  H   H861      1.0  0.63263  0.05797  0.58157  1.0000
  H   H862      1.0  0.67888  0.01974  0.62071  1.0000
  C   C727      1.0  0.62033  0.01773  0.51970  1.0000
  H   H863      1.0  0.63345  0.99332  0.57907  1.0000
  H   H864      1.0  0.65852  0.04046  0.56795  1.0000
  C   C728      1.0  0.64595  0.05413  0.49746  1.0000
  N   N49       1.0  0.66183  0.02858  0.59568  1.0000
  C   C729      1.0  0.60513  0.02442  0.62792  1.0000
  C   C730      1.0  0.59641  0.00803  0.50787  1.0000
  H   H865      1.0  0.85284  0.35363  0.51091  1.0000
  H   H866      1.0  0.68231  0.06891  0.58304  1.0000
  C   C731      1.0  0.62740  0.02105  0.62040  1.0000
  C   C732      1.0  0.68513  0.03502  0.60949  1.0000
  H   H867      1.0  0.59430  0.06353  0.59520  1.0000
  H   H868      1.0  0.59654  0.01435  0.64060  1.0000
  C   C733      1.0  0.62621  0.04879  0.59471  1.0000
  H   H869      1.0  0.66381  0.04864  0.52314  1.0000
  C   C734      1.0  0.59344  0.03993  0.61895  1.0000
  C   C735      1.0  0.63884  0.03331  0.60363  1.0000
  S   S190      1.0  0.62082  0.00174  0.54118  1.0000
  C   C736      1.0  0.96364  0.38884  0.50253  1.0000
  C   C737      1.0  0.60393  0.05207  0.60238  1.0000
  H   H870      1.0  0.83958  0.31816  0.51753  1.0000
  H   H871      1.0  0.70368  0.03394  0.60347  1.0000
  H   H872      1.0  0.81531  0.33235  0.51162  1.0000
  C   C738      1.0  0.83552  0.33221  0.50796  1.0000
  H   H873      1.0  0.66701  0.99383  0.58377  1.0000
  C   C739      1.0  0.64506  0.04089  0.51428  1.0000
  H   H874      1.0  0.94963  0.37655  0.51290  1.0000
  H   H875      1.0  0.63491  0.00791  0.62761  1.0000
  H   H876      1.0  0.57586  0.04209  0.62469  1.0000
  H   H877      1.0  0.69229  0.05646  0.61568  1.0000
  H   H878      1.0  0.69193  0.04274  0.57426  1.0000
  H   H879      1.0  0.82059  0.27999  0.49702  1.0000
  H   H880      1.0  0.97337  0.43274  0.77487  1.0000
  H   H881      1.0  0.91710  0.26260  0.96306  1.0000
  Fe  Fe96      1.0  0.78408  0.06229  0.90495  1.0000
  S   S191      1.0  0.74819  0.07356  0.90863  1.0000
  S   S192      1.0  0.83090  0.09056  0.90069  1.0000
  Fe  Fe97      1.0  0.74267  0.05193  0.93569  1.0000
  S   S193      1.0  0.74502  0.07389  0.96322  1.0000
  Fe  Fe98      1.0  0.72035  0.03017  0.89586  1.0000
  C   C740      1.0  0.68048  0.01842  0.82132  1.0000
  S   S194      1.0  0.77956  0.04282  0.93238  1.0000
  S   S195      1.0  0.75685  0.02018  0.89060  1.0000
  Fe  Fe99      1.0  0.94891  0.24955  0.89026  1.0000
  S   S196      1.0  0.95841  0.29347  0.89982  1.0000
  S   S197      1.0  0.90410  0.21883  0.88059  1.0000
  H   H882      1.0  0.97319  0.15124  0.85943  1.0000
  H   H883      1.0  0.88653  0.08813  0.87613  1.0000
  H   H884      1.0  0.97818  0.38131  0.83097  1.0000
  H   H885      1.0  0.96303  0.15577  0.83656  1.0000
  C   C741      1.0  0.67000  0.01015  0.85352  1.0000
  H   H886      1.0  0.87755  0.18629  0.97725  1.0000
  C   C742      1.0  0.85353  0.18422  0.93323  1.0000
  H   H887      1.0  0.57596  0.02581  0.78841  1.0000
  C   C743      1.0  0.52384  0.00129  0.79518  1.0000
  C   C744      1.0  0.82914  0.15858  0.93375  1.0000
  H   H888      1.0  0.78186  0.03708  0.97269  1.0000
  H   H889      1.0  0.56508  0.01587  0.84690  1.0000
  C   C745      1.0  0.86439  0.17933  0.96491  1.0000
  H   H890      1.0  0.93012  0.42627  0.84241  1.0000
  C   C746      1.0  0.71330  0.03046  0.98603  1.0000
  H   H891      1.0  0.89939  0.17279  0.84211  1.0000
  C   C747      1.0  0.84925  0.12744  0.89750  1.0000
  C   C748      1.0  0.83773  0.14175  0.88684  1.0000
  C   C749      1.0  0.85467  0.16988  0.88211  1.0000
  C   C750      1.0  0.88311  0.18420  0.88824  1.0000
  C   C751      1.0  0.89415  0.17038  0.89974  1.0000
  C   C752      1.0  0.87746  0.14204  0.90406  1.0000
  H   H892      1.0  0.81620  0.13071  0.88151  1.0000
  H   H893      1.0  0.84583  0.18039  0.87330  1.0000
  H   H894      1.0  0.91571  0.18115  0.90496  1.0000
  H   H895      1.0  0.88659  0.13113  0.91224  1.0000
  C   C753      1.0  0.92205  0.15349  0.85776  1.0000
  C   C754      1.0  0.89812  0.15450  0.84909  1.0000
  C   C755      1.0  0.90235  0.23719  0.93135  1.0000
  H   H896      1.0  0.94317  0.23577  0.95145  1.0000
  H   H897      1.0  0.80336  0.12351  0.94997  1.0000
  H   H898      1.0  0.92312  0.20097  0.94164  1.0000
  C   C756      1.0  0.87195  0.19543  0.94888  1.0000
  H   H899      1.0  0.81556  0.15018  0.92160  1.0000
  H   H900      1.0  0.52751  0.03926  0.82145  1.0000
  H   H901      1.0  0.93401  0.12688  0.87495  1.0000
  C   C757      1.0  0.73494  0.05777  0.98464  1.0000
  S   S198      1.0  0.67976  0.01481  0.87736  1.0000
  H   H902      1.0  0.87916  0.24530  0.96214  1.0000
  H   H903      1.0  0.92196  0.25752  0.93188  1.0000
  H   H904      1.0  0.85755  0.19461  0.92033  1.0000
  C   C758      1.0  0.82229  0.14343  0.94971  1.0000
  S   S199      1.0  0.64154  0.99952  0.79219  1.0000
  H   H905      1.0  0.88458  0.24233  0.92796  1.0000
  C   C759      1.0  0.96080  0.18886  0.87588  1.0000
  H   H906      1.0  0.84618  0.09085  0.86035  1.0000
  H   H907      1.0  0.85314  0.13334  0.84353  1.0000
  C   C760      1.0  0.92288  0.21627  0.95206  1.0000
  C   C761      1.0  0.89009  0.10642  0.86816  1.0000
  C   C762      1.0  0.97301  0.39858  0.82817  1.0000
  H   H908      1.0  0.52356  0.01635  0.84013  1.0000
  C   C763      1.0  0.64129  0.99451  0.84813  1.0000
  C   C764      1.0  0.68958  0.02185  0.83991  1.0000
  H   H909      1.0  0.89904  0.23381  0.97734  1.0000
  C   C765      1.0  0.87123  0.13188  0.84979  1.0000
  H   H910      1.0  0.71169  0.03403  0.84374  1.0000
  C   C766      1.0  0.98028  0.28806  0.97378  1.0000
  C   C767      1.0  0.51984  0.01683  0.82519  1.0000
  H   H911      1.0  0.94178  0.38681  0.84856  1.0000
  C   C768      1.0  0.91712  0.12882  0.86747  1.0000
  C   C769      1.0  0.61266  0.04359  0.80560  1.0000
  C   C770      1.0  0.89827  0.24168  0.96348  1.0000
  C   C771      1.0  0.62436  0.04822  0.82329  1.0000
  H   H912      1.0  0.92294  0.20746  0.96572  1.0000
  H   H913      1.0  0.69584  0.02811  0.81102  1.0000
  N   N50       1.0  0.95091  0.17690  0.85722  1.0000
  C   C772      1.0  0.86725  0.10788  0.85924  1.0000
  N   N51       1.0  0.89828  0.22218  0.94881  1.0000
  H   H914      1.0  0.49649  0.00614  0.82274  1.0000
  H   H915      1.0  0.80508  0.03874  0.99160  1.0000
  C   C773      1.0  0.56493  0.01891  0.81722  1.0000
  H   H916      1.0  0.90457  0.22463  0.91983  1.0000
  H   H917      1.0  0.53045  0.02249  0.78940  1.0000
  C   C774      1.0  0.57763  0.02373  0.83507  1.0000
  C   C775      1.0  0.58342  0.02913  0.80250  1.0000
  H   H918      1.0  0.95421  0.46014  0.81931  1.0000
  C   C776      1.0  0.83986  0.15381  0.96527  1.0000
  C   C777      1.0  0.95276  0.20024  0.84547  1.0000
  C   C778      1.0  0.65180  0.00272  0.81594  1.0000
  H   H919      1.0  0.70223  0.01867  0.97379  1.0000
  C   C779      1.0  0.97059  0.16641  0.85018  1.0000
  H   H920      1.0  0.96224  0.31265  0.98668  1.0000
  H   H921      1.0  0.62648  0.05039  0.79417  1.0000
  S   S200      1.0  0.97189  0.24166  0.91392  1.0000
  S   S201      1.0  0.71193  0.01000  0.92355  1.0000
  H   H922      1.0  0.64711  0.05865  0.82554  1.0000
  C   C780      1.0  0.95253  0.40167  0.83809  1.0000
  C   C781      1.0  0.60691  0.03825  0.83800  1.0000
  H   H923      1.0  0.94001  0.21055  0.85077  1.0000
  H   H924      1.0  0.96087  0.17300  0.88560  1.0000
  H   H925      1.0  0.94717  0.19787  0.88136  1.0000
  H   H926      1.0  0.94550  0.19271  0.83117  1.0000
  H   H927      1.0  0.83444  0.14185  0.97765  1.0000
  H   H928      1.0  0.96451  0.47264  0.78838  1.0000
  H   H929      1.0  0.78999  0.00133  0.95712  1.0000
  H   H930      1.0  0.98273  0.20608  0.87609  1.0000
  H   H931      1.0  0.61628  0.04116  0.85169  1.0000
  N   N52       1.0  0.53389  0.00311  0.81451  1.0000
  Fe  Fe100     1.0  0.98349  0.28626  0.92289  1.0000
  Fe  Fe101     1.0  0.74950  0.00227  0.91865  1.0000
  C   C782      1.0  0.98115  0.44072  0.81083  1.0000
  C   C783      1.0  0.78298  0.02764  0.98600  1.0000
  C   C784      1.0  0.96011  0.44331  0.82120  1.0000
  C   C785      1.0  0.94605  0.42394  0.83459  1.0000
  S   S202      1.0  0.97500  0.29825  0.95145  1.0000
  N   N53       1.0  0.77358  0.99686  0.98414  1.0000
  C   C786      1.0  0.97161  0.29845  0.98888  1.0000
  H   H932      1.0  0.97481  0.21718  0.84501  1.0000
  H   H933      1.0  0.81429  0.00296  0.97497  1.0000
  C   C787      1.0  0.79159  0.99242  0.97056  1.0000
  H   H934      1.0  0.74234  0.99212  0.96303  1.0000
  Fe  Fe102     1.0  0.94875  0.77552  0.08384  1.0000
  S   S203      1.0  0.96437  0.74361  0.07707  1.0000
  S   S204      1.0  0.90328  0.76157  0.07452  1.0000
  C   C788      1.0  0.90555  0.81392  0.99701  1.0000
  H   H935      1.0  0.71081  0.81477  0.16407  1.0000
  S   S205      1.0  0.62445  0.61118  0.23408  1.0000
  Fe  Fe103     1.0  0.92063  0.63598  0.21896  1.0000
  S   S206      1.0  0.89516  0.59350  0.20543  1.0000
  S   S207      1.0  0.94123  0.67789  0.20366  1.0000
  H   H936      1.0  0.92762  0.75252  0.01192  1.0000
  H   H937      1.0  0.69424  0.85912  0.06699  1.0000
  H   H938      1.0  0.91230  0.72213  0.11113  1.0000
  S   S208      1.0  0.81994  0.58796  0.20634  1.0000
  Fe  Fe104     1.0  0.78449  0.80128  0.09733  1.0000
  S   S209      1.0  0.75847  0.75674  0.08742  1.0000
  S   S210      1.0  0.83025  0.81800  0.10657  1.0000
  Fe  Fe105     1.0  0.73484  0.81510  0.09621  1.0000
  S   S211      1.0  0.70514  0.77096  0.08643  1.0000
  S   S212      1.0  0.71426  0.84426  0.10071  1.0000
  Fe  Fe106     1.0  0.72693  0.75602  0.10762  1.0000
  S   S213      1.0  0.70345  0.71627  0.12450  1.0000
  Fe  Fe107     1.0  0.73922  0.77557  0.06721  1.0000
  S   S214      1.0  0.72833  0.75755  0.03798  1.0000
  S   S215      1.0  0.75413  0.79983  0.11862  1.0000
  S   S216      1.0  0.76765  0.82045  0.07579  1.0000
  Fe  Fe108     1.0  0.62551  0.57005  0.22748  1.0000
  H   H939      1.0  0.75423  0.89112  0.05222  1.0000
  S   S217      1.0  0.59287  0.52854  0.21450  1.0000
  C   C789      1.0  0.72253  0.52636  0.18897  1.0000
  H   H940      1.0  0.79295  0.76855  0.12269  1.0000
  C   C790      1.0  0.92076  0.79784  0.99980  1.0000
  Fe  Fe109     1.0  0.66890  0.63222  0.22352  1.0000
  S   S218      1.0  0.68965  0.67341  0.20724  1.0000
  S   S219      1.0  0.66849  0.59099  0.21510  1.0000
  H   H941      1.0  0.97161  0.83019  0.01675  1.0000
  H   H942      1.0  0.78934  0.72340  0.19842  1.0000
  C   C791      1.0  0.71018  0.84191  0.00936  1.0000
  C   C792      1.0  0.55851  0.50726  0.22239  1.0000
  H   H943      1.0  0.66326  0.81118  0.16264  1.0000
  C   C793      1.0  0.63649  0.49871  0.20147  1.0000
  C   C794      1.0  0.69805  0.86620  0.05266  1.0000
  C   C795      1.0  0.73222  0.88167  0.10019  1.0000
  C   C796      1.0  0.71652  0.89720  0.10040  1.0000
  C   C797      1.0  0.73002  0.92689  0.09997  1.0000
  C   C798      1.0  0.75945  0.94141  0.09953  1.0000
  C   C799      1.0  0.77508  0.92581  0.09911  1.0000
  C   C800      1.0  0.76159  0.89615  0.09936  1.0000
  H   H944      1.0  0.69379  0.88627  0.10106  1.0000
  H   H945      1.0  0.71772  0.93858  0.10037  1.0000
  H   H946      1.0  0.79786  0.93682  0.09883  1.0000
  H   H947      1.0  0.77402  0.88458  0.09926  1.0000
  C   C801      1.0  0.74953  0.80281  0.01452  1.0000
  C   C802      1.0  0.73426  0.77371  0.01634  1.0000
  S   S220      1.0  0.92260  0.54194  0.23113  1.0000
  H   H948      1.0  0.75861  0.81621  0.02651  1.0000
  H   H949      1.0  0.94891  0.72756  0.18432  1.0000
  C   C803      1.0  0.70066  0.70490  0.14765  1.0000
  C   C804      1.0  0.68346  0.67634  0.15120  1.0000
  C   C805      1.0  0.67992  0.66626  0.16920  1.0000
  C   C806      1.0  0.69351  0.68465  0.18405  1.0000
  C   C807      1.0  0.71083  0.71322  0.18048  1.0000
  C   C808      1.0  0.71446  0.72328  0.16247  1.0000
  H   H950      1.0  0.67256  0.66184  0.13994  1.0000
  H   H951      1.0  0.66648  0.64430  0.17160  1.0000
  H   H952      1.0  0.72141  0.72773  0.19179  1.0000
  H   H953      1.0  0.72758  0.74531  0.16017  1.0000
  H   H954      1.0  0.65086  0.72415  0.14285  1.0000
  H   H955      1.0  0.80857  0.74886  0.17066  1.0000
  H   H956      1.0  0.96575  0.74514  0.15356  1.0000
  C   C809      1.0  0.77198  0.59376  0.21236  1.0000
  C   C810      1.0  0.74869  0.59075  0.22245  1.0000
  C   C811      1.0  0.77869  0.71503  0.11788  1.0000
  H   H957      1.0  0.77472  0.60277  0.19899  1.0000
  H   H958      1.0  0.73371  0.59768  0.21697  1.0000
  C   C812      1.0  0.88338  0.77742  0.08375  1.0000
  C   C813      1.0  0.89475  0.79862  0.09729  1.0000
  C   C814      1.0  0.87825  0.81097  0.10419  1.0000
  C   C815      1.0  0.85041  0.80224  0.09755  1.0000
  C   C816      1.0  0.83902  0.78092  0.08408  1.0000
  C   C817      1.0  0.85547  0.76853  0.07722  1.0000
  H   H959      1.0  0.91629  0.80565  0.10236  1.0000
  H   H960      1.0  0.88719  0.82753  0.11459  1.0000
  H   H961      1.0  0.81772  0.77423  0.07874  1.0000
  H   H962      1.0  0.84661  0.75215  0.06671  1.0000
  H   H963      1.0  0.70246  0.81969  0.01171  1.0000
  H   H964      1.0  0.66690  0.51409  0.24413  1.0000
  C   C818      1.0  0.66644  0.76124  0.16151  1.0000
  H   H965      1.0  0.78147  0.96152  0.05201  1.0000
  C   C819      1.0  0.79248  0.97223  0.00653  1.0000
  C   C820      1.0  0.95489  0.71509  0.17526  1.0000
  C   C821      1.0  0.95289  0.68906  0.18114  1.0000
  C   C822      1.0  0.96082  0.67332  0.16920  1.0000
  H   H966      1.0  0.71146  0.73407  0.00171  1.0000
  C   C823      1.0  0.92265  0.80695  0.03329  1.0000
  C   C824      1.0  0.81331  0.80524  0.00877  1.0000
  C   C825      1.0  0.96460  0.72523  0.15780  1.0000
  H   H967      1.0  0.79688  0.77118  0.14686  1.0000
  N   N54       1.0  0.65542  0.49738  0.21639  1.0000
  H   H968      1.0  0.86529  0.50439  0.21697  1.0000
  C   C826      1.0  0.97121  0.68380  0.15192  1.0000
  C   C827      1.0  0.79106  0.75464  0.01006  1.0000
  H   H969      1.0  0.70821  0.88957  0.05364  1.0000
  H   H970      1.0  0.76326  0.52997  0.19759  1.0000
  C   C828      1.0  0.92016  0.76358  0.02171  1.0000
  H   H971      1.0  0.97124  0.80327  0.03160  1.0000
  H   H972      1.0  0.74390  0.86162  0.06651  1.0000
  N   N55       1.0  0.86633  0.65250  0.16696  1.0000
  C   C829      1.0  0.87680  0.63101  0.16958  1.0000
  C   C830      1.0  0.87209  0.66906  0.18433  1.0000
  C   C831      1.0  0.83535  0.63729  0.16345  1.0000
  C   C832      1.0  0.87942  0.67153  0.15172  1.0000
  C   C833      1.0  0.87251  0.69399  0.14799  1.0000
  C   C834      1.0  0.89878  0.66824  0.14004  1.0000
  C   C835      1.0  0.88433  0.71204  0.13353  1.0000
  C   C836      1.0  0.91016  0.68620  0.12551  1.0000
  C   C837      1.0  0.90305  0.70808  0.12229  1.0000
  H   H973      1.0  0.89989  0.64095  0.17297  1.0000
  H   H974      1.0  0.86647  0.61708  0.18109  1.0000
  H   H975      1.0  0.87226  0.61688  0.15735  1.0000
  H   H976      1.0  0.89511  0.68273  0.18661  1.0000
  H   H977      1.0  0.86494  0.65519  0.19632  1.0000
  H   H978      1.0  0.86135  0.68282  0.18472  1.0000
  H   H979      1.0  0.82538  0.65177  0.16271  1.0000
  H   H980      1.0  0.83017  0.62486  0.15038  1.0000
  H   H981      1.0  0.82486  0.62233  0.17450  1.0000
  H   H982      1.0  0.85804  0.69781  0.15631  1.0000
  H   H983      1.0  0.90599  0.65233  0.14199  1.0000
  H   H984      1.0  0.87923  0.72936  0.13100  1.0000
  C   C838      1.0  0.78583  0.75629  0.13527  1.0000
  C   C839      1.0  0.79189  0.72762  0.16922  1.0000
  H   H985      1.0  0.78822  0.72743  0.10562  1.0000
  H   H986      1.0  0.78179  0.69567  0.11696  1.0000
  H   H987      1.0  0.76283  0.74981  0.13620  1.0000
  H   H988      1.0  0.93089  0.80356  0.04674  1.0000
  C   C840      1.0  0.71755  0.86234  0.02380  1.0000
  C   C841      1.0  0.78108  0.71325  0.18520  1.0000
  C   C842      1.0  0.65528  0.51575  0.23169  1.0000
  Fe  Fe110     1.0  0.68552  0.59110  0.24349  1.0000
  N   N56       1.0  0.79163  0.73145  0.13506  1.0000
  S   S221      1.0  0.88423  0.63473  0.23467  1.0000
  C   C843      1.0  0.78064  0.71526  0.15173  1.0000
  H   H989      1.0  0.75565  0.70904  0.11658  1.0000
  H   H990      1.0  0.83117  0.75270  0.12163  1.0000
  N   N57       1.0  0.71556  0.85499  0.04329  1.0000
  H   H991      1.0  0.80847  0.95392  0.02727  1.0000
  C   C844      1.0  0.82259  0.74133  0.13443  1.0000
  C   C845      1.0  0.70280  0.82417  0.04629  1.0000
  H   H992      1.0  0.83445  0.75657  0.14569  1.0000
  C   C846      1.0  0.74427  0.86773  0.05204  1.0000
  H   H993      1.0  0.71580  0.81440  0.04073  1.0000
  H   H994      1.0  0.66564  0.53822  0.22790  1.0000
  S   S222      1.0  0.77786  0.97881  0.09980  1.0000
  C   C847      1.0  0.75791  0.68763  0.15129  1.0000
  C   C848      1.0  0.75888  0.68620  0.18428  1.0000
  H   H995      1.0  0.82795  0.72334  0.13508  1.0000
  H   H996      1.0  0.63665  0.78638  0.14721  1.0000
  H   H997      1.0  0.68419  0.76004  0.12653  1.0000
  H   H998      1.0  0.89978  0.82346  0.00818  1.0000
  H   H999      1.0  0.71895  0.79052  0.15126  1.0000
  C   C849      1.0  0.79165  0.58509  0.21950  1.0000
  Fe  Fe111     1.0  0.85935  0.59222  0.22174  1.0000
  H   H1000     1.0  0.74973  0.67550  0.19669  1.0000
  H   H1001     1.0  0.71462  0.81856  0.14012  1.0000
  H   H1002     1.0  0.63707  0.68952  0.16635  1.0000
  H   H1003     1.0  0.67900  0.79036  0.18506  1.0000
  H   H1004     1.0  0.66540  0.75414  0.20807  1.0000
  C   C850      1.0  0.74747  0.67338  0.16737  1.0000
  H   H1005     1.0  0.74709  0.67688  0.13875  1.0000
  H   H1006     1.0  0.92527  0.68361  0.11695  1.0000
  H   H1007     1.0  0.94154  0.49922  0.23260  1.0000
  C   C851      1.0  0.70633  0.80262  0.15097  1.0000
  C   C852      1.0  0.65973  0.80013  0.14916  1.0000
  C   C853      1.0  0.67203  0.77230  0.12866  1.0000
  C   C854      1.0  0.66987  0.76861  0.18041  1.0000
  C   C855      1.0  0.66202  0.74808  0.19371  1.0000
  H   H1008     1.0  0.66595  0.81671  0.13868  1.0000
  C   C856      1.0  0.64586  0.71167  0.17022  1.0000
  C   C857      1.0  0.65394  0.73200  0.15679  1.0000
  H   H1009     1.0  0.72948  0.65273  0.16679  1.0000
  C   C858      1.0  0.65017  0.71967  0.18862  1.0000
  H   H1010     1.0  0.64943  0.75861  0.12492  1.0000
  H   H1011     1.0  0.67957  0.78953  0.11865  1.0000
  H   H1012     1.0  0.64481  0.70377  0.19893  1.0000
  N   N58       1.0  0.67587  0.78348  0.14773  1.0000
  C   C859      1.0  0.75913  0.98855  0.01676  1.0000
  C   C860      1.0  0.73275  0.51222  0.21826  1.0000
  C   C861      1.0  0.97322  0.70981  0.14605  1.0000
  H   H1013     1.0  0.95973  0.65342  0.17347  1.0000
  H   H1014     1.0  0.97162  0.73987  0.02477  1.0000
  H   H1015     1.0  0.73861  0.92042  0.99700  1.0000
  H   H1016     1.0  0.92709  0.76002  0.03555  1.0000
  H   H1017     1.0  0.64248  0.52082  0.19751  1.0000
  C   C862      1.0  0.73070  0.89851  0.00050  1.0000
  H   H1018     1.0  0.89668  0.75287  0.02100  1.0000
  H   H1019     1.0  0.70107  0.81942  0.06109  1.0000
  H   H1020     1.0  0.97788  0.67165  0.14305  1.0000
  N   N59       1.0  0.93113  0.79402  0.01805  1.0000
  H   H1021     1.0  0.68109  0.81320  0.04002  1.0000
  C   C863      1.0  0.76140  0.97983  0.03437  1.0000
  C   C864      1.0  0.54472  0.51807  0.23377  1.0000
  H   H1022     1.0  0.75844  0.86080  0.04487  1.0000
  C   C865      1.0  0.90499  0.50540  0.22535  1.0000
  Fe  Fe112     1.0  0.90582  0.57497  0.23039  1.0000
  H   H1023     1.0  0.79920  0.78228  0.03344  1.0000
  H   H1024     1.0  0.67708  0.85904  0.04549  1.0000
  H   H1025     1.0  0.89929  0.79743  0.03422  1.0000
  C   C866      1.0  0.79451  0.96343  0.02423  1.0000
  H   H1026     1.0  0.78101  0.73577  0.01792  1.0000
  S   S223      1.0  0.93459  0.61799  0.24307  1.0000
  C   C867      1.0  0.96242  0.80706  0.01853  1.0000
  C   C868      1.0  0.77925  0.96752  0.03816  1.0000
  C   C869      1.0  0.80135  0.78088  0.01885  1.0000
  S   S224      1.0  0.96908  0.78591  0.11205  1.0000
  H   H1027     1.0  0.93121  0.83014  0.03206  1.0000
  C   C870      1.0  0.72792  0.89090  0.01879  1.0000
  H   H1028     1.0  0.73416  0.90761  0.02902  1.0000
  C   C871      1.0  0.72328  0.75662  0.00048  1.0000
  C   C872      1.0  0.74149  0.52318  0.20117  1.0000
  H   H1029     1.0  0.55541  0.53983  0.23849  1.0000
  C   C873      1.0  0.98248  0.75233  0.01337  1.0000
  C   C874      1.0  0.77495  0.98552  0.00232  1.0000
  H   H1030     1.0  0.69956  0.49694  0.23687  1.0000
  C   C875      1.0  0.78783  0.57313  0.23667  1.0000
  H   H1031     1.0  0.74969  0.98330  0.04524  1.0000
  H   H1032     1.0  0.82054  0.82558  0.01564  1.0000
  H   H1033     1.0  0.74785  0.51066  0.22792  1.0000
  C   C876      1.0  0.69460  0.51823  0.19369  1.0000
  H   H1034     1.0  0.68119  0.52171  0.18371  1.0000
  H   H1035     1.0  0.72966  0.53554  0.17585  1.0000
  C   C877      1.0  0.70498  0.50427  0.22320  1.0000
  C   C878      1.0  0.68485  0.50645  0.21092  1.0000
  C   C879      1.0  0.51655  0.50104  0.23840  1.0000
  H   H1036     1.0  0.80514  0.96876  0.99646  1.0000
  H   H1037     1.0  0.97066  0.79852  0.00758  1.0000
  H   H1038     1.0  0.63340  0.51080  0.23561  1.0000
  C   C880      1.0  0.74472  0.57846  0.23953  1.0000
  H   H1039     1.0  0.80267  0.56599  0.24212  1.0000
  H   H1040     1.0  0.76491  0.83716  0.99584  1.0000
  C   C881      1.0  0.75326  0.81460  0.99708  1.0000
  C   C882      1.0  0.97089  0.74432  0.99545  1.0000
  C   C883      1.0  0.87689  0.49215  0.21882  1.0000
  S   S225      1.0  0.98457  0.81109  0.07094  1.0000
  Fe  Fe113     1.0  0.89564  0.61300  0.25741  1.0000
  H   H1041     1.0  0.79518  0.62882  0.25155  1.0000
  S   S226      1.0  0.89021  0.62597  0.28654  1.0000
  H   H1042     1.0  0.92041  0.59388  0.29925  1.0000
  H   H1043     1.0  0.90081  0.53409  0.31775  1.0000
  Fe  Fe114     1.0  0.90755  0.60185  0.39545  1.0000
  S   S227      1.0  0.86565  0.57213  0.40650  1.0000
  S   S228      1.0  0.91903  0.59507  0.36637  1.0000
  Fe  Fe115     1.0  0.93130  0.62992  0.43438  1.0000
  S   S229      1.0  0.89064  0.60247  0.44725  1.0000
  C   C884      1.0  0.75409  0.63241  0.29592  1.0000
  Fe  Fe116     1.0  0.89122  0.56726  0.43015  1.0000
  S   S230      1.0  0.89201  0.53020  0.44461  1.0000
  Fe  Fe117     1.0  0.86893  0.61019  0.42252  1.0000
  S   S231      1.0  0.83715  0.62843  0.42371  1.0000
  S   S232      1.0  0.93283  0.59445  0.41828  1.0000
  S   S233      1.0  0.90998  0.64025  0.41037  1.0000
  Fe  Fe118     1.0  0.64471  0.60929  0.26143  1.0000
  S   S234      1.0  0.62545  0.61096  0.28869  1.0000
  S   S235      1.0  0.64294  0.56727  0.25505  1.0000
  Fe  Fe119     1.0  0.63745  0.61541  0.43557  1.0000
  S   S236      1.0  0.63103  0.57140  0.44143  1.0000
  S   S237      1.0  0.61967  0.63997  0.45309  1.0000
  Fe  Fe120     1.0  0.65831  0.61232  0.39634  1.0000
  S   S238      1.0  0.65224  0.56825  0.40016  1.0000
  S   S239      1.0  0.67953  0.63193  0.36990  1.0000
  Fe  Fe121     1.0  0.61169  0.56041  0.41305  1.0000
  S   S240      1.0  0.56936  0.52595  0.40312  1.0000
  Fe  Fe122     1.0  0.67276  0.58374  0.42792  1.0000
  S   S241      1.0  0.70480  0.56801  0.43682  1.0000
  S   S242      1.0  0.61625  0.60363  0.40742  1.0000
  S   S243      1.0  0.68072  0.62859  0.42385  1.0000
  C   C885      1.0  0.82216  0.61489  0.27783  1.0000
  C   C886      1.0  0.50951  0.50955  0.45056  1.0000
  C   C887      1.0  0.65930  0.71647  0.47860  1.0000
  H   H1044     1.0  0.83592  0.61098  0.26812  1.0000
  N   N60       1.0  0.54002  0.56271  0.45059  1.0000
  S   S244      1.0  0.68885  0.63338  0.25166  1.0000
  H   H1045     1.0  0.74801  0.65410  0.31901  1.0000
  H   H1046     1.0  0.50580  0.50991  0.24670  1.0000
  C   C888      1.0  0.64093  0.61485  0.31108  1.0000
  C   C889      1.0  0.62330  0.60703  0.32610  1.0000
  C   C890      1.0  0.63468  0.61107  0.34415  1.0000
  C   C891      1.0  0.66393  0.62387  0.34743  1.0000
  C   C892      1.0  0.68157  0.63162  0.33243  1.0000
  C   C893      1.0  0.67018  0.62676  0.31436  1.0000
  H   H1047     1.0  0.60069  0.59829  0.32377  1.0000
  H   H1048     1.0  0.62084  0.60533  0.35552  1.0000
  H   H1049     1.0  0.70417  0.64195  0.33482  1.0000
  H   H1050     1.0  0.68400  0.63324  0.30298  1.0000
  H   H1051     1.0  0.90920  0.53683  0.28468  1.0000
  H   H1052     1.0  0.79909  0.68267  0.32579  1.0000
  H   H1053     1.0  0.83381  0.67843  0.30682  1.0000
  C   C894      1.0  0.74175  0.58536  0.43379  1.0000
  C   C895      1.0  0.75568  0.61393  0.42982  1.0000
  C   C896      1.0  0.78493  0.62676  0.42700  1.0000
  C   C897      1.0  0.80054  0.61118  0.42794  1.0000
  C   C898      1.0  0.78666  0.58263  0.43196  1.0000
  C   C899      1.0  0.75746  0.56988  0.43501  1.0000
  H   H1054     1.0  0.74392  0.62616  0.42902  1.0000
  H   H1055     1.0  0.79548  0.64890  0.42398  1.0000
  H   H1056     1.0  0.79837  0.57037  0.43277  1.0000
  H   H1057     1.0  0.74689  0.54778  0.43814  1.0000
  H   H1058     1.0  0.96190  0.53577  0.36830  1.0000
  H   H1059     1.0  0.95763  0.51967  0.39989  1.0000
  H   H1060     1.0  0.90854  0.54994  0.38969  1.0000
  H   H1061     1.0  0.70516  0.56593  0.35300  1.0000
  H   H1062     1.0  0.86149  0.69262  0.47680  1.0000
  H   H1063     1.0  0.58391  0.55326  0.30412  1.0000
  H   H1064     1.0  0.82945  0.61260  0.29183  1.0000
  H   H1065     1.0  0.88603  0.51568  0.39648  1.0000
  H   H1066     1.0  0.94576  0.57786  0.45692  1.0000
  H   H1067     1.0  0.76078  0.55937  0.25957  1.0000
  H   H1068     1.0  0.88735  0.52458  0.37261  1.0000
  C   C900      1.0  0.89782  0.61636  0.30855  1.0000
  C   C901      1.0  0.88870  0.62534  0.32410  1.0000
  C   C902      1.0  0.89459  0.61876  0.34185  1.0000
  C   C903      1.0  0.91009  0.60341  0.34432  1.0000
  C   C904      1.0  0.91922  0.59447  0.32878  1.0000
  C   C905      1.0  0.91297  0.60068  0.31101  1.0000
  H   H1069     1.0  0.87730  0.63777  0.32241  1.0000
  H   H1070     1.0  0.88761  0.62601  0.35364  1.0000
  H   H1071     1.0  0.93161  0.58301  0.33049  1.0000
  H   H1072     1.0  0.72693  0.55226  0.37927  1.0000
  C   C906      1.0  0.76413  0.56938  0.24650  1.0000
  C   C907      1.0  0.87461  0.64963  0.47332  1.0000
  S   S245      1.0  0.86738  0.56985  0.24549  1.0000
  C   C908      1.0  0.89865  0.49282  0.28138  1.0000
  H   H1073     1.0  0.76540  0.61401  0.27380  1.0000
  H   H1074     1.0  0.85552  0.68621  0.27796  1.0000
  S   S246      1.0  0.71633  0.57465  0.25288  1.0000
  N   N61       1.0  0.73465  0.59467  0.37328  1.0000
  C   C909      1.0  0.72918  0.57183  0.38635  1.0000
  C   C910      1.0  0.73769  0.62020  0.38350  1.0000
  C   C911      1.0  0.70924  0.58546  0.36089  1.0000
  C   C912      1.0  0.76095  0.60093  0.36371  1.0000
  C   C913      1.0  0.76190  0.59946  0.34437  1.0000
  C   C914      1.0  0.78680  0.60880  0.37380  1.0000
  C   C915      1.0  0.78709  0.60493  0.33587  1.0000
  C   C916      1.0  0.81180  0.61418  0.36517  1.0000
  C   C917      1.0  0.81193  0.61213  0.34625  1.0000
  H   H1075     1.0  0.74634  0.57758  0.39695  1.0000
  H   H1076     1.0  0.70960  0.56663  0.39394  1.0000
  H   H1077     1.0  0.55799  0.60125  0.46685  1.0000
  H   H1078     1.0  0.75594  0.62831  0.39340  1.0000
  H   H1079     1.0  0.71867  0.61601  0.39145  1.0000
  H   H1080     1.0  0.74053  0.63752  0.37410  1.0000
  C   C918      1.0  0.62351  0.63224  0.49070  1.0000
  H   H1081     1.0  0.68991  0.58087  0.36858  1.0000
  H   H1082     1.0  0.71104  0.60223  0.35130  1.0000
  H   H1083     1.0  0.74348  0.59402  0.33551  1.0000
  H   H1084     1.0  0.78793  0.61076  0.38853  1.0000
  H   H1085     1.0  0.78729  0.60347  0.32114  1.0000
  H   H1086     1.0  0.83115  0.61983  0.37330  1.0000
  H   H1087     1.0  0.83134  0.61607  0.33965  1.0000
  H   H1088     1.0  0.53011  0.57209  0.47729  1.0000
  C   C919      1.0  0.56439  0.53511  0.30727  1.0000
  C   C920      1.0  0.98219  0.60467  0.47360  1.0000
  C   C921      1.0  0.81594  0.64585  0.25624  1.0000
  S   S247      1.0  0.97124  0.66158  0.45039  1.0000
  H   H1089     1.0  0.55017  0.56277  0.42242  1.0000
  H   H1090     1.0  0.63097  0.76153  0.48536  1.0000
  C   C922      1.0  0.54844  0.57709  0.43300  1.0000
  C   C923      1.0  0.77367  0.62952  0.28482  1.0000
  C   C924      1.0  0.95645  0.58118  0.47019  1.0000
  H   H1091     1.0  0.51099  0.52715  0.35336  1.0000
  N   N62       1.0  0.52659  0.49645  0.34920  1.0000
  H   H1092     1.0  0.93993  0.64245  0.48425  1.0000
  C   C925      1.0  0.94290  0.70658  0.48157  1.0000
  H   H1093     1.0  0.66559  0.70694  0.46758  1.0000
  H   H1094     1.0  0.52697  0.50528  0.45457  1.0000
  C   C926      1.0  0.52042  0.49641  0.29698  1.0000
  H   H1095     1.0  0.54748  0.53920  0.36030  1.0000
  H   H1096     1.0  0.83141  0.64457  0.24676  1.0000
  H   H1097     1.0  0.53322  0.58455  0.42762  1.0000
  H   H1098     1.0  0.56780  0.54328  0.44730  1.0000
  C   C927      1.0  0.55814  0.52750  0.32538  1.0000
  H   H1099     1.0  0.52255  0.59071  0.45927  1.0000
  C   C928      1.0  0.81186  0.66527  0.30315  1.0000
  C   C929      1.0  0.61281  0.64276  0.47663  1.0000
  C   C930      1.0  0.52645  0.52054  0.35959  1.0000
  H   H1100     1.0  0.93157  0.53472  0.35588  1.0000
  C   C931      1.0  0.89798  0.51539  0.31007  1.0000
  H   H1101     1.0  0.55050  0.52565  0.27908  1.0000
  C   C932      1.0  0.90602  0.67858  0.45105  1.0000
  H   H1102     1.0  0.58344  0.57623  0.45960  1.0000
  C   C933      1.0  0.53265  0.50403  0.32988  1.0000
  C   C934      1.0  0.48806  0.53986  0.44218  1.0000
  C   C935      1.0  0.96189  0.65572  0.48792  1.0000
  H   H1103     1.0  0.56933  0.59599  0.43438  1.0000
  C   C936      1.0  0.85311  0.66439  0.27917  1.0000
  C   C937      1.0  0.56336  0.55656  0.45734  1.0000
  H   H1104     1.0  0.58338  0.50319  0.43615  1.0000
  H   H1105     1.0  0.91919  0.70011  0.44614  1.0000
  H   H1106     1.0  0.58796  0.66487  0.47062  1.0000
  H   H1107     1.0  0.86133  0.66207  0.29288  1.0000
  N   N63       1.0  0.82338  0.64311  0.27556  1.0000
  C   C938      1.0  0.79207  0.66786  0.31427  1.0000
  H   H1108     1.0  0.63623  0.62164  0.48745  1.0000
  C   C939      1.0  0.53741  0.58242  0.46406  1.0000
  C   C940      1.0  0.51265  0.53730  0.44791  1.0000
  C   C941      1.0  0.90258  0.51689  0.29144  1.0000
  C   C942      1.0  0.93869  0.52344  0.40084  1.0000
  C   C943      1.0  0.55080  0.49518  0.41543  1.0000
  H   H1109     1.0  0.88779  0.63891  0.47729  1.0000
  H   H1110     1.0  0.89006  0.66732  0.43990  1.0000
  H   H1111     1.0  0.64716  0.74136  0.46086  1.0000
  H   H1112     1.0  0.81516  0.66624  0.25418  1.0000
  C   C944      1.0  0.94227  0.53819  0.36961  1.0000
  C   C945      1.0  0.90009  0.52741  0.38548  1.0000
  H   H1113     1.0  0.56992  0.50851  0.35815  1.0000
  N   N64       1.0  0.89257  0.67922  0.46841  1.0000
  N   N65       1.0  0.92306  0.51899  0.38305  1.0000
  H   H1114     1.0  0.84433  0.49842  0.41945  1.0000
  C   C946      1.0  0.87813  0.49587  0.43506  1.0000
  H   H1115     1.0  0.94924  0.56074  0.37357  1.0000
  C   C947      1.0  0.80317  0.64628  0.28781  1.0000
  H   H1116     1.0  0.57348  0.54026  0.33586  1.0000
  H   H1117     1.0  0.52088  0.51526  0.37404  1.0000
  C   C948      1.0  0.59634  0.65653  0.48131  1.0000
  H   H1118     1.0  0.92427  0.54372  0.48102  1.0000
  H   H1119     1.0  0.88692  0.71568  0.46150  1.0000
  H   H1120     1.0  0.95232  0.70619  0.46877  1.0000
  H   H1121     1.0  0.92507  0.50892  0.41118  1.0000
  H   H1122     1.0  0.86761  0.66191  0.26937  1.0000
  H   H1123     1.0  0.73163  0.61975  0.29298  1.0000
  C   C949      1.0  0.64869  0.73569  0.47485  1.0000
  H   H1124     1.0  0.80053  0.59773  0.27547  1.0000
  H   H1125     1.0  0.55863  0.54587  0.47064  1.0000
  H   H1126     1.0  0.86008  0.63723  0.46174  1.0000
  H   H1127     1.0  0.48887  0.56022  0.43963  1.0000
  C   C950      1.0  0.76326  0.65168  0.31056  1.0000
  C   C951      1.0  0.91318  0.69402  0.48361  1.0000
  H   H1128     1.0  0.86091  0.64798  0.48485  1.0000
  H   H1129     1.0  0.90275  0.49528  0.26698  1.0000
  H   H1130     1.0  0.91942  0.66740  0.45252  1.0000
  H   H1131     1.0  0.94600  0.54530  0.40637  1.0000
  C   C952      1.0  0.87419  0.69322  0.46489  1.0000
  H   H1132     1.0  0.85879  0.68272  0.45325  1.0000
  C   C953      1.0  0.54557  0.51960  0.29311  1.0000
  C   C954      1.0  0.94436  0.56199  0.48387  1.0000
  C   C955      1.0  0.98135  0.66685  0.47417  1.0000
  C   C956      1.0  0.63944  0.74705  0.48898  1.0000
  H   H1133     1.0  0.95467  0.49183  0.37343  1.0000
  Fe  Fe123     1.0  0.56454  0.72338  0.56834  1.0000
  S   S248      1.0  0.59367  0.70484  0.57778  1.0000
  S   S249      1.0  0.58612  0.77125  0.56557  1.0000
  Fe  Fe124     1.0  0.51441  0.66531  0.56499  1.0000
  S   S250      1.0  0.54038  0.64363  0.57390  1.0000
  H   H1134     1.0  0.53911  0.96322  0.67249  1.0000
  Fe  Fe125     1.0  0.55862  0.67780  0.59581  1.0000
  S   S251      1.0  0.56049  0.66149  0.62449  1.0000
  Fe  Fe126     1.0  0.57283  0.67244  0.55491  1.0000
  S   S252      1.0  0.59859  0.65628  0.53748  1.0000
  S   S253      1.0  0.53086  0.69816  0.58776  1.0000
  S   S254      1.0  0.54560  0.69233  0.54469  1.0000
  Fe  Fe127     1.0  0.56173  0.69902  0.73391  1.0000
  H   H1135     1.0  0.64143  0.98407  0.60115  1.0000
  S   S255      1.0  0.57209  0.71488  0.70479  1.0000
  Fe  Fe128     1.0  0.52907  0.94724  0.57398  1.0000
  N   N66       1.0  0.62905  0.75050  0.52191  1.0000
  H   H1136     1.0  0.58897  0.74863  0.52901  1.0000
  Fe  Fe129     1.0  0.55032  0.90360  0.56577  1.0000
  S   S256      1.0  0.59502  0.93392  0.57376  1.0000
  S   S257      1.0  0.53278  0.85764  0.55586  1.0000
  Fe  Fe130     1.0  0.57609  0.94496  0.59810  1.0000
  S   S258      1.0  0.59783  0.94817  0.62627  1.0000
  Fe  Fe131     1.0  0.58727  0.96670  0.55804  1.0000
  H   H1137     1.0  0.62337  0.74948  0.55099  1.0000
  S   S259      1.0  0.53161  0.91309  0.59066  1.0000
  S   S260      1.0  0.54379  0.93534  0.54832  1.0000
  Fe  Fe132     1.0  0.57063  0.94984  0.73726  1.0000
  H   H1138     1.0  0.49983  0.94343  0.63723  1.0000
  S   S261      1.0  0.56190  0.95928  0.70776  1.0000
  C   C957      1.0  0.58633  0.94954  0.64877  1.0000
  S   S262      1.0  0.57227  0.98001  0.58316  1.0000
  H   H1139     1.0  0.50497  0.64472  0.61361  1.0000
  C   C958      1.0  0.57141  0.95440  0.68525  1.0000
  H   H1140     1.0  0.55823  0.75656  0.72269  1.0000
  H   H1141     1.0  0.57458  0.79060  0.73337  1.0000
  H   H1142     1.0  0.61049  0.80974  0.70979  1.0000
  H   H1143     1.0  0.57401  0.82398  0.67449  1.0000
  H   H1144     1.0  0.60000  0.80121  0.68613  1.0000
  C   C959      1.0  0.57025  0.79459  0.56411  1.0000
  C   C960      1.0  0.58721  0.82363  0.56726  1.0000
  C   C961      1.0  0.57591  0.84310  0.56538  1.0000
  C   C962      1.0  0.54757  0.83381  0.55992  1.0000
  C   C963      1.0  0.53058  0.80476  0.55678  1.0000
  C   C964      1.0  0.54174  0.78522  0.55903  1.0000
  H   H1145     1.0  0.60929  0.83115  0.57115  1.0000
  H   H1146     1.0  0.58930  0.86534  0.56777  1.0000
  H   H1147     1.0  0.50867  0.79730  0.55250  1.0000
  H   H1148     1.0  0.52845  0.76301  0.55645  1.0000
  C   C965      1.0  0.56165  0.67631  0.64659  1.0000
  C   C966      1.0  0.55652  0.65907  0.66187  1.0000
  C   C967      1.0  0.55866  0.67018  0.67975  1.0000
  C   C968      1.0  0.56648  0.69886  0.68259  1.0000
  C   C969      1.0  0.57112  0.71597  0.66730  1.0000
  C   C970      1.0  0.56845  0.70475  0.64941  1.0000
  H   H1149     1.0  0.55157  0.63712  0.65988  1.0000
  H   H1150     1.0  0.55530  0.65681  0.69135  1.0000
  H   H1151     1.0  0.57738  0.73820  0.66927  1.0000
  H   H1152     1.0  0.57264  0.71832  0.63784  1.0000
  C   C971      1.0  0.92269  0.70803  0.51610  1.0000
  C   C972      1.0  0.61853  0.63622  0.50911  1.0000
  C   C973      1.0  0.60236  0.65027  0.51383  1.0000
  H   H1153     1.0  0.49685  0.86751  0.52896  1.0000
  H   H1154     1.0  0.62755  0.62856  0.51984  1.0000
  C   C974      1.0  0.59092  0.66003  0.49971  1.0000
  H   H1155     1.0  0.65408  0.74642  0.54443  1.0000
  H   H1156     1.0  0.63652  0.79055  0.53406  1.0000
  H   H1157     1.0  0.66855  0.69323  0.49929  1.0000
  H   H1158     1.0  0.66727  0.78909  0.52530  1.0000
  C   C975      1.0  0.60131  0.94577  0.66385  1.0000
  H   H1159     1.0  0.48627  0.52493  0.62202  1.0000
  S   S263      1.0  0.49575  0.96300  0.57221  1.0000
  H   H1160     1.0  0.95502  0.65554  0.51683  1.0000
  H   H1161     1.0  0.91498  0.70838  0.52958  1.0000
  H   H1162     1.0  0.56625  0.89268  0.70027  1.0000
  H   H1163     1.0  0.54375  0.74911  0.69191  1.0000
  H   H1164     1.0  0.59486  0.75102  0.50519  1.0000
  C   C976      1.0  0.66098  0.70877  0.49650  1.0000
  H   H1165     1.0  0.57410  0.87005  0.67280  1.0000
  C   C977      1.0  0.50166  0.56936  0.62745  1.0000
  C   C978      1.0  0.64036  0.73927  0.50736  1.0000
  C   C979      1.0  0.59383  0.94797  0.68194  1.0000
  H   H1166     1.0  0.55743  0.82305  0.73221  1.0000
  C   C980      1.0  0.63170  0.74038  0.54032  1.0000
  C   C981      1.0  0.59865  0.74182  0.51788  1.0000
  C   C982      1.0  0.64419  0.78170  0.52281  1.0000
  H   H1167     1.0  0.61944  0.71709  0.54095  1.0000
  C   C983      1.0  0.95165  0.71954  0.51372  1.0000
  H   H1168     1.0  0.49255  0.89853  0.52609  1.0000
  H   H1169     1.0  0.59573  0.77391  0.70147  1.0000
  C   C984      1.0  0.56361  0.95548  0.65207  1.0000
  H   H1170     1.0  0.65242  0.71186  0.52411  1.0000
  H   H1171     1.0  0.52329  0.76848  0.69307  1.0000
  H   H1172     1.0  0.64111  0.79131  0.51011  1.0000
  H   H1173     1.0  0.55019  0.77680  0.67660  1.0000
  H   H1174     1.0  0.49152  0.62122  0.69646  1.0000
  H   H1175     1.0  0.61902  0.94131  0.66153  1.0000
  H   H1176     1.0  0.58680  0.71850  0.51625  1.0000
  C   C985      1.0  0.90368  0.69557  0.50129  1.0000
  H   H1177     1.0  0.53739  0.77459  0.72676  1.0000
  C   C986      1.0  0.65157  0.71979  0.51072  1.0000
  C   C987      1.0  0.95794  0.56620  0.50108  1.0000
  H   H1178     1.0  0.55849  0.86882  0.72980  1.0000
  N   N67       1.0  0.56561  0.79067  0.70442  1.0000
  C   C988      1.0  0.54482  0.77052  0.69089  1.0000
  C   C989      1.0  0.59417  0.79408  0.70024  1.0000
  C   C990      1.0  0.55864  0.77772  0.72260  1.0000
  C   C991      1.0  0.56522  0.81838  0.70347  1.0000
  C   C992      1.0  0.56096  0.83216  0.71894  1.0000
  C   C993      1.0  0.57010  0.83287  0.68678  1.0000
  C   C994      1.0  0.56143  0.85863  0.71771  1.0000
  C   C995      1.0  0.57033  0.85930  0.68567  1.0000
  C   C996      1.0  0.56597  0.87214  0.70111  1.0000
  H   H1179     1.0  0.57846  0.67086  0.50298  1.0000
  C   C997      1.0  0.97059  0.66302  0.50646  1.0000
  C   C998      1.0  0.55638  0.95810  0.67015  1.0000
  H   H1180     1.0  0.55206  0.95871  0.64068  1.0000
  H   H1181     1.0  0.49797  0.59763  0.66901  1.0000
  H   H1182     1.0  0.60581  0.94534  0.69332  1.0000
  H   H1183     1.0  0.48789  0.60032  0.56495  1.0000
  C   C999      1.0  0.49539  0.59229  0.62698  1.0000
  H   H1184     1.0  0.57725  0.99020  0.51164  1.0000
  H   H1185     1.0  0.51203  0.61264  0.63112  1.0000
  C   C1000     1.0  0.96170  0.71913  0.49646  1.0000
  H   H1186     1.0  0.94736  0.55040  0.51098  1.0000
  S   S264      1.0  0.51683  0.68187  0.74233  1.0000
  H   H1187     1.0  0.48872  0.63541  0.64400  1.0000
  H   H1188     1.0  0.52269  0.57255  0.63174  1.0000
  H   H1189     1.0  0.88142  0.68666  0.50387  1.0000
  H   H1190     1.0  0.96639  0.72840  0.52530  1.0000
  H   H1191     1.0  0.96355  0.57217  0.53939  1.0000
  H   H1192     1.0  0.98303  0.62372  0.53185  1.0000
  H   H1193     1.0  0.98183  0.55221  0.53173  1.0000
  C   C1001     1.0  0.98422  0.59012  0.50507  1.0000
  C   C1002     1.0  0.98453  0.57329  0.53647  1.0000
  H   H1194     1.0  0.98425  0.72760  0.49474  1.0000
  H   H1195     1.0  0.76553  0.73682  0.95787  1.0000
  H   H1196     1.0  0.82337  0.82318  0.98284  1.0000
  H   H1197     1.0  0.82492  0.75762  0.94109  1.0000
  C   C1003     1.0  0.57190  0.60457  0.80809  1.0000
  H   H1198     1.0  0.62214  0.92034  0.79156  1.0000
  H   H1199     1.0  0.71571  0.95345  0.87188  1.0000
  Fe  Fe133     1.0  0.96935  0.80248  0.90201  1.0000
  S   S265      1.0  0.93818  0.81952  0.89338  1.0000
  S   S266      1.0  0.95781  0.75673  0.90557  1.0000
  Fe  Fe134     1.0  0.77462  0.78467  0.90133  1.0000
  S   S267      1.0  0.73301  0.75972  0.91467  1.0000
  S   S268      1.0  0.80492  0.76451  0.90311  1.0000
  Fe  Fe135     1.0  0.75973  0.83322  0.89416  1.0000
  S   S269      1.0  0.71849  0.81200  0.90772  1.0000
  S   S270      1.0  0.77008  0.87494  0.88112  1.0000
  Fe  Fe136     1.0  0.74223  0.80050  0.92952  1.0000
  S   S271      1.0  0.74578  0.81403  0.95977  1.0000
  Fe  Fe137     1.0  0.71321  0.77354  0.89133  1.0000
  S   S272      1.0  0.66991  0.74821  0.87623  1.0000
  S   S273      1.0  0.78412  0.82476  0.91676  1.0000
  S   S274      1.0  0.75406  0.79534  0.87707  1.0000
  Fe  Fe138     1.0  0.58443  0.70559  0.77491  1.0000
  S   S275      1.0  0.54046  0.68894  0.78539  1.0000
  S   S276      1.0  0.62638  0.72077  0.79198  1.0000
  Fe  Fe139     1.0  0.53382  0.71603  0.76418  1.0000
  H   H1200     1.0  0.68021  0.97190  0.79917  1.0000
  Fe  Fe140     1.0  0.52764  0.65621  0.76250  1.0000
  H   H1201     1.0  0.89911  0.81131  0.95051  1.0000
  C   C1004     1.0  0.56255  0.79095  0.77171  1.0000
  H   H1202     1.0  0.92329  0.76210  0.87268  1.0000
  S   S277      1.0  0.74820  0.96217  0.92995  1.0000
  Fe  Fe141     1.0  0.60109  0.96909  0.77605  1.0000
  S   S278      1.0  0.56995  0.92976  0.78861  1.0000
  H   H1203     1.0  0.49864  0.79060  0.76506  1.0000
  H   H1204     1.0  0.55657  0.59412  0.79644  1.0000
  C   C1005     1.0  0.64668  0.67403  0.85130  1.0000
  Fe  Fe142     1.0  0.53641  0.93499  0.77162  1.0000
  C   C1006     1.0  0.95801  0.72032  0.82041  1.0000
  H   H1205     1.0  0.90799  0.78185  0.81840  1.0000
  C   C1007     1.0  0.81479  0.80350  0.98982  1.0000
  S   S279      1.0  0.96827  0.74986  0.95829  1.0000
  H   H1206     1.0  0.63180  0.94522  0.80970  1.0000
  C   C1008     1.0  0.53333  0.78018  0.76914  1.0000
  H   H1207     1.0  0.52918  0.84237  0.76488  1.0000
  H   H1208     1.0  0.58651  0.59467  0.80914  1.0000
  H   H1209     1.0  0.55935  0.59943  0.82056  1.0000
  H   H1210     1.0  0.53541  0.96332  0.81348  1.0000
  C   C1009     1.0  0.72701  0.76841  0.98303  1.0000
  H   H1211     1.0  0.64755  0.89566  0.78440  1.0000
  C   C1010     1.0  0.94340  0.79984  0.84731  1.0000
  H   H1212     1.0  0.55432  0.64277  0.81716  1.0000
  C   C1011     1.0  0.76373  0.89909  0.89460  1.0000
  C   C1012     1.0  0.75604  0.89337  0.91270  1.0000
  C   C1013     1.0  0.75117  0.91286  0.92330  1.0000
  C   C1014     1.0  0.75384  0.93813  0.91589  1.0000
  C   C1015     1.0  0.76121  0.94377  0.89771  1.0000
  C   C1016     1.0  0.76618  0.92427  0.88709  1.0000
  H   H1213     1.0  0.75426  0.87413  0.91865  1.0000
  H   H1214     1.0  0.74550  0.90838  0.93735  1.0000
  H   H1215     1.0  0.76354  0.96331  0.89194  1.0000
  H   H1216     1.0  0.77228  0.92886  0.87313  1.0000
  C   C1017     1.0  0.65844  0.74194  0.85261  1.0000
  C   C1018     1.0  0.62939  0.73097  0.84793  1.0000
  C   C1019     1.0  0.61917  0.72478  0.82956  1.0000
  C   C1020     1.0  0.63787  0.72918  0.81549  1.0000
  C   C1021     1.0  0.66694  0.74031  0.82015  1.0000
  C   C1022     1.0  0.67717  0.74673  0.83851  1.0000
  H   H1217     1.0  0.61459  0.72705  0.85864  1.0000
  H   H1218     1.0  0.59680  0.71637  0.82634  1.0000
  H   H1219     1.0  0.68169  0.74380  0.80947  1.0000
  H   H1220     1.0  0.69952  0.75485  0.84175  1.0000
  C   C1023     1.0  0.74188  0.79755  0.98123  1.0000
  H   H1221     1.0  0.92936  0.72618  0.85967  1.0000
  N   N68       1.0  0.80574  0.77420  0.96038  1.0000
  C   C1024     1.0  0.52129  0.79883  0.76694  1.0000
  H   H1222     1.0  0.71777  0.75499  0.97105  1.0000
  C   C1025     1.0  0.90163  0.80490  0.89790  1.0000
  C   C1026     1.0  0.88703  0.77788  0.90475  1.0000
  C   C1027     1.0  0.85750  0.76599  0.90639  1.0000
  C   C1028     1.0  0.84228  0.78110  0.90157  1.0000
  C   C1029     1.0  0.85701  0.80845  0.89530  1.0000
  C   C1030     1.0  0.88646  0.82013  0.89332  1.0000
  H   H1223     1.0  0.89834  0.76582  0.90825  1.0000
  H   H1224     1.0  0.84633  0.74476  0.91117  1.0000
  H   H1225     1.0  0.84563  0.82033  0.89150  1.0000
  H   H1226     1.0  0.89750  0.84101  0.88796  1.0000
  C   C1031     1.0  0.71640  0.94091  0.84393  1.0000
  H   H1227     1.0  0.61011  0.97865  0.82573  1.0000
  H   H1228     1.0  0.66954  0.95402  0.86787  1.0000
  C   C1032     1.0  0.82243  0.75880  0.95608  1.0000
  C   C1033     1.0  0.94527  0.75873  0.81863  1.0000
  H   H1229     1.0  0.84095  0.81459  0.95602  1.0000
  C   C1034     1.0  0.91897  0.79094  0.96647  1.0000
  H   H1230     1.0  0.77709  0.75514  0.93728  1.0000
  N   N69       1.0  0.68224  0.83237  0.85679  1.0000
  C   C1035     1.0  0.70561  0.82412  0.85664  1.0000
  C   C1036     1.0  0.69518  0.86338  0.85981  1.0000
  C   C1037     1.0  0.66468  0.81864  0.87248  1.0000
  C   C1038     1.0  0.66423  0.82409  0.83982  1.0000
  C   C1039     1.0  0.64147  0.83125  0.83762  1.0000
  C   C1040     1.0  0.66780  0.80789  0.82545  1.0000
  C   C1041     1.0  0.62320  0.82231  0.82217  1.0000
  C   C1042     1.0  0.64934  0.79898  0.81012  1.0000
  C   C1043     1.0  0.62703  0.80603  0.80853  1.0000
  H   H1231     1.0  0.72020  0.83416  0.84544  1.0000
  H   H1232     1.0  0.71867  0.83068  0.86952  1.0000
  H   H1233     1.0  0.69759  0.80092  0.85553  1.0000
  H   H1234     1.0  0.70772  0.87445  0.84798  1.0000
  H   H1235     1.0  0.70988  0.87023  0.87207  1.0000
  H   H1236     1.0  0.67932  0.87129  0.86214  1.0000
  H   H1237     1.0  0.65450  0.79526  0.87063  1.0000
  H   H1238     1.0  0.67750  0.82390  0.88550  1.0000
  H   H1239     1.0  0.64767  0.82511  0.87440  1.0000
  H   H1240     1.0  0.63723  0.84321  0.84806  1.0000
  H   H1241     1.0  0.68432  0.80124  0.82584  1.0000
  H   H1242     1.0  0.60555  0.82744  0.82090  1.0000
  S   S280      1.0  0.59070  0.87467  0.76745  1.0000
  H   H1243     1.0  0.96782  0.70815  0.81454  1.0000
  H   H1244     1.0  0.73656  0.96027  0.97416  1.0000
  H   H1245     1.0  0.78428  0.73177  0.98498  1.0000
  C   C1044     1.0  0.72350  0.87799  0.98669  1.0000
  H   H1246     1.0  0.72915  0.98634  0.98539  1.0000
  C   C1045     1.0  0.93390  0.75326  0.83626  1.0000
  H   H1247     1.0  0.61022  0.65820  0.86766  1.0000
  C   C1046     1.0  0.53852  0.82810  0.76687  1.0000
  H   H1248     1.0  0.57683  0.63548  0.84203  1.0000
  C   C1047     1.0  0.65957  0.90136  0.79779  1.0000
  S   S281      1.0  0.57819  0.73446  0.75498  1.0000
  C   C1048     1.0  0.90464  0.80727  0.96417  1.0000
  S   S282      1.0  0.60741  0.94677  0.75150  1.0000
  H   H1249     1.0  0.64398  0.94205  0.83869  1.0000
  C   C1049     1.0  0.52455  0.97398  0.82083  1.0000
  H   H1250     1.0  0.80641  0.81381  0.95319  1.0000
  C   C1050     1.0  0.66386  0.94096  0.83946  1.0000
  H   H1251     1.0  0.78493  0.96963  0.96774  1.0000
  N   N70       1.0  0.66138  0.92806  0.80564  1.0000
  H   H1252     1.0  0.81221  0.73669  0.96058  1.0000
  C   C1051     1.0  0.71325  0.84979  0.99112  1.0000
  N   N71       1.0  0.92118  0.77062  0.84407  1.0000
  H   H1253     1.0  0.84389  0.76927  0.96270  1.0000
  H   H1254     1.0  0.67902  0.68839  0.83168  1.0000
  H   H1255     1.0  0.71293  0.93042  0.81562  1.0000
  H   H1256     1.0  0.81922  0.79878  0.93613  1.0000
  H   H1257     1.0  0.88801  0.78249  0.83722  1.0000
  C   C1052     1.0  0.81873  0.80164  0.95116  1.0000
  C   C1053     1.0  0.67543  0.93401  0.82405  1.0000
  H   H1258     1.0  0.76378  0.76944  0.95472  1.0000
  H   H1259     1.0  0.70812  0.83392  0.98031  1.0000
  C   C1054     1.0  0.67798  0.95140  0.79354  1.0000
  H   H1260     1.0  0.65194  0.78589  0.79956  1.0000
  H   H1261     1.0  0.92457  0.78225  0.95464  1.0000
  C   C1055     1.0  0.89916  0.77102  0.83121  1.0000
  H   H1262     1.0  0.72601  0.88387  0.97250  1.0000
  N   N72       1.0  0.58776  0.63535  0.80565  1.0000
  C   C1056     1.0  0.56747  0.64758  0.80499  1.0000
  C   C1057     1.0  0.60088  0.63963  0.78761  1.0000
  C   C1058     1.0  0.60838  0.64840  0.82113  1.0000
  C   C1059     1.0  0.63793  0.66371  0.81883  1.0000
  C   C1060     1.0  0.59898  0.64643  0.83923  1.0000
  H   H1263     1.0  0.61246  0.79845  0.79681  1.0000
  C   C1061     1.0  0.93605  0.73111  0.84586  1.0000
  H   H1264     1.0  0.89115  0.73797  0.86038  1.0000
  H   H1265     1.0  0.55246  0.63938  0.79295  1.0000
  H   H1266     1.0  0.57885  0.67091  0.80419  1.0000
  H   H1267     1.0  0.61599  0.63037  0.78690  1.0000
  H   H1268     1.0  0.58479  0.62958  0.77629  1.0000
  H   H1269     1.0  0.61213  0.66241  0.78449  1.0000
  H   H1270     1.0  0.64709  0.66723  0.80560  1.0000
  C   C1062     1.0  0.63219  0.92526  0.80551  1.0000
  C   C1063     1.0  0.77680  0.75817  0.95230  1.0000
  S   S283      1.0  0.50372  0.60838  0.76543  1.0000
  H   H1271     1.0  0.57191  0.77687  0.77395  1.0000
  H   H1272     1.0  0.60241  0.82816  0.77301  1.0000
  C   C1064     1.0  0.74415  0.98330  0.97647  1.0000
  H   H1273     1.0  0.66758  0.94842  0.77970  1.0000
  H   H1274     1.0  0.89693  0.77280  0.86667  1.0000
  H   H1275     1.0  0.62587  0.98543  0.85848  1.0000
  H   H1276     1.0  0.73706  0.94147  0.84570  1.0000
  H   H1277     1.0  0.95364  0.80981  0.83457  1.0000
  H   H1278     1.0  0.94552  0.77594  0.81080  1.0000
  C   C1065     1.0  0.95702  0.74238  0.81085  1.0000
  C   C1066     1.0  0.89775  0.81856  0.97941  1.0000
  C   C1067     1.0  0.90757  0.76022  0.86167  1.0000
  H   H1279     1.0  0.49238  0.95857  0.75368  1.0000
  H   H1280     1.0  0.64853  0.88356  0.80701  1.0000
  H   H1281     1.0  0.53154  0.98902  0.78650  1.0000
  H   H1282     1.0  0.68055  0.90253  0.79506  1.0000
  C   C1068     1.0  0.79278  0.75263  0.99116  1.0000
  H   H1283     1.0  0.93476  0.81357  0.85344  1.0000
  H   H1284     1.0  0.88302  0.74923  0.82752  1.0000
  C   C1069     1.0  0.70229  0.93440  0.82680  1.0000
  C   C1070     1.0  0.80456  0.77700  0.98041  1.0000
  Fe  Fe143     1.0  0.57507  0.90762  0.76385  1.0000
  H   H1285     1.0  0.93832  0.77373  0.98488  1.0000
  H   H1286     1.0  0.69959  0.95355  0.79173  1.0000
  H   H1287     1.0  0.95102  0.72572  0.99321  1.0000
  S   S284      1.0  0.51174  0.74354  0.76813  1.0000
  C   C1071     1.0  0.92683  0.78619  0.98396  1.0000
  C   C1072     1.0  0.61789  0.65920  0.85403  1.0000
  C   C1073     1.0  0.67831  0.94777  0.85646  1.0000
  C   C1074     1.0  0.65667  0.67611  0.83377  1.0000
  C   C1075     1.0  0.56783  0.83866  0.76892  1.0000
  C   C1076     1.0  0.70445  0.94767  0.85871  1.0000
  H   H1288     1.0  0.94987  0.69854  0.84565  1.0000
  C   C1077     1.0  0.57975  0.82004  0.77145  1.0000
  H   H1289     1.0  0.61841  0.90813  0.81441  1.0000
  H   H1290     1.0  0.52897  0.97325  0.83565  1.0000
  C   C1078     1.0  0.94775  0.71485  0.83791  1.0000
  S   S285      1.0  0.49514  0.92619  0.78512  1.0000
  S   S286      1.0  0.56717  0.97640  0.76067  1.0000
  H   H1291     1.0  0.96027  0.80042  0.85698  1.0000
  H   H1292     1.0  0.66121  0.68468  0.86272  1.0000
  S   S287      1.0  0.53857  0.90869  0.74801  1.0000
  S   S288      1.0  0.57221  0.67149  0.75287  1.0000
  H   H1293     1.0  0.50143  0.96087  0.81827  1.0000
  H   H1294     1.0  0.88676  0.83142  0.97757  1.0000
  H   H1295     1.0  0.96595  0.74709  0.79747  1.0000
  Fe  Fe144     1.0  0.98509  0.77188  0.93155  1.0000
  C   C1079     1.0  0.98474  0.76015  0.98042  1.0000
  C   C1080     1.0  0.63227  0.99053  0.82952  1.0000
  H   H1296     1.0  0.50038  0.99012  0.79368  1.0000
