data_image0
_chemical_formula_structural       FeS2FeS2FeSFeS3FeS2FeS2FeNFeCS2FeH2FeS2FeCFeCS2HNHNH2C3H3CHCHCH5C6H4CHC3HNH2C7H4C4HCH6C2H2C2SH2NCHCSC3HC2H5C2H2CHCH2CNC7H15NHCHCH2C2H2SCH6CHC2H3CHCHCSHCH3C2HCHCHCH2CH2SH2SC2H2C2H2C3HC3H4CH3C2H2CHCH3C3HC2HC2HSH2C3HCH3C3FeCFeS2FeSFeCS2HFeS2HCFeSFeHS2FeSH3FeSFeS3C2HC4H3CH2C2H2C2HC3H4SCH7C8H2C4H2C2HCH2SHSHNHC3H3CH7SHCHNH4CH3NH2CHCHC3HC3NHC3H4CHC2H2CHC2H5CHCH2C6HCNFeS2FeS2FeSFeS3FeS2FeS2FeHFeHS2FeSCFeS2FeCFeCS3H2CHCHCH8CHC2H2C6H4CH2CHCH4C6H4C6HC2HC3H5SC4NH4CH2SCNHC3H4C2NCH2C2H2C2H2SHCH2C3HNC9H14NC9NH12CH4CSCH3CHCHCHC2SH5SCSCHCHCHSC3H2C2FeCFeS2FeHFeHS2HFeS2CHFeSFeCS2FeSCH2FeSFeS3CH2C3H4CH2C2H4C5H6CH3CH2C6H3CH3NC9H12C6NC7SHCHCH2SH2NHSHCH2C2HFeH2CH3CHCH4CH2C3HCS2CHCFeS2HCFeHS4FeSHFeS2FeHFeS3C6H4C6H7NHC2HC2HC2HC3HC2H7C2HCH5NCH2CH3CHNC2SHCFeC4HCHFeHCHNCH2CH3C2H4CNH3C8HCH2CH9C3H11SHSFeS2H5NHC2HCH4C2HCHCFeCH2CHCSHC2HC5SCFeSCFeS2FeHFeS3FeSFeS2CHFeHS2C4NC2HC3H4CH3C3HC6H4CHC2HCNH2C6H8C2HCSC2HSCH2CSC2HCNC2HC7H2CHNC2H6CHCHSHCH3CH2C2H3CNHSCH3CHCH3CH4CH6C3HCHFeH2FeH7CH3CHCHNC4H2CH3CH3SHCFeHC2SCH2CHCFeHFeS2CH2CS4FeSCFeS2FeHFeS3C6H4C6H5CH2C3HC2HCH2C3HCHCHC3HCHCH2CHNC9H14SH7CNCH5NHC2SCH4CHCH3CHCSNC4HCH2CFeSCHC3H2CH5C2H3C3NHCHSH3CH3CH2FeCHCHCHCHC5SH4SFe2SHFeS2FeCFeS3FeSFeS2CHCHS2HCH2C4H5CH5CH3C6H8NH4C6H3CHCHCSNCH2CNC9H17SHC3HC2H2C2H2CNC2H2C2HC2H5CSC3SCSC4HNC4HC2HCNHFeC3HFeHCHC2HSH4CNCH5C3H2C2H4CH2C2H7CH2CHCH4C3H4SHC2HC5HSCS2HFeHFeCFeS2CHFeSFeCS2C2FeS2FeSFeS3C2FeCHCHCH2C5H4FeC6H3C2H2CH3SHSC2H3CH4NHCSH4CH2CH3C2SC7SH2CH3NCH2C2H2CHCH5CH4CH2CHCNC5SHC2H2C2NHSH2CH2CHCH4SHCFeS2FeS2FeSFeS3FeS2FeSCFeSFeS3FeSHFeS2FeHFeS2HCH2C2NC2HC7H4C6H4C4SCH2CHCH5CHC3H5C2HCHCHCH2C2HCHC2H5CNHC3NC6H15CHC3HCH3CNH2NH2C3HC2H3C2HCHSH3CSH2NC9H9C3H3C2SCH3CHCH2CHCH3CH3CH3C3HC3SH5CH3C2HSH2SHFeSFeSFeS2C2FeSFeS3H2FeSHFeSFeS3C5H3CHC6H4FeC6H2CHC2H4C2HCHCH6C3H2CH2C2HCHC2H2C5HNH3CHFeHFeH2C2HCH6CSH7CH2CH2N2C2HC2HFeHC2H2C5H3NH3CSC2H2CHC3H2SC3FeS2FeS2FeSFeS3FeSHFeSCFeSFeS3FeSCFeS2FeCFeS2NCH2C3H2NC7H4C6H4C6H2SH4C2HC2H2CHC3SHNH2C4HCH8CH2CH4SCHCH3CHCHC2HSHNC3H8CHC7H7CHCH2CH2NH2C4H10CHCHC2SH2C4H2CHSCHCH4C2H2SC4H
_chemical_formula_sum              "Fe128 S256 N64 C960 H1152"
_cell_length_a       82.9999
_cell_length_b       47.7913
_cell_length_c       34.687
_cell_angle_alpha    90.1191
_cell_angle_beta     89.8464
_cell_angle_gamma    90.259

_space_group_name_H-M_alt    "P 1"
_space_group_IT_number       1

loop_
  _space_group_symop_operation_xyz
  'x, y, z'

loop_
  _atom_site_type_symbol
  _atom_site_label
  _atom_site_symmetry_multiplicity
  _atom_site_fract_x
  _atom_site_fract_y
  _atom_site_fract_z
  _atom_site_occupancy
  Fe  Fe1       1.0  0.15896  0.11192  0.30606  1.0000
  S   S1        1.0  0.16573  0.11059  0.24317  1.0000
  S   S2        1.0  0.13374  0.09574  0.32320  1.0000
  Fe  Fe2       1.0  0.19445  0.12513  0.33001  1.0000
  S   S3        1.0  0.20304  0.12556  0.26803  1.0000
  S   S4        1.0  0.20931  0.12620  0.38680  1.0000
  Fe  Fe3       1.0  0.18032  0.14986  0.25469  1.0000
  S   S5        1.0  0.17510  0.18274  0.20747  1.0000
  Fe  Fe4       1.0  0.18775  0.08665  0.26015  1.0000
  S   S6        1.0  0.19980  0.04811  0.23290  1.0000
  S   S7        1.0  0.17248  0.15216  0.31745  1.0000
  S   S8        1.0  0.18019  0.08523  0.32233  1.0000
  Fe  Fe5       1.0  0.18652  0.39683  0.10033  1.0000
  S   S9        1.0  0.18468  0.40317  0.03583  1.0000
  S   S10       1.0  0.18654  0.42782  0.15145  1.0000
  Fe  Fe6       1.0  0.19201  0.33237  0.09231  1.0000
  S   S11       1.0  0.19053  0.33486  0.02750  1.0000
  S   S12       1.0  0.20231  0.29436  0.12523  1.0000
  Fe  Fe7       1.0  0.20598  0.37375  0.02996  1.0000
  N   N1        1.0  0.23799  0.28980  0.03467  1.0000
  Fe  Fe8       1.0  0.16927  0.36384  0.03728  1.0000
  C   C1        1.0  0.05440  0.08097  0.25666  1.0000
  S   S13       1.0  0.20850  0.36993  0.09450  1.0000
  S   S14       1.0  0.16997  0.35898  0.10209  1.0000
  Fe  Fe9       1.0  0.01331  0.09053  0.43068  1.0000
  H   H1        1.0  0.06640  0.48244  0.04225  1.0000
  H   H2        1.0  0.23712  0.47341  0.02359  1.0000
  Fe  Fe10      1.0  0.04136  0.12665  0.39742  1.0000
  S   S15       1.0  0.02433  0.15185  0.36097  1.0000
  S   S16       1.0  0.06728  0.14371  0.39186  1.0000
  Fe  Fe11      1.0  0.00817  0.15370  0.41334  1.0000
  C   C2        1.0  0.20405  0.03998  0.10313  1.0000
  Fe  Fe12      1.0  0.01261  0.11074  0.34647  1.0000
  C   C3        1.0  0.24443  0.19087  0.47274  1.0000
  S   S17       1.0  0.02567  0.13053  0.45098  1.0000
  S   S18       1.0  0.03043  0.08513  0.38045  1.0000
  H   H3        1.0  0.03126  0.44526  0.99894  1.0000
  N   N2        1.0  0.04605  0.45453  0.04856  1.0000
  H   H4        1.0  0.05913  0.10826  0.32297  1.0000
  N   N3        1.0  0.23441  0.45037  0.07685  1.0000
  H   H5        1.0  0.06028  0.26566  0.47542  1.0000
  H   H6        1.0  0.21687  0.42665  0.04489  1.0000
  C   C4        1.0  0.02510  0.29862  0.45934  1.0000
  C   C5        1.0  0.13313  0.47492  0.13844  1.0000
  C   C6        1.0  0.21752  0.44366  0.06679  1.0000
  H   H7        1.0  0.02837  0.19819  0.43326  1.0000
  H   H8        1.0  0.19570  0.01255  0.05817  1.0000
  H   H9        1.0  0.10196  0.17349  0.25957  1.0000
  C   C7        1.0  0.04181  0.24974  0.43557  1.0000
  H   H10       1.0  0.05224  0.44196  0.99055  1.0000
  C   C8        1.0  0.18823  0.48451  0.13109  1.0000
  H   H11       1.0  0.07277  0.20206  0.42612  1.0000
  C   C9        1.0  0.04912  0.12673  0.23175  1.0000
  H   H12       1.0  0.17557  0.04611  0.03396  1.0000
  H   H13       1.0  0.20518  0.02263  0.30921  1.0000
  H   H14       1.0  0.26832  0.06241  0.42207  1.0000
  H   H15       1.0  0.12192  0.13570  0.25168  1.0000
  H   H16       1.0  0.05627  0.20038  0.37295  1.0000
  C   C10       1.0  0.18280  0.21443  0.18647  1.0000
  C   C11       1.0  0.17275  0.23012  0.16200  1.0000
  C   C12       1.0  0.17831  0.25487  0.14380  1.0000
  C   C13       1.0  0.19417  0.26415  0.14923  1.0000
  C   C14       1.0  0.20428  0.24831  0.17341  1.0000
  C   C15       1.0  0.19863  0.22381  0.19214  1.0000
  H   H17       1.0  0.16049  0.22319  0.15722  1.0000
  H   H18       1.0  0.17035  0.26659  0.12528  1.0000
  H   H19       1.0  0.21657  0.25515  0.17795  1.0000
  H   H20       1.0  0.20658  0.21211  0.21069  1.0000
  C   C16       1.0  0.18788  0.46458  0.16058  1.0000
  H   H21       1.0  0.20007  0.04652  0.36574  1.0000
  C   C17       1.0  0.04930  0.21916  0.38210  1.0000
  C   C18       1.0  0.19267  0.02247  0.19927  1.0000
  C   C19       1.0  0.06694  0.22170  0.43654  1.0000
  H   H22       1.0  0.06820  0.22127  0.46846  1.0000
  N   N4        1.0  0.04977  0.22320  0.42458  1.0000
  H   H23       1.0  0.17043  0.04305  0.18557  1.0000
  H   H24       1.0  0.22293  0.17924  0.44152  1.0000
  C   C20       1.0  0.01023  0.24527  0.99208  1.0000
  C   C21       1.0  0.11553  0.10971  0.34299  1.0000
  C   C22       1.0  0.10239  0.09150  0.34940  1.0000
  C   C23       1.0  0.08760  0.10141  0.36421  1.0000
  C   C24       1.0  0.08567  0.12984  0.37279  1.0000
  C   C25       1.0  0.09880  0.14808  0.36644  1.0000
  C   C26       1.0  0.11362  0.13815  0.35161  1.0000
  H   H25       1.0  0.10373  0.06946  0.34304  1.0000
  H   H26       1.0  0.07781  0.08692  0.36961  1.0000
  H   H27       1.0  0.09756  0.17007  0.37309  1.0000
  H   H28       1.0  0.12355  0.15246  0.34685  1.0000
  C   C27       1.0  0.22925  0.12498  0.40682  1.0000
  C   C28       1.0  0.24321  0.12893  0.38464  1.0000
  C   C29       1.0  0.25863  0.12759  0.40197  1.0000
  C   C30       1.0  0.26046  0.12245  0.44177  1.0000
  H   H29       1.0  0.07403  0.23955  0.42471  1.0000
  C   C31       1.0  0.23108  0.11980  0.44661  1.0000
  H   H30       1.0  0.24216  0.13319  0.35414  1.0000
  H   H31       1.0  0.26926  0.13065  0.38434  1.0000
  H   H32       1.0  0.16244  0.00837  0.13548  1.0000
  H   H33       1.0  0.24714  0.27013  0.08613  1.0000
  H   H34       1.0  0.27012  0.24309  0.44452  1.0000
  H   H35       1.0  0.05823  0.07298  0.22794  1.0000
  C   C32       1.0  0.24884  0.23075  0.41487  1.0000
  C   C33       1.0  0.23474  0.31657  0.05470  1.0000
  H   H36       1.0  0.22405  0.44964  0.15245  1.0000
  H   H37       1.0  0.04688  0.17930  0.43676  1.0000
  C   C34       1.0  0.24196  0.42508  0.09381  1.0000
  C   C35       1.0  0.17356  0.00554  0.15114  1.0000
  S   S19       1.0  0.00875  0.09245  0.28605  1.0000
  H   H38       1.0  0.22695  0.21421  0.39029  1.0000
  H   H39       1.0  0.01298  0.45259  0.04772  1.0000
  N   N5        1.0  0.22428  0.04061  0.34386  1.0000
  C   C36       1.0  0.24651  0.11850  0.46395  1.0000
  H   H40       1.0  0.21310  0.02694  0.39676  1.0000
  C   C37       1.0  0.04108  0.19972  0.44318  1.0000
  S   S20       1.0  0.03136  0.37511  0.98923  1.0000
  C   C38       1.0  0.24319  0.45675  0.04046  1.0000
  C   C39       1.0  0.22334  0.27185  0.03696  1.0000
  C   C40       1.0  0.22875  0.46966  0.14310  1.0000
  H   H41       1.0  0.23470  0.41599  0.11772  1.0000
  C   C41       1.0  0.21771  0.01800  0.31881  1.0000
  C   C42       1.0  0.08768  0.09628  0.25270  1.0000
  H   H42       1.0  0.23405  0.06472  0.29689  1.0000
  H   H43       1.0  0.29071  0.21780  0.46948  1.0000
  H   H44       1.0  0.01971  0.24176  0.40295  1.0000
  H   H45       1.0  0.22045  0.11669  0.46424  1.0000
  H   H46       1.0  0.24526  0.33104  0.05293  1.0000
  C   C43       1.0  0.23448  0.47379  0.10491  1.0000
  C   C44       1.0  0.17808  0.02534  0.17954  1.0000
  H   H47       1.0  0.04361  0.47615  0.99459  1.0000
  H   H48       1.0  0.01519  0.00663  0.43451  1.0000
  C   C45       1.0  0.24765  0.05267  0.38691  1.0000
  H   H49       1.0  0.23163  0.31336  0.08567  1.0000
  C   C46       1.0  0.04314  0.45452  0.00641  1.0000
  H   H50       1.0  0.18750  0.47779  0.10138  1.0000
  H   H51       1.0  0.03965  0.11573  0.30365  1.0000
  C   C47       1.0  0.24054  0.03462  0.35913  1.0000
  N   N6        1.0  0.18694  0.11167  0.13050  1.0000
  C   C48       1.0  0.16978  0.11276  0.14258  1.0000
  C   C49       1.0  0.19689  0.11547  0.16566  1.0000
  C   C50       1.0  0.19031  0.13567  0.10463  1.0000
  C   C51       1.0  0.19010  0.08500  0.10998  1.0000
  C   C52       1.0  0.20194  0.06551  0.12225  1.0000
  C   C53       1.0  0.18094  0.07758  0.07692  1.0000
  C   C54       1.0  0.18304  0.05182  0.05835  1.0000
  H   H52       1.0  0.16651  0.09409  0.16017  1.0000
  H   H53       1.0  0.16718  0.13180  0.16019  1.0000
  H   H54       1.0  0.25421  0.42992  0.10505  1.0000
  H   H55       1.0  0.19463  0.09840  0.18682  1.0000
  H   H56       1.0  0.19411  0.13551  0.18071  1.0000
  H   H57       1.0  0.20998  0.11611  0.15876  1.0000
  H   H58       1.0  0.18238  0.13569  0.07888  1.0000
  H   H59       1.0  0.18833  0.15607  0.11969  1.0000
  H   H60       1.0  0.20302  0.13531  0.09430  1.0000
  H   H61       1.0  0.20935  0.06888  0.14739  1.0000
  H   H62       1.0  0.17184  0.09141  0.06567  1.0000
  H   H63       1.0  0.04117  0.07709  0.25915  1.0000
  H   H64       1.0  0.12711  0.47016  0.11149  1.0000
  H   H65       1.0  0.06646  0.46138  0.08587  1.0000
  H   H66       1.0  0.28414  0.02196  0.39884  1.0000
  N   N7        1.0  0.05839  0.11114  0.26123  1.0000
  H   H67       1.0  0.11302  0.08660  0.24813  1.0000
  C   C55       1.0  0.27209  0.02538  0.38786  1.0000
  H   H68       1.0  0.03601  0.12137  0.23284  1.0000
  C   C56       1.0  0.21269  0.04472  0.37613  1.0000
  H   H69       1.0  0.03111  0.41770  0.05693  1.0000
  H   H70       1.0  0.04495  0.42507  0.09536  1.0000
  C   C57       1.0  0.22506  0.06656  0.32063  1.0000
  C   C58       1.0  0.10599  0.40008  0.01395  1.0000
  H   H71       1.0  0.10214  0.41798  0.03061  1.0000
  H   H72       1.0  0.21227  0.28291  0.02766  1.0000
  S   S21       1.0  0.28041  0.12063  0.46168  1.0000
  C   C59       1.0  0.03472  0.47423  0.06728  1.0000
  H   H73       1.0  0.06008  0.06814  0.27965  1.0000
  H   H74       1.0  0.16138  0.11349  0.11777  1.0000
  H   H75       1.0  0.03690  0.21550  0.37118  1.0000
  H   H76       1.0  0.21122  0.46223  0.05484  1.0000
  H   H77       1.0  0.08473  0.07429  0.25198  1.0000
  H   H78       1.0  0.15619  0.44349  0.20604  1.0000
  C   C60       1.0  0.01813  0.28038  0.43283  1.0000
  H   H79       1.0  0.05471  0.14250  0.30561  1.0000
  C   C61       1.0  0.05274  0.11985  0.29993  1.0000
  C   C62       1.0  0.26317  0.04808  0.40101  1.0000
  H   H80       1.0  0.22477  0.01571  0.29164  1.0000
  H   H81       1.0  0.21047  0.43662  0.09233  1.0000
  H   H82       1.0  0.24310  0.40786  0.07225  1.0000
  C   C63       1.0  0.24215  0.29572  0.99389  1.0000
  H   H83       1.0  0.21496  0.06437  0.39253  1.0000
  C   C64       1.0  0.09505  0.38710  0.98843  1.0000
  H   H84       1.0  0.04982  0.14975  0.23598  1.0000
  C   C65       1.0  0.02620  0.25611  0.42147  1.0000
  S   S22       1.0  0.23119  0.38000  0.00172  1.0000
  H   H85       1.0  0.22464  0.25272  0.01892  1.0000
  C   C66       1.0  0.12721  0.36720  0.99638  1.0000
  H   H86       1.0  0.25052  0.24613  0.39226  1.0000
  H   H87       1.0  0.02834  0.01776  0.15450  1.0000
  H   H88       1.0  0.07323  0.16267  0.26418  1.0000
  C   C67       1.0  0.19448  0.03296  0.07166  1.0000
  C   C68       1.0  0.09787  0.15200  0.25691  1.0000
  H   H89       1.0  0.24131  0.07071  0.39771  1.0000
  C   C69       1.0  0.04338  0.42581  0.06353  1.0000
  H   H90       1.0  0.21328  0.07126  0.30707  1.0000
  C   C70       1.0  0.18873  0.47395  0.19909  1.0000
  H   H91       1.0  0.18857  0.45877  0.22218  1.0000
  C   C71       1.0  0.23555  0.21289  0.41372  1.0000
  H   H92       1.0  0.02048  0.24427  0.01124  1.0000
  H   H93       1.0  0.13017  0.40042  0.03767  1.0000
  C   C72       1.0  0.12192  0.39016  0.01805  1.0000
  H   H94       1.0  0.22838  0.08513  0.33831  1.0000
  H   H95       1.0  0.22446  0.32777  0.04161  1.0000
  S   S23       1.0  0.14734  0.35416  0.99912  1.0000
  H   H96       1.0  0.05359  0.12197  0.20219  1.0000
  H   H97       1.0  0.01841  0.31667  0.46952  1.0000
  S   S24       1.0  0.07520  0.40108  0.98390  1.0000
  C   C73       1.0  0.25822  0.20861  0.47465  1.0000
  C   C74       1.0  0.99892  0.09353  0.21036  1.0000
  H   H98       1.0  0.22070  0.26513  0.06709  1.0000
  H   H99       1.0  0.99647  0.05958  0.35217  1.0000
  C   C75       1.0  0.20241  0.99914  0.19083  1.0000
  C   C76       1.0  0.26000  0.22878  0.44489  1.0000
  H   H100      1.0  0.25587  0.46310  0.04626  1.0000
  H   H101      1.0  0.14235  0.43311  0.14496  1.0000
  C   C77       1.0  0.10406  0.10303  0.25006  1.0000
  C   C78       1.0  0.07582  0.11744  0.25744  1.0000
  C   C79       1.0  0.10914  0.13079  0.25220  1.0000
  H   H102      1.0  0.07142  0.44624  0.04032  1.0000
  C   C80       1.0  0.08145  0.14552  0.25954  1.0000
  C   C81       1.0  0.06330  0.46166  0.05473  1.0000
  C   C82       1.0  0.04035  0.29298  0.47399  1.0000
  H   H103      1.0  0.00603  0.28435  0.42252  1.0000
  H   H104      1.0  0.24580  0.99722  0.32441  1.0000
  H   H105      1.0  0.24361  0.43820  0.02084  1.0000
  H   H106      1.0  0.21270  0.02493  0.11382  1.0000
  C   C83       1.0  0.14161  0.45395  0.15731  1.0000
  H   H107      1.0  0.05197  0.41058  0.05041  1.0000
  H   H108      1.0  0.04076  0.20225  0.47508  1.0000
  H   H109      1.0  0.05441  0.23766  0.36687  1.0000
  C   C84       1.0  0.14938  0.45986  0.19189  1.0000
  C   C85       1.0  0.23330  0.19315  0.44270  1.0000
  H   H110      1.0  0.01766  0.05366  0.11012  1.0000
  H   H111      1.0  0.26794  0.28552  0.99619  1.0000
  C   C86       1.0  0.25098  0.27530  0.05611  1.0000
  H   H112      1.0  0.26189  0.28873  0.05911  1.0000
  C   C87       1.0  0.03098  0.00638  0.04395  1.0000
  H   H113      1.0  0.28631  0.18103  0.47219  1.0000
  H   H114      1.0  0.25433  0.25530  0.04176  1.0000
  H   H115      1.0  0.01934  0.04652  0.03974  1.0000
  C   C88       1.0  0.02416  0.03080  0.05904  1.0000
  C   C89       1.0  0.01784  0.47026  0.06347  1.0000
  C   C90       1.0  0.02319  0.03485  0.09872  1.0000
  H   H116      1.0  0.03108  0.00454  0.01296  1.0000
  C   C91       1.0  0.02920  0.01460  0.12360  1.0000
  C   C92       1.0  0.26556  0.00729  0.36041  1.0000
  H   H117      1.0  0.00663  0.07551  0.20681  1.0000
  C   C93       1.0  0.00747  0.00037  0.45810  1.0000
  C   C94       1.0  0.04867  0.26897  0.46236  1.0000
  H   H118      1.0  0.21725  0.99760  0.33417  1.0000
  S   S25       1.0  0.00253  0.05775  0.47274  1.0000
  H   H119      1.0  0.00137  0.02351  0.34706  1.0000
  H   H120      1.0  0.00012  0.03874  0.39416  1.0000
  C   C95       1.0  0.99774  0.10653  0.24673  1.0000
  C   C96       1.0  0.99895  0.22310  0.99168  1.0000
  C   C97       1.0  0.14911  0.48693  0.20734  1.0000
  H   H121      1.0  0.00053  0.20533  0.01053  1.0000
  C   C98       1.0  0.25005  0.01179  0.34598  1.0000
  H   H122      1.0  0.21374  0.99665  0.20571  1.0000
  H   H123      1.0  0.15577  0.49008  0.23369  1.0000
  H   H124      1.0  0.22356  0.48804  0.19853  1.0000
  C   C99       1.0  0.22818  0.49165  0.16968  1.0000
  C   C100      1.0  0.00021  0.02081  0.48131  1.0000
  C   C101      1.0  0.00686  0.48937  0.07888  1.0000
  Fe  Fe13      1.0  0.05265  0.38573  0.95150  1.0000
  C   C102      1.0  0.26687  0.18434  0.53429  1.0000
  Fe  Fe14      1.0  0.03177  0.37836  0.87819  1.0000
  S   S26       1.0  0.00945  0.36717  0.91164  1.0000
  S   S27       1.0  0.03280  0.37929  0.81246  1.0000
  Fe  Fe15      1.0  0.01688  0.40301  0.95041  1.0000
  S   S28       1.0  0.02354  0.29513  0.96853  1.0000
  Fe  Fe16      1.0  0.02598  0.34028  0.94715  1.0000
  C   C103      1.0  0.26690  0.47239  0.67840  1.0000
  S   S29       1.0  0.03827  0.41579  0.91485  1.0000
  S   S30       1.0  0.04813  0.34950  0.91141  1.0000
  H   H125      1.0  0.00530  0.44049  0.89302  1.0000
  Fe  Fe17      1.0  0.29258  0.37686  0.80836  1.0000
  S   S31       1.0  0.29215  0.36799  0.74414  1.0000
  S   S32       1.0  0.26720  0.38212  0.83604  1.0000
  H   H126      1.0  0.26096  0.03268  0.65437  1.0000
  C   C104      1.0  0.03735  0.21013  0.92207  1.0000
  Fe  Fe18      1.0  0.31152  0.40131  0.73898  1.0000
  S   S33       1.0  0.30945  0.43150  0.68711  1.0000
  Fe  Fe19      1.0  0.31216  0.33695  0.75319  1.0000
  H   H127      1.0  0.12018  0.33649  0.95398  1.0000
  S   S34       1.0  0.31124  0.41140  0.80265  1.0000
  S   S35       1.0  0.31131  0.34365  0.81775  1.0000
  Fe  Fe20      1.0  0.29575  0.11871  0.51757  1.0000
  S   S36       1.0  0.28911  0.12846  0.57934  1.0000
  H   H128      1.0  0.24925  0.46932  0.78837  1.0000
  H   H129      1.0  0.32101  0.23125  0.72776  1.0000
  H   H130      1.0  0.01041  0.43745  0.71813  1.0000
  Fe  Fe21      1.0  0.30698  0.09474  0.59645  1.0000
  S   S37       1.0  0.30339  0.06454  0.64785  1.0000
  Fe  Fe22      1.0  0.31042  0.15815  0.57953  1.0000
  S   S38       1.0  0.30683  0.20518  0.59303  1.0000
  S   S39       1.0  0.31206  0.08297  0.53475  1.0000
  S   S40       1.0  0.31656  0.14927  0.51704  1.0000
  C   C105      1.0  0.31295  0.26722  0.69581  1.0000
  C   C106      1.0  0.01755  0.31070  0.85140  1.0000
  H   H131      1.0  0.00899  0.30555  0.87498  1.0000
  C   C107      1.0  0.30943  0.22841  0.63337  1.0000
  C   C108      1.0  0.30567  0.25700  0.62897  1.0000
  C   C109      1.0  0.30740  0.27624  0.65984  1.0000
  C   C110      1.0  0.00400  0.22446  0.49099  1.0000
  H   H132      1.0  0.24780  0.43222  0.78693  1.0000
  H   H133      1.0  0.01732  0.44586  0.78536  1.0000
  H   H134      1.0  0.30442  0.29805  0.65577  1.0000
  C   C111      1.0  0.30929  0.46826  0.67650  1.0000
  H   H135      1.0  0.31795  0.19759  0.67342  1.0000
  H   H136      1.0  0.30476  0.03377  0.71903  1.0000
  C   C112      1.0  0.30607  0.02797  0.65744  1.0000
  C   C113      1.0  0.30611  0.01865  0.69600  1.0000
  H   H137      1.0  0.31184  0.48283  0.73490  1.0000
  H   H138      1.0  0.30673  0.46128  0.61538  1.0000
  C   C114      1.0  0.31502  0.21941  0.66931  1.0000
  C   C115      1.0  0.28644  0.20095  0.48899  1.0000
  H   H139      1.0  0.27620  0.18373  0.55736  1.0000
  C   C116      1.0  0.01614  0.37787  0.78045  1.0000
  C   C117      1.0  0.01901  0.37638  0.74050  1.0000
  C   C118      1.0  0.25283  0.01873  0.71018  1.0000
  H   H140      1.0  0.27383  0.29755  0.92969  1.0000
  H   H141      1.0  0.03128  0.37582  0.72989  1.0000
  H   H142      1.0  0.26468  0.37723  0.97947  1.0000
  H   H143      1.0  0.02973  0.25882  0.84125  1.0000
  S   S41       1.0  0.99786  0.43311  0.97374  1.0000
  C   C119      1.0  0.04403  0.21266  0.88540  1.0000
  H   H144      1.0  0.02195  0.18768  0.95940  1.0000
  H   H145      1.0  0.22479  0.32104  0.91122  1.0000
  H   H146      1.0  0.05259  0.22934  0.87949  1.0000
  H   H147      1.0  0.26760  0.45255  0.66357  1.0000
  H   H148      1.0  0.04107  0.29578  0.80394  1.0000
  H   H149      1.0  0.30731  0.01449  0.59828  1.0000
  H   H150      1.0  0.02865  0.11424  0.90843  1.0000
  C   C120      1.0  0.02194  0.16859  0.90163  1.0000
  C   C121      1.0  0.24085  0.38003  0.95515  1.0000
  C   C122      1.0  0.25782  0.37866  0.95310  1.0000
  C   C123      1.0  0.26608  0.37892  0.91724  1.0000
  C   C124      1.0  0.25752  0.38092  0.88257  1.0000
  C   C125      1.0  0.24055  0.38242  0.88466  1.0000
  C   C126      1.0  0.23228  0.38189  0.92050  1.0000
  C   C127      1.0  0.99696  0.02872  0.97959  1.0000
  H   H151      1.0  0.27909  0.37780  0.91646  1.0000
  H   H152      1.0  0.23370  0.38396  0.85827  1.0000
  C   C128      1.0  0.26162  0.29947  0.94052  1.0000
  C   C129      1.0  0.31050  0.48891  0.70509  1.0000
  C   C130      1.0  0.30770  0.47694  0.63784  1.0000
  C   C131      1.0  0.01663  0.11845  0.89554  1.0000
  H   H153      1.0  0.00897  0.25717  0.85352  1.0000
  H   H154      1.0  0.21818  0.31047  0.97804  1.0000
  C   C132      1.0  0.03962  0.19388  0.85645  1.0000
  C   C133      1.0  0.00374  0.24814  0.51560  1.0000
  H   H155      1.0  0.28964  0.44829  0.75388  1.0000
  C   C134      1.0  0.00735  0.01415  0.95454  1.0000
  H   H156      1.0  0.26255  0.40453  0.74343  1.0000
  H   H157      1.0  0.01262  0.20800  0.49585  1.0000
  S   S42       1.0  0.31552  0.29040  0.73620  1.0000
  H   H158      1.0  0.24203  0.17477  0.49378  1.0000
  S   S43       1.0  0.99698  0.06599  0.97887  1.0000
  H   H159      1.0  0.24758  0.11431  0.49446  1.0000
  N   N8        1.0  0.27035  0.20676  0.50581  1.0000
  H   H160      1.0  0.00561  0.45947  0.52821  1.0000
  C   C135      1.0  0.30770  0.00799  0.62809  1.0000
  C   C136      1.0  0.31677  0.23865  0.70017  1.0000
  C   C137      1.0  0.00614  0.37599  0.71402  1.0000
  H   H161      1.0  0.04553  0.30702  0.49524  1.0000
  H   H162      1.0  0.25333  0.42153  0.70327  1.0000
  H   H163      1.0  0.02882  0.32116  0.78111  1.0000
  C   C138      1.0  0.11625  0.35422  0.97093  1.0000
  H   H164      1.0  0.21927  0.38308  0.92124  1.0000
  H   H165      1.0  0.27507  0.41926  0.70679  1.0000
  H   H166      1.0  0.02297  0.47423  0.83470  1.0000
  H   H167      1.0  0.01239  0.24974  0.53876  1.0000
  H   H168      1.0  0.01713  0.13835  0.96815  1.0000
  H   H169      1.0  0.02981  0.30913  0.86410  1.0000
  H   H170      1.0  0.27527  0.25128  0.50881  1.0000
  S   S44       1.0  0.32783  0.12538  0.60086  1.0000
  H   H171      1.0  0.99991  0.16112  0.96224  1.0000
  C   C139      1.0  0.26056  0.01551  0.67477  1.0000
  H   H172      1.0  0.02527  0.15871  0.84065  1.0000
  N   N9        1.0  0.01564  0.29229  0.81731  1.0000
  H   H173      1.0  0.09210  0.35377  0.94727  1.0000
  H   H174      1.0  0.27888  0.46773  0.78980  1.0000
  H   H175      1.0  0.25911  0.23926  0.53927  1.0000
  H   H176      1.0  0.02116  0.47476  0.94572  1.0000
  C   C140      1.0  0.01118  0.48558  0.95905  1.0000
  H   H177      1.0  0.26980  0.49427  0.62445  1.0000
  H   H178      1.0  0.29579  0.19902  0.51183  1.0000
  H   H179      1.0  0.01238  0.42743  0.84764  1.0000
  N   N10       1.0  0.01021  0.14576  0.90911  1.0000
  H   H180      1.0  0.25254  0.31525  0.88672  1.0000
  H   H181      1.0  0.00856  0.10067  0.90386  1.0000
  C   C141      1.0  0.27112  0.23366  0.52721  1.0000
  H   H182      1.0  0.99779  0.37908  0.82434  1.0000
  C   C142      1.0  0.02656  0.18837  0.93031  1.0000
  H   H183      1.0  0.24708  0.03846  0.71704  1.0000
  C   C143      1.0  0.24963  0.30935  0.91614  1.0000
  C   C144      1.0  0.00831  0.26881  0.96822  1.0000
  C   C145      1.0  0.99946  0.29643  0.80033  1.0000
  H   H184      1.0  0.04477  0.19601  0.82783  1.0000
  C   C146      1.0  0.00198  0.43766  0.86220  1.0000
  C   C147      1.0  0.26372  0.42267  0.72340  1.0000
  C   C148      1.0  0.23030  0.30621  0.96831  1.0000
  N   N11       1.0  0.26412  0.44970  0.74463  1.0000
  H   H185      1.0  0.99681  0.15250  0.85659  1.0000
  C   C149      1.0  0.24923  0.45115  0.76837  1.0000
  C   C150      1.0  0.02907  0.29881  0.79029  1.0000
  C   C151      1.0  0.23399  0.31255  0.92996  1.0000
  H   H186      1.0  0.30137  0.26439  0.60143  1.0000
  H   H187      1.0  0.01523  0.24813  0.80540  1.0000
  H   H188      1.0  0.01471  0.02573  0.93426  1.0000
  H   H189      1.0  0.00851  0.37513  0.68335  1.0000
  C   C152      1.0  0.00023  0.37843  0.79375  1.0000
  H   H190      1.0  0.99782  0.12452  0.95541  1.0000
  C   C153      1.0  0.27821  0.44910  0.77072  1.0000
  C   C154      1.0  0.01744  0.26280  0.82981  1.0000
  H   H191      1.0  0.27783  0.43048  0.79000  1.0000
  H   H192      1.0  0.27976  0.23262  0.55180  1.0000
  C   C155      1.0  0.00061  0.47436  0.50815  1.0000
  H   H193      1.0  0.04050  0.22520  0.94438  1.0000
  C   C156      1.0  0.00620  0.14243  0.95056  1.0000
  C   C157      1.0  0.02860  0.17235  0.86422  1.0000
  H   H194      1.0  0.02867  0.28528  0.76416  1.0000
  H   H195      1.0  0.23836  0.45274  0.74979  1.0000
  H   H196      1.0  0.26682  0.16328  0.52039  1.0000
  H   H197      1.0  0.25516  0.18772  0.54919  1.0000
  H   H198      1.0  0.01556  0.33292  0.84339  1.0000
  C   C158      1.0  0.26532  0.47449  0.71916  1.0000
  H   H199      1.0  0.00697  0.31156  0.74301  1.0000
  C   C159      1.0  0.00126  0.44507  0.73787  1.0000
  H   H200      1.0  0.01779  0.11726  0.86371  1.0000
  H   H201      1.0  0.24684  0.00105  0.76420  1.0000
  C   C160      1.0  0.99826  0.47029  0.97432  1.0000
  C   C161      1.0  0.10028  0.36398  0.96707  1.0000
  C   C162      1.0  0.99711  0.30610  0.76198  1.0000
  C   C163      1.0  0.00510  0.45014  0.77646  1.0000
  C   C164      1.0  0.25802  0.29268  0.97886  1.0000
  C   C165      1.0  0.01177  0.48384  0.84620  1.0000
  H   H202      1.0  0.01456  0.48992  0.87646  1.0000
  C   C166      1.0  0.25280  0.99695  0.73711  1.0000
  N   N12       1.0  0.99768  0.46462  0.84399  1.0000
  Fe  Fe23      1.0  0.16061  0.61735  0.28587  1.0000
  S   S45       1.0  0.16733  0.61994  0.22298  1.0000
  S   S46       1.0  0.13423  0.60266  0.29472  1.0000
  Fe  Fe24      1.0  0.19638  0.62594  0.31012  1.0000
  S   S47       1.0  0.20463  0.62740  0.24808  1.0000
  S   S48       1.0  0.21379  0.64034  0.35894  1.0000
  Fe  Fe25      1.0  0.18362  0.65607  0.23773  1.0000
  S   S49       1.0  0.18790  0.69091  0.19263  1.0000
  Fe  Fe26      1.0  0.18777  0.59106  0.23690  1.0000
  S   S50       1.0  0.19251  0.55931  0.18790  1.0000
  S   S51       1.0  0.17549  0.65589  0.29994  1.0000
  S   S52       1.0  0.18083  0.58721  0.29979  1.0000
  Fe  Fe27      1.0  0.18490  0.91528  0.08286  1.0000
  S   S53       1.0  0.18548  0.90663  0.01841  1.0000
  S   S54       1.0  0.17754  0.95937  0.10400  1.0000
  Fe  Fe28      1.0  0.18893  0.85201  0.10260  1.0000
  S   S55       1.0  0.19001  0.83999  0.03985  1.0000
  S   S56       1.0  0.18749  0.82298  0.15601  1.0000
  Fe  Fe29      1.0  0.20631  0.87759  0.03081  1.0000
  H   H203      1.0  0.03063  0.68968  0.44480  1.0000
  Fe  Fe30      1.0  0.16918  0.86989  0.03181  1.0000
  H   H204      1.0  0.06828  0.97311  0.05986  1.0000
  S   S57       1.0  0.20650  0.88811  0.09496  1.0000
  S   S58       1.0  0.16739  0.88010  0.09476  1.0000
  Fe  Fe31      1.0  0.01646  0.58450  0.41299  1.0000
  S   S59       1.0  0.01071  0.59679  0.26681  1.0000
  C   C167      1.0  0.18337  0.98233  0.14241  1.0000
  Fe  Fe32      1.0  0.04325  0.62418  0.38045  1.0000
  S   S60       1.0  0.02526  0.64958  0.34750  1.0000
  S   S61       1.0  0.06964  0.63930  0.38422  1.0000
  Fe  Fe33      1.0  0.00963  0.64792  0.40087  1.0000
  C   C168      1.0  0.99756  0.68030  0.11227  1.0000
  Fe  Fe34      1.0  0.01378  0.60876  0.33051  1.0000
  C   C169      1.0  0.12447  0.54684  0.21284  1.0000
  S   S62       1.0  0.02824  0.62446  0.43496  1.0000
  S   S63       1.0  0.03280  0.58321  0.36071  1.0000
  S   S64       1.0  0.99726  0.69000  0.41583  1.0000
  H   H205      1.0  0.13300  0.90582  0.02326  1.0000
  H   H206      1.0  0.15140  0.56477  0.24676  1.0000
  C   C170      1.0  0.01873  0.76143  0.12813  1.0000
  H   H207      1.0  0.04516  0.73066  0.36175  1.0000
  C   C171      1.0  0.02785  0.75878  0.41975  1.0000
  H   H208      1.0  0.04756  0.57127  0.44993  1.0000
  C   C172      1.0  0.18982  0.50276  0.20811  1.0000
  H   H209      1.0  0.03296  0.53549  0.11942  1.0000
  H   H210      1.0  0.02292  0.75252  0.39228  1.0000
  H   H211      1.0  0.12997  0.54537  0.39051  1.0000
  H   H212      1.0  0.13952  0.55786  0.14629  1.0000
  H   H213      1.0  0.02907  0.76561  0.14631  1.0000
  H   H214      1.0  0.20550  0.96153  0.15641  1.0000
  H   H215      1.0  0.12420  0.56854  0.22484  1.0000
  H   H216      1.0  0.25367  0.65575  0.46313  1.0000
  C   C173      1.0  0.04260  0.71267  0.38112  1.0000
  H   H217      1.0  0.07102  0.72286  0.44963  1.0000
  C   C174      1.0  0.14100  0.50905  0.18822  1.0000
  C   C175      1.0  0.23273  0.51855  0.15878  1.0000
  H   H218      1.0  0.11926  0.53275  0.23520  1.0000
  H   H219      1.0  0.00380  0.68023  0.08378  1.0000
  C   C176      1.0  0.18738  0.72777  0.18316  1.0000
  C   C177      1.0  0.19201  0.73748  0.14638  1.0000
  C   C178      1.0  0.19180  0.76632  0.13720  1.0000
  C   C179      1.0  0.18705  0.78603  0.16486  1.0000
  C   C180      1.0  0.18233  0.77630  0.20158  1.0000
  C   C181      1.0  0.18244  0.74744  0.21068  1.0000
  H   H220      1.0  0.19586  0.72256  0.12478  1.0000
  H   H221      1.0  0.19569  0.77329  0.10902  1.0000
  H   H222      1.0  0.17870  0.79127  0.22332  1.0000
  H   H223      1.0  0.17873  0.74052  0.23898  1.0000
  C   C182      1.0  0.09343  0.57045  0.41827  1.0000
  H   H224      1.0  0.15096  0.70045  0.17949  1.0000
  H   H225      1.0  0.08807  0.59080  0.42235  1.0000
  C   C183      1.0  0.19031  0.52268  0.17862  1.0000
  H   H226      1.0  0.06113  0.95239  0.09968  1.0000
  C   C184      1.0  0.10957  0.57034  0.40663  1.0000
  H   H227      1.0  0.11592  0.58998  0.40213  1.0000
  H   H228      1.0  0.23159  0.53574  0.17909  1.0000
  H   H229      1.0  0.04890  0.69414  0.36870  1.0000
  H   H230      1.0  0.02222  0.79852  0.09379  1.0000
  C   C185      1.0  0.11633  0.61407  0.31896  1.0000
  C   C186      1.0  0.10185  0.59914  0.31301  1.0000
  C   C187      1.0  0.08742  0.60684  0.33199  1.0000
  C   C188      1.0  0.08727  0.62949  0.35765  1.0000
  C   C189      1.0  0.10176  0.64434  0.36375  1.0000
  C   C190      1.0  0.11616  0.63684  0.34443  1.0000
  H   H231      1.0  0.10178  0.58143  0.29358  1.0000
  H   H232      1.0  0.07646  0.59506  0.32703  1.0000
  H   H233      1.0  0.10190  0.66178  0.38367  1.0000
  H   H234      1.0  0.12715  0.64848  0.34959  1.0000
  C   C191      1.0  0.23024  0.62950  0.38941  1.0000
  C   C192      1.0  0.23745  0.60309  0.38661  1.0000
  C   C193      1.0  0.25042  0.59576  0.41119  1.0000
  C   C194      1.0  0.25649  0.61454  0.43918  1.0000
  C   C195      1.0  0.24929  0.64098  0.44191  1.0000
  C   C196      1.0  0.23635  0.64833  0.41727  1.0000
  H   H235      1.0  0.23305  0.58823  0.36554  1.0000
  C   C197      1.0  0.09602  0.88855  0.98577  1.0000
  C   C198      1.0  0.00051  0.72169  0.99153  1.0000
  H   H236      1.0  0.23096  0.66878  0.42009  1.0000
  C   C199      1.0  0.18957  0.51330  0.14009  1.0000
  C   C200      1.0  0.14735  0.55724  0.17212  1.0000
  C   C201      1.0  0.08466  0.54505  0.42343  1.0000
  H   H237      1.0  0.06133  0.50913  0.39721  1.0000
  H   H238      1.0  0.06921  0.74132  0.40472  1.0000
  H   H239      1.0  0.16053  0.69216  0.11323  1.0000
  H   H240      1.0  0.02122  0.93648  0.05645  1.0000
  H   H241      1.0  0.04766  0.69588  0.47527  1.0000
  S   S65       1.0  0.14740  0.85272  0.99816  1.0000
  C   C202      1.0  0.06048  0.57248  0.44139  1.0000
  C   C203      1.0  0.05804  0.53134  0.40214  1.0000
  C   C204      1.0  0.04385  0.69360  0.44477  1.0000
  C   C205      1.0  0.06057  0.95489  0.06790  1.0000
  N   N13       1.0  0.04386  0.95855  0.05370  1.0000
  H   H242      1.0  0.15959  0.55072  0.16250  1.0000
  H   H243      1.0  0.00992  0.58618  0.18563  1.0000
  H   H244      1.0  0.11553  0.50038  0.39976  1.0000
  H   H245      1.0  0.06687  0.58349  0.46519  1.0000
  C   C206      1.0  0.15128  0.54252  0.23732  1.0000
  H   H246      1.0  0.10547  0.92504  0.01480  1.0000
  H   H247      1.0  0.14831  0.57920  0.18251  1.0000
  S   S66       1.0  0.27301  0.60374  0.46950  1.0000
  C   C207      1.0  0.13269  0.50203  0.15373  1.0000
  N   N14       1.0  0.04791  0.71849  0.42123  1.0000
  H   H248      1.0  0.04976  0.67444  0.43331  1.0000
  C   C208      1.0  0.11749  0.54519  0.39994  1.0000
  C   C209      1.0  0.02880  0.51715  0.10381  1.0000
  C   C210      1.0  0.03381  0.93482  0.06747  1.0000
  H   H249      1.0  0.13998  0.74659  0.19790  1.0000
  H   H250      1.0  0.24153  0.54457  0.11301  1.0000
  H   H251      1.0  0.01293  0.72342  0.15692  1.0000
  H   H252      1.0  0.13837  0.78434  0.15082  1.0000
  C   C211      1.0  0.04028  0.74357  0.43846  1.0000
  C   C212      1.0  0.03991  0.49823  0.08829  1.0000
  N   N15       1.0  0.14109  0.53828  0.20260  1.0000
  C   C213      1.0  0.10932  0.51993  0.40506  1.0000
  H   H253      1.0  0.19006  0.52845  0.11699  1.0000
  H   H254      1.0  0.12602  0.51759  0.13796  1.0000
  C   C214      1.0  0.00483  0.97157  0.46557  1.0000
  C   C215      1.0  0.03608  0.99012  0.10883  1.0000
  H   H255      1.0  0.01039  0.95610  0.44711  1.0000
  H   H256      1.0  0.16406  0.53701  0.23156  1.0000
  C   C216      1.0  0.09314  0.51978  0.41654  1.0000
  C   C217      1.0  0.02086  0.78225  0.43707  1.0000
  H   H257      1.0  0.02946  0.70771  0.37994  1.0000
  H   H258      1.0  0.00693  0.67976  0.13506  1.0000
  S   S67       1.0  0.99675  0.60802  0.38165  1.0000
  H   H259      1.0  0.19065  0.50946  0.23784  1.0000
  C   C218      1.0  0.06570  0.72190  0.42033  1.0000
  H   H260      1.0  0.06633  0.93584  0.05531  1.0000
  H   H261      1.0  0.05248  0.50307  0.09279  1.0000
  C   C219      1.0  0.00157  0.77483  0.07544  1.0000
  C   C220      1.0  0.23917  0.50150  0.09475  1.0000
  C   C221      1.0  0.12757  0.86672  0.99524  1.0000
  H   H262      1.0  0.06099  0.58577  0.41514  1.0000
  N   N16       1.0  0.22188  0.71422  0.28572  1.0000
  C   C222      1.0  0.23257  0.71728  0.31976  1.0000
  C   C223      1.0  0.20518  0.70936  0.29938  1.0000
  C   C224      1.0  0.22708  0.68872  0.26461  1.0000
  C   C225      1.0  0.22234  0.73992  0.26187  1.0000
  C   C226      1.0  0.21868  0.76632  0.27856  1.0000
  C   C227      1.0  0.22564  0.73953  0.22158  1.0000
  C   C228      1.0  0.21842  0.79074  0.25639  1.0000
  C   C229      1.0  0.22542  0.76412  0.19977  1.0000
  C   C230      1.0  0.22178  0.78963  0.21707  1.0000
  H   H263      1.0  0.24513  0.72237  0.31077  1.0000
  H   H264      1.0  0.22844  0.73381  0.33996  1.0000
  H   H265      1.0  0.23296  0.69761  0.33713  1.0000
  H   H266      1.0  0.20058  0.72691  0.31724  1.0000
  H   H267      1.0  0.20433  0.69021  0.31755  1.0000
  H   H268      1.0  0.19680  0.70664  0.27459  1.0000
  H   H269      1.0  0.23957  0.69096  0.25331  1.0000
  H   H270      1.0  0.22695  0.66991  0.28365  1.0000
  H   H271      1.0  0.21884  0.68383  0.24017  1.0000
  H   H272      1.0  0.21560  0.76817  0.30872  1.0000
  H   H273      1.0  0.22795  0.72044  0.20588  1.0000
  H   H274      1.0  0.21522  0.81058  0.26945  1.0000
  H   H275      1.0  0.22749  0.76328  0.16890  1.0000
  H   H276      1.0  0.22103  0.80843  0.19966  1.0000
  N   N17       1.0  0.14743  0.78366  0.07458  1.0000
  C   C231      1.0  0.13059  0.79359  0.07083  1.0000
  C   C232      1.0  0.15755  0.80719  0.08836  1.0000
  C   C233      1.0  0.15324  0.77607  0.03536  1.0000
  C   C234      1.0  0.14819  0.76034  0.10259  1.0000
  C   C235      1.0  0.15443  0.73351  0.09303  1.0000
  C   C236      1.0  0.14285  0.76432  0.14115  1.0000
  C   C237      1.0  0.15518  0.71217  0.12052  1.0000
  C   C238      1.0  0.14367  0.74283  0.16835  1.0000
  C   C239      1.0  0.14979  0.71680  0.15803  1.0000
  N   N18       1.0  0.06735  0.54433  0.43400  1.0000
  H   H277      1.0  0.12958  0.81044  0.04872  1.0000
  H   H278      1.0  0.12239  0.77620  0.06226  1.0000
  H   H279      1.0  0.15380  0.81530  0.11704  1.0000
  H   H280      1.0  0.15709  0.82521  0.06821  1.0000
  H   H281      1.0  0.17036  0.80078  0.09094  1.0000
  H   H282      1.0  0.14594  0.75884  0.02262  1.0000
  H   H283      1.0  0.15247  0.79412  0.01511  1.0000
  H   H284      1.0  0.16618  0.76996  0.03572  1.0000
  H   H285      1.0  0.15916  0.72861  0.06484  1.0000
  H   H286      1.0  0.25578  0.57526  0.40856  1.0000
  H   H287      1.0  0.08723  0.49969  0.41948  1.0000
  H   H288      1.0  0.12594  0.80280  0.09809  1.0000
  C   C240      1.0  0.01232  0.51284  0.09887  1.0000
  H   H289      1.0  0.07167  0.70388  0.40561  1.0000
  H   H290      1.0  0.11628  0.54654  0.18759  1.0000
  H   H291      1.0  0.03870  0.91441  0.05755  1.0000
  H   H292      1.0  0.02384  0.73815  0.00743  1.0000
  C   C241      1.0  0.12379  0.89337  0.00923  1.0000
  S   S68       1.0  0.23101  0.87392  0.99908  1.0000
  C   C242      1.0  0.00944  0.73728  0.13384  1.0000
  H   H293      1.0  0.03220  0.95788  0.99821  1.0000
  H   H294      1.0  0.04483  0.53147  0.40819  1.0000
  H   H295      1.0  0.05193  0.52755  0.47864  1.0000
  C   C243      1.0  0.19776  0.97911  0.16284  1.0000
  H   H296      1.0  0.24333  0.50689  0.06623  1.0000
  C   C244      1.0  0.99680  0.60731  0.23072  1.0000
  H   H297      1.0  0.00378  0.52784  0.11034  1.0000
  C   C245      1.0  0.23823  0.52346  0.12143  1.0000
  H   H298      1.0  0.00273  0.70117  0.00344  1.0000
  C   C246      1.0  0.00394  0.51713  0.46889  1.0000
  C   C247      1.0  0.04445  0.95689  0.01095  1.0000
  S   S69       1.0  0.03295  0.87601  0.99585  1.0000
  H   H299      1.0  0.03314  0.93370  0.09938  1.0000
  H   H300      1.0  0.06005  0.54279  0.37459  1.0000
  H   H301      1.0  0.04961  0.93671  0.00086  1.0000
  H   H302      1.0  0.01106  0.79304  0.42293  1.0000
  H   H303      1.0  0.04040  0.97488  0.12927  1.0000
  S   S70       1.0  0.02490  0.79565  0.98431  1.0000
  C   C248      1.0  0.04492  0.75302  0.47569  1.0000
  S   S71       1.0  0.01668  0.54570  0.45354  1.0000
  C   C249      1.0  0.02577  0.79101  0.47349  1.0000
  H   H304      1.0  0.14678  0.53029  0.26242  1.0000
  C   C250      1.0  0.10814  0.90424  0.00431  1.0000
  H   H305      1.0  0.05207  0.97379  0.99839  1.0000
  C   C251      1.0  0.01486  0.78007  0.09879  1.0000
  H   H306      1.0  0.27261  0.98975  0.35005  1.0000
  S   S72       1.0  0.00043  0.93231  0.98605  1.0000
  C   C252      1.0  0.01249  0.74266  0.99357  1.0000
  C   C253      1.0  0.99943  0.59864  0.19238  1.0000
  C   C254      1.0  0.06485  0.52752  0.46947  1.0000
  H   H307      1.0  0.99872  0.78931  0.05239  1.0000
  H   H308      1.0  0.06810  0.50519  0.46548  1.0000
  C   C255      1.0  0.99908  0.96939  0.98198  1.0000
  C   C256      1.0  0.03708  0.98514  0.06849  1.0000
  Fe  Fe35      1.0  0.05333  0.88511  0.95508  1.0000
  C   C257      1.0  0.02271  0.74167  0.82602  1.0000
  Fe  Fe36      1.0  0.03165  0.87374  0.88469  1.0000
  S   S73       1.0  0.00974  0.86401  0.92103  1.0000
  S   S74       1.0  0.03502  0.86852  0.81972  1.0000
  Fe  Fe37      1.0  0.01758  0.90177  0.95619  1.0000
  H   H309      1.0  0.32777  0.73667  0.71551  1.0000
  Fe  Fe38      1.0  0.02685  0.83928  0.95788  1.0000
  H   H310      1.0  0.30569  0.51177  0.59808  1.0000
  S   S75       1.0  0.03826  0.91306  0.91733  1.0000
  S   S76       1.0  0.04837  0.84672  0.91955  1.0000
  H   H311      1.0  0.13059  0.92347  0.92829  1.0000
  Fe  Fe39      1.0  0.29492  0.87834  0.80806  1.0000
  S   S77       1.0  0.29373  0.86948  0.74375  1.0000
  S   S78       1.0  0.26990  0.88477  0.83731  1.0000
  C   C258      1.0  0.03254  0.72181  0.84378  1.0000
  H   H312      1.0  0.02229  0.49959  0.50539  1.0000
  Fe  Fe40      1.0  0.31270  0.90329  0.73718  1.0000
  S   S79       1.0  0.31137  0.93330  0.68509  1.0000
  Fe  Fe41      1.0  0.31415  0.83911  0.75219  1.0000
  C   C259      1.0  0.09972  0.86170  0.97232  1.0000
  S   S80       1.0  0.31310  0.91354  0.80059  1.0000
  S   S81       1.0  0.31428  0.84589  0.81688  1.0000
  Fe  Fe42      1.0  0.28986  0.61733  0.51990  1.0000
  S   S82       1.0  0.28259  0.62059  0.58285  1.0000
  C   C260      1.0  0.01008  0.49725  0.49504  1.0000
  H   H313      1.0  0.24559  0.92152  0.72730  1.0000
  H   H314      1.0  0.27521  0.95018  0.68520  1.0000
  Fe  Fe43      1.0  0.30468  0.59440  0.59565  1.0000
  S   S83       1.0  0.30725  0.56299  0.64616  1.0000
  Fe  Fe44      1.0  0.29912  0.65852  0.58596  1.0000
  S   S84       1.0  0.29243  0.70222  0.60989  1.0000
  S   S85       1.0  0.31136  0.58926  0.53281  1.0000
  S   S86       1.0  0.30513  0.65650  0.52240  1.0000
  C   C261      1.0  0.31097  0.76848  0.69793  1.0000
  H   H315      1.0  0.26655  0.91403  0.71860  1.0000
  H   H316      1.0  0.30797  0.98337  0.73495  1.0000
  C   C262      1.0  0.29951  0.72677  0.64530  1.0000
  C   C263      1.0  0.29254  0.75361  0.64694  1.0000
  C   C264      1.0  0.29819  0.77429  0.67297  1.0000
  H   H317      1.0  0.31073  0.53325  0.71762  1.0000
  H   H318      1.0  0.22118  0.89010  0.91994  1.0000
  H   H319      1.0  0.28269  0.75852  0.62775  1.0000
  H   H320      1.0  0.29266  0.79474  0.67361  1.0000
  C   C265      1.0  0.30946  0.97002  0.67579  1.0000
  H   H321      1.0  0.03529  0.70232  0.82916  1.0000
  H   H322      1.0  0.01982  0.80851  0.48746  1.0000
  C   C266      1.0  0.30813  0.52627  0.65653  1.0000
  C   C267      1.0  0.30993  0.51760  0.69512  1.0000
  H   H323      1.0  0.26989  0.54124  0.65413  1.0000
  H   H324      1.0  0.01817  0.73677  0.79762  1.0000
  H   H325      1.0  0.25514  0.97107  0.80968  1.0000
  H   H326      1.0  0.02131  0.52670  0.94933  1.0000
  C   C268      1.0  0.31792  0.74160  0.69640  1.0000
  C   C269      1.0  0.01945  0.87104  0.78476  1.0000
  C   C270      1.0  0.02301  0.86553  0.74576  1.0000
  C   C271      1.0  0.01088  0.86667  0.71731  1.0000
  C   C272      1.0  0.00362  0.87761  0.79505  1.0000
  H   H327      1.0  0.03521  0.86044  0.73741  1.0000
  H   H328      1.0  0.28736  0.94185  0.74799  1.0000
  H   H329      1.0  0.04615  0.71129  0.89443  1.0000
  H   H330      1.0  0.02693  0.80739  0.79419  1.0000
  H   H331      1.0  0.14766  0.88189  0.91886  1.0000
  H   H332      1.0  0.31052  0.96416  0.61421  1.0000
  C   C273      1.0  0.26836  0.96861  0.69274  1.0000
  H   H333      1.0  0.02313  0.79051  0.89853  1.0000
  H   H334      1.0  0.28284  0.96805  0.78341  1.0000
  H   H335      1.0  0.99862  0.80688  0.87761  1.0000
  C   C274      1.0  0.01119  0.51505  0.96090  1.0000
  H   H336      1.0  0.31474  0.71646  0.51969  1.0000
  H   H337      1.0  0.01379  0.86255  0.68740  1.0000
  C   C275      1.0  0.24150  0.87705  0.95360  1.0000
  C   C276      1.0  0.25813  0.87098  0.95184  1.0000
  C   C277      1.0  0.26698  0.87307  0.91687  1.0000
  C   C278      1.0  0.25938  0.88137  0.88273  1.0000
  C   C279      1.0  0.24276  0.88751  0.88447  1.0000
  C   C280      1.0  0.23390  0.88536  0.91943  1.0000
  H   H338      1.0  0.31766  0.70037  0.67005  1.0000
  H   H339      1.0  0.27970  0.86827  0.91645  1.0000
  H   H340      1.0  0.23662  0.89385  0.85850  1.0000
  C   C281      1.0  0.26063  0.97113  0.72915  1.0000
  H   H341      1.0  0.01095  0.69536  0.49456  1.0000
  H   H342      1.0  0.01634  0.97379  0.93596  1.0000
  H   H343      1.0  0.26455  0.50516  0.76591  1.0000
  N   N19       1.0  0.08972  0.88888  0.84862  1.0000
  C   C282      1.0  0.08981  0.91265  0.82123  1.0000
  C   C283      1.0  0.08481  0.86336  0.82694  1.0000
  C   C284      1.0  0.07720  0.89398  0.87836  1.0000
  C   C285      1.0  0.10573  0.88661  0.86715  1.0000
  C   C286      1.0  0.11594  0.86301  0.86219  1.0000
  C   C287      1.0  0.11158  0.90858  0.89105  1.0000
  C   C288      1.0  0.13093  0.86158  0.88046  1.0000
  C   C289      1.0  0.12657  0.90688  0.90916  1.0000
  C   C290      1.0  0.13622  0.88344  0.90389  1.0000
  H   H344      1.0  0.09929  0.90989  0.79877  1.0000
  H   H345      1.0  0.07799  0.91474  0.80630  1.0000
  H   H346      1.0  0.09219  0.93296  0.83590  1.0000
  H   H347      1.0  0.09313  0.85900  0.80248  1.0000
  H   H348      1.0  0.07255  0.86558  0.81414  1.0000
  H   H349      1.0  0.08424  0.84475  0.84619  1.0000
  H   H350      1.0  0.07850  0.91468  0.89268  1.0000
  H   H351      1.0  0.06484  0.89348  0.86589  1.0000
  H   H352      1.0  0.07782  0.87789  0.90145  1.0000
  H   H353      1.0  0.11259  0.84522  0.84473  1.0000
  H   H354      1.0  0.10448  0.92706  0.89657  1.0000
  H   H355      1.0  0.13845  0.84323  0.87707  1.0000
  C   C291      1.0  0.26827  0.52282  0.67205  1.0000
  C   C292      1.0  0.03519  0.75179  0.89937  1.0000
  C   C293      1.0  0.03869  0.72682  0.88048  1.0000
  C   C294      1.0  0.30712  0.50565  0.62788  1.0000
  C   C295      1.0  0.00835  0.98466  0.95553  1.0000
  C   C296      1.0  0.31222  0.72088  0.67051  1.0000
  N   N20       1.0  0.26199  0.94851  0.75806  1.0000
  C   C297      1.0  0.27887  0.94749  0.77160  1.0000
  C   C298      1.0  0.25146  0.95250  0.79237  1.0000
  C   C299      1.0  0.25773  0.92097  0.74077  1.0000
  C   C300      1.0  0.30787  0.98997  0.70517  1.0000
  C   C301      1.0  0.26536  0.50189  0.73516  1.0000
  C   C302      1.0  0.01867  0.76718  0.84472  1.0000
  C   C303      1.0  0.30938  0.97932  0.63724  1.0000
  S   S87       1.0  0.32041  0.63275  0.60312  1.0000
  H   H356      1.0  0.09057  0.84932  0.95805  1.0000
  C   C304      1.0  0.26686  0.52562  0.71186  1.0000
  H   H357      1.0  0.28035  0.93169  0.79480  1.0000
  C   C305      1.0  0.00441  0.81253  0.84967  1.0000
  H   H358      1.0  0.00726  0.81281  0.77436  1.0000
  H   H359      1.0  0.25222  0.93443  0.81264  1.0000
  S   S88       1.0  0.07668  0.90391  0.97920  1.0000
  H   H360      1.0  0.99614  0.82729  0.83490  1.0000
  H   H361      1.0  0.25766  0.90394  0.76275  1.0000
  N   N21       1.0  0.00776  0.78738  0.82582  1.0000
  H   H362      1.0  0.26727  0.54633  0.72466  1.0000
  S   S89       1.0  0.31916  0.79393  0.73067  1.0000
  H   H363      1.0  0.01694  0.77985  0.76811  1.0000
  C   C306      1.0  0.00291  0.73549  0.51626  1.0000
  H   H364      1.0  0.01567  0.82455  0.85554  1.0000
  H   H365      1.0  0.27440  0.98812  0.63864  1.0000
  C   C307      1.0  0.32022  0.73407  0.53619  1.0000
  C   C308      1.0  0.02538  0.77178  0.88191  1.0000
  H   H366      1.0  0.32450  0.75679  0.61070  1.0000
  Fe  Fe45      1.0  0.32594  0.62900  0.53978  1.0000
  H   H367      1.0  0.31178  0.73793  0.56054  1.0000
  H   H368      1.0  0.23859  0.95448  0.78395  1.0000
  C   C309      1.0  0.01502  0.79713  0.78905  1.0000
  H   H369      1.0  0.00938  0.73353  0.54313  1.0000
  H   H370      1.0  0.26423  0.86455  0.97784  1.0000
  H   H371      1.0  0.07212  0.53600  0.49380  1.0000
  C   C310      1.0  0.99823  0.52964  0.97758  1.0000
  H   H372      1.0  0.03992  0.75563  0.92808  1.0000
  C   C311      1.0  0.00396  0.71382  0.48847  1.0000
  H   H373      1.0  0.04107  0.78278  0.52175  1.0000
  H   H374      1.0  0.00071  0.88213  0.82484  1.0000
  H   H375      1.0  0.32016  0.75292  0.51745  1.0000
  H   H376      1.0  0.11823  0.83038  0.96575  1.0000
  C   C312      1.0  0.03773  0.77637  0.49284  1.0000
  H   H377      1.0  0.32815  0.70844  0.60201  1.0000
  H   H378      1.0  0.05386  0.74201  0.49226  1.0000
  C   C313      1.0  0.00979  0.76957  0.97852  1.0000
  C   C314      1.0  0.26823  0.49630  0.65537  1.0000
  C   C315      1.0  0.26814  0.99039  0.66593  1.0000
  H   H379      1.0  0.00950  0.50343  0.82978  1.0000
  C   C316      1.0  0.11542  0.85094  0.97692  1.0000
  S   S90       1.0  0.99901  0.56678  0.97939  1.0000
  S   S91       1.0  0.99606  0.86580  0.58032  1.0000
  C   C317      1.0  0.55633  0.27035  0.43018  1.0000
  H   H380      1.0  0.56006  0.20328  0.46472  1.0000
  C   C318      1.0  0.36726  0.13136  0.41722  1.0000
  Fe  Fe46      1.0  0.47084  0.11512  0.38553  1.0000
  S   S92       1.0  0.49465  0.11148  0.41569  1.0000
  S   S93       1.0  0.46579  0.10869  0.32153  1.0000
  H   H381      1.0  0.51307  0.03600  0.28349  1.0000
  C   C319      1.0  0.64311  0.20398  0.14510  1.0000
  Fe  Fe47      1.0  0.48651  0.14821  0.45132  1.0000
  H   H382      1.0  0.64669  0.19104  0.11977  1.0000
  S   S94       1.0  0.45768  0.08579  0.42614  1.0000
  S   S95       1.0  0.46371  0.15428  0.41753  1.0000
  S   S96       1.0  0.63539  0.09061  0.16905  1.0000
  S   S97       1.0  0.63414  0.36963  0.41508  1.0000
  Fe  Fe48      1.0  0.51544  0.08866  0.04396  1.0000
  S   S98       1.0  0.53248  0.11928  0.01557  1.0000
  H   H383      1.0  0.48419  0.02848  0.36500  1.0000
  Fe  Fe49      1.0  0.51997  0.11779  0.12233  1.0000
  S   S99       1.0  0.53692  0.15032  0.09767  1.0000
  S   S100      1.0  0.51872  0.12075  0.18833  1.0000
  Fe  Fe50      1.0  0.51972  0.15369  0.04774  1.0000
  H   H384      1.0  0.41684  0.18471  0.36963  1.0000
  Fe  Fe51      1.0  0.54862  0.11434  0.06723  1.0000
  S   S101      1.0  0.57592  0.11438  0.05638  1.0000
  S   S102      1.0  0.50173  0.12358  0.07443  1.0000
  S   S103      1.0  0.53260  0.08124  0.09357  1.0000
  C   C320      1.0  0.61899  0.09894  0.13800  1.0000
  C   C321      1.0  0.60317  0.09263  0.15008  1.0000
  C   C322      1.0  0.58983  0.09778  0.12594  1.0000
  C   C323      1.0  0.59217  0.10893  0.08905  1.0000
  C   C324      1.0  0.60799  0.11551  0.07716  1.0000
  C   C325      1.0  0.62130  0.11079  0.10154  1.0000
  H   H385      1.0  0.60119  0.08349  0.17819  1.0000
  H   H386      1.0  0.57777  0.09262  0.13552  1.0000
  H   H387      1.0  0.60995  0.12415  0.04872  1.0000
  H   H388      1.0  0.63337  0.11559  0.09163  1.0000
  C   C326      1.0  0.48037  0.11310  0.28440  1.0000
  C   C327      1.0  0.49587  0.12310  0.29228  1.0000
  C   C328      1.0  0.50736  0.12529  0.26243  1.0000
  C   C329      1.0  0.50346  0.11802  0.22422  1.0000
  C   C330      1.0  0.48788  0.10832  0.21622  1.0000
  C   C331      1.0  0.47643  0.10580  0.24622  1.0000
  H   H389      1.0  0.49900  0.12926  0.32134  1.0000
  H   H390      1.0  0.51934  0.13295  0.26888  1.0000
  H   H391      1.0  0.48472  0.10259  0.18700  1.0000
  H   H392      1.0  0.46447  0.09807  0.23977  1.0000
  H   H393      1.0  0.51342  0.08515  0.33592  1.0000
  H   H394      1.0  0.37247  0.16934  0.44781  1.0000
  H   H395      1.0  0.62806  0.03632  0.20067  1.0000
  N   N22       1.0  0.64518  0.01954  0.24130  1.0000
  H   H396      1.0  0.56213  0.34105  0.41443  1.0000
  C   C332      1.0  0.49863  0.02199  0.99433  1.0000
  C   C333      1.0  0.50495  0.22377  0.99859  1.0000
  H   H397      1.0  0.64741  0.16467  0.19715  1.0000
  C   C334      1.0  0.47886  0.24671  0.99149  1.0000
  C   C335      1.0  0.52235  0.01451  0.39460  1.0000
  H   H398      1.0  0.38389  0.07236  0.47788  1.0000
  C   C336      1.0  0.37299  0.11139  0.39141  1.0000
  C   C337      1.0  0.39842  0.13749  0.38411  1.0000
  H   H399      1.0  0.36560  0.09326  0.38473  1.0000
  C   C338      1.0  0.53632  0.23826  0.40198  1.0000
  C   C339      1.0  0.61857  0.36956  0.45073  1.0000
  C   C340      1.0  0.50456  0.37007  0.10157  1.0000
  H   H400      1.0  0.47081  0.36730  0.04111  1.0000
  C   C341      1.0  0.62710  0.20784  0.20240  1.0000
  C   C342      1.0  0.51279  0.41864  0.10768  1.0000
  H   H401      1.0  0.63950  0.22515  0.13510  1.0000
  H   H402      1.0  0.64765  0.06449  0.24136  1.0000
  H   H403      1.0  0.53713  0.28143  0.38938  1.0000
  H   H404      1.0  0.58644  0.31949  0.43100  1.0000
  H   H405      1.0  0.47368  0.34275  0.00245  1.0000
  H   H406      1.0  0.48278  0.20784  0.02227  1.0000
  H   H407      1.0  0.52097  0.07084  0.37913  1.0000
  C   C343      1.0  0.42456  0.11559  0.37975  1.0000
  C   C344      1.0  0.39222  0.15740  0.41080  1.0000
  H   H408      1.0  0.39917  0.17513  0.42075  1.0000
  C   C345      1.0  0.56032  0.30768  0.47611  1.0000
  H   H409      1.0  0.47888  0.47257  0.03961  1.0000
  H   H410      1.0  0.62646  0.99928  0.20864  1.0000
  H   H411      1.0  0.41212  0.08837  0.46775  1.0000
  H   H412      1.0  0.48621  0.06552  0.35742  1.0000
  H   H413      1.0  0.48719  0.48012  0.43925  1.0000
  N   N23       1.0  0.50741  0.04147  0.34381  1.0000
  C   C346      1.0  0.50863  0.27352  0.46145  1.0000
  H   H414      1.0  0.49073  0.26847  0.41705  1.0000
  H   H415      1.0  0.55802  0.31456  0.37917  1.0000
  C   C347      1.0  0.49616  0.22887  0.44372  1.0000
  H   H416      1.0  0.51822  0.33661  0.01845  1.0000
  H   H417      1.0  0.49296  0.02461  0.29732  1.0000
  H   H418      1.0  0.50213  0.40487  0.01569  1.0000
  C   C348      1.0  0.49147  0.32435  0.05795  1.0000
  H   H419      1.0  0.48137  0.37732  0.99820  1.0000
  N   N24       1.0  0.49487  0.35082  0.03695  1.0000
  C   C349      1.0  0.47956  0.35995  0.01897  1.0000
  C   C350      1.0  0.49778  0.25798  0.43882  1.0000
  S   S104      1.0  0.50532  0.17823  0.47554  1.0000
  H   H420      1.0  0.57216  0.24976  0.47143  1.0000
  C   C351      1.0  0.49251  0.49008  0.46422  1.0000
  Fe  Fe52      1.0  0.48121  0.08485  0.45845  1.0000
  C   C352      1.0  0.58968  0.37377  0.46570  1.0000
  C   C353      1.0  0.50126  0.37361  0.06165  1.0000
  C   C354      1.0  0.56236  0.24721  0.45127  1.0000
  C   C355      1.0  0.60254  0.37403  0.43892  1.0000
  H   H421      1.0  0.47984  0.00977  0.43551  1.0000
  C   C356      1.0  0.51520  0.01550  0.35747  1.0000
  H   H422      1.0  0.65946  0.04671  0.27704  1.0000
  Fe  Fe53      1.0  0.45182  0.12490  0.46001  1.0000
  H   H423      1.0  0.60010  0.37797  0.40880  1.0000
  C   C357      1.0  0.51852  0.06571  0.34844  1.0000
  H   H424      1.0  0.48794  0.21703  0.42578  1.0000
  N   N25       1.0  0.41477  0.13970  0.36706  1.0000
  C   C358      1.0  0.49803  0.01389  0.47924  1.0000
  H   H425      1.0  0.50968  0.36292  0.98825  1.0000
  H   H426      1.0  0.65427  0.20682  0.16258  1.0000
  C   C359      1.0  0.65734  0.01807  0.20985  1.0000
  H   H427      1.0  0.51172  0.44319  0.05581  1.0000
  H   H428      1.0  0.47473  0.14118  0.98614  1.0000
  H   H429      1.0  0.49554  0.04931  0.39826  1.0000
  C   C360      1.0  0.54301  0.26507  0.40543  1.0000
  C   C361      1.0  0.52955  0.47597  0.40493  1.0000
  H   H430      1.0  0.52584  0.23486  0.38392  1.0000
  H   H431      1.0  0.61920  0.02370  0.24405  1.0000
  H   H432      1.0  0.51261  0.38933  0.15451  1.0000
  H   H433      1.0  0.50280  0.35035  0.11612  1.0000
  C   C362      1.0  0.41380  0.13931  0.32432  1.0000
  N   N26       1.0  0.63004  0.19031  0.16774  1.0000
  H   H434      1.0  0.61880  0.19762  0.22327  1.0000
  H   H435      1.0  0.42594  0.14178  0.31079  1.0000
  H   H436      1.0  0.62181  0.22836  0.19431  1.0000
  C   C363      1.0  0.61486  0.18639  0.14590  1.0000
  C   C364      1.0  0.61332  0.19355  0.10628  1.0000
  C   C365      1.0  0.60113  0.17435  0.16407  1.0000
  C   C366      1.0  0.59886  0.18900  0.08647  1.0000
  C   C367      1.0  0.58675  0.16998  0.14397  1.0000
  C   C368      1.0  0.58562  0.17734  0.10529  1.0000
  C   C369      1.0  0.63608  0.16269  0.18026  1.0000
  C   C370      1.0  0.55552  0.22052  0.44771  1.0000
  H   H437      1.0  0.43709  0.11687  0.36832  1.0000
  C   C371      1.0  0.42354  0.16563  0.37831  1.0000
  H   H438      1.0  0.35556  0.12860  0.43082  1.0000
  H   H439      1.0  0.63861  0.14912  0.15489  1.0000
  C   C372      1.0  0.37682  0.15434  0.42675  1.0000
  H   H440      1.0  0.41957  0.09523  0.36981  1.0000
  H   H441      1.0  0.58381  0.28982  0.39966  1.0000
  H   H442      1.0  0.62313  0.20225  0.08969  1.0000
  H   H443      1.0  0.60149  0.16762  0.19375  1.0000
  H   H444      1.0  0.59797  0.19392  0.05605  1.0000
  H   H445      1.0  0.57652  0.16007  0.15803  1.0000
  H   H446      1.0  0.57459  0.17314  0.08952  1.0000
  H   H447      1.0  0.40600  0.15652  0.31363  1.0000
  H   H448      1.0  0.42526  0.11481  0.41178  1.0000
  C   C373      1.0  0.50670  0.34435  0.00613  1.0000
  C   C374      1.0  0.49272  0.04646  0.36713  1.0000
  C   C375      1.0  0.38831  0.11434  0.37499  1.0000
  H   H449      1.0  0.62735  0.15116  0.19872  1.0000
  H   H450      1.0  0.40890  0.11927  0.31298  1.0000
  H   H451      1.0  0.51707  0.43592  0.12524  1.0000
  H   H452      1.0  0.43563  0.16691  0.36434  1.0000
  H   H453      1.0  0.42574  0.16641  0.40999  1.0000
  H   H454      1.0  0.39232  0.09803  0.35566  1.0000
  H   H455      1.0  0.65605  0.99856  0.19256  1.0000
  H   H456      1.0  0.63812  0.05079  0.28335  1.0000
  H   H457      1.0  0.48653  0.30790  0.03828  1.0000
  H   H458      1.0  0.63849  0.21210  0.21848  1.0000
  H   H459      1.0  0.50872  0.49173  0.37808  1.0000
  S   S105      1.0  0.51105  0.30967  0.45242  1.0000
  H   H460      1.0  0.65609  0.03583  0.18926  1.0000
  S   S106      1.0  0.53728  0.37600  0.47486  1.0000
  Fe  Fe54      1.0  0.66180  0.10504  0.16884  1.0000
  S   S107      1.0  0.51757  0.19557  0.01429  1.0000
  S   S108      1.0  0.50304  0.05863  0.00016  1.0000
  H   H461      1.0  0.53025  0.06176  0.33382  1.0000
  H   H462      1.0  0.48234  0.32748  0.08109  1.0000
  H   H463      1.0  0.50260  0.31535  0.07066  1.0000
  H   H464      1.0  0.57752  0.37769  0.45615  1.0000
  H   H465      1.0  0.62627  0.01057  0.30534  1.0000
  N   N27       1.0  0.56333  0.29864  0.43587  1.0000
  H   H466      1.0  0.50888  0.00834  0.04792  1.0000
  C   C376      1.0  0.64767  0.04650  0.26174  1.0000
  C   C377      1.0  0.50258  0.04044  0.30257  1.0000
  H   H467      1.0  0.52551  0.45444  0.40192  1.0000
  C   C378      1.0  0.62903  0.01966  0.22301  1.0000
  H   H468      1.0  0.58755  0.28536  0.45034  1.0000
  H   H469      1.0  0.55111  0.46460  0.43512  1.0000
  H   H470      1.0  0.49744  0.06074  0.29276  1.0000
  H   H471      1.0  0.54325  0.32330  0.41587  1.0000
  C   C379      1.0  0.51024  0.39237  0.12407  1.0000
  C   C380      1.0  0.50563  0.21504  0.47086  1.0000
  H   H472      1.0  0.53687  0.19558  0.42142  1.0000
  C   C381      1.0  0.54252  0.21607  0.42313  1.0000
  H   H473      1.0  0.49519  0.15279  0.99036  1.0000
  C   C382      1.0  0.50424  0.40056  0.04586  1.0000
  Fe  Fe55      1.0  0.66188  0.36856  0.40993  1.0000
  C   C383      1.0  0.48835  0.22448  0.00580  1.0000
  H   H474      1.0  0.49045  0.11647  0.99606  1.0000
  H   H475      1.0  0.46604  0.24684  0.99727  1.0000
  C   C384      1.0  0.50981  0.42270  0.06862  1.0000
  H   H476      1.0  0.50203  0.32798  0.98607  1.0000
  C   C385      1.0  0.55635  0.32019  0.41005  1.0000
  S   S109      1.0  0.50835  0.44043  0.47313  1.0000
  H   H477      1.0  0.52208  0.03235  0.41384  1.0000
  C   C386      1.0  0.54398  0.48166  0.42378  1.0000
  C   C387      1.0  0.48620  0.48171  0.01700  1.0000
  H   H478      1.0  0.65961  0.24601  0.25784  1.0000
  C   C388      1.0  0.50283  0.00185  0.02177  1.0000
  C   C389      1.0  0.58099  0.29818  0.42887  1.0000
  C   C390      1.0  0.48900  0.99911  0.45191  1.0000
  C   C391      1.0  0.64616  0.99613  0.26916  1.0000
  C   C392      1.0  0.48768  0.46755  0.98144  1.0000
  S   S110      1.0  0.35105  0.37689  0.85107  1.0000
  C   C393      1.0  0.45254  0.22973  0.53161  1.0000
  Fe  Fe56      1.0  0.47544  0.40178  0.92623  1.0000
  S   S111      1.0  0.49404  0.36870  0.91381  1.0000
  C   C394      1.0  0.49707  0.47296  0.67354  1.0000
  Fe  Fe57      1.0  0.45092  0.37505  0.86908  1.0000
  S   S112      1.0  0.46800  0.34019  0.85289  1.0000
  S   S113      1.0  0.42797  0.38349  0.83389  1.0000
  Fe  Fe58      1.0  0.47389  0.33697  0.91652  1.0000
  H   H479      1.0  0.43014  0.41277  0.90871  1.0000
  Fe  Fe59      1.0  0.48696  0.37400  0.85123  1.0000
  S   S114      1.0  0.50662  0.38019  0.80602  1.0000
  S   S115      1.0  0.45538  0.36978  0.93262  1.0000
  S   S116      1.0  0.46976  0.40908  0.86379  1.0000
  Fe  Fe60      1.0  0.54952  0.37094  0.53206  1.0000
  S   S117      1.0  0.57683  0.36745  0.53977  1.0000
  Fe  Fe61      1.0  0.51761  0.36612  0.57656  1.0000
  S   S118      1.0  0.50345  0.37084  0.52194  1.0000
  S   S119      1.0  0.50014  0.35647  0.62571  1.0000
  C   C395      1.0  0.37067  0.05311  0.60981  1.0000
  H   H480      1.0  0.37238  0.39173  0.78624  1.0000
  Fe  Fe62      1.0  0.52051  0.40533  0.50627  1.0000
  H   H481      1.0  0.47066  0.30805  0.53827  1.0000
  S   S120      1.0  0.53412  0.33398  0.55048  1.0000
  S   S121      1.0  0.53380  0.40295  0.56280  1.0000
  C   C396      1.0  0.48397  0.43305  0.58374  1.0000
  C   C397      1.0  0.48741  0.13555  0.97926  1.0000
  C   C398      1.0  0.46115  0.20482  0.52977  1.0000
  C   C399      1.0  0.35687  0.02424  0.56387  1.0000
  N   N28       1.0  0.49460  0.44809  0.64845  1.0000
  C   C400      1.0  0.50234  0.26798  0.96253  1.0000
  C   C401      1.0  0.48040  0.48151  0.60253  1.0000
  H   H482      1.0  0.51774  0.43261  0.66732  1.0000
  C   C402      1.0  0.48634  0.45444  0.61169  1.0000
  C   C403      1.0  0.48480  0.15647  0.91641  1.0000
  C   C404      1.0  0.51071  0.43600  0.64043  1.0000
  H   H483      1.0  0.49660  0.22588  0.56739  1.0000
  H   H484      1.0  0.50992  0.41516  0.62636  1.0000
  H   H485      1.0  0.37302  0.06830  0.58598  1.0000
  H   H486      1.0  0.50789  0.28437  0.94556  1.0000
  C   C405      1.0  0.43603  0.46032  0.86867  1.0000
  H   H487      1.0  0.34973  0.28931  0.72660  1.0000
  H   H488      1.0  0.40224  0.39440  0.78116  1.0000
  H   H489      1.0  0.51677  0.01081  0.52188  1.0000
  C   C406      1.0  0.46221  0.99525  0.55442  1.0000
  C   C407      1.0  0.47059  0.46518  0.54073  1.0000
  C   C408      1.0  0.48626  0.01867  0.57647  1.0000
  H   H490      1.0  0.48818  0.41196  0.58854  1.0000
  C   C409      1.0  0.50471  0.37287  0.75609  1.0000
  C   C410      1.0  0.51782  0.37840  0.73139  1.0000
  C   C411      1.0  0.51677  0.37307  0.69148  1.0000
  C   C412      1.0  0.50255  0.36216  0.67590  1.0000
  C   C413      1.0  0.48945  0.35657  0.70057  1.0000
  C   C414      1.0  0.49049  0.36196  0.74045  1.0000
  H   H491      1.0  0.52889  0.38671  0.74330  1.0000
  H   H492      1.0  0.52697  0.37732  0.67289  1.0000
  H   H493      1.0  0.47836  0.34826  0.68880  1.0000
  H   H494      1.0  0.48032  0.35765  0.75912  1.0000
  C   C415      1.0  0.47692  0.20400  0.54320  1.0000
  H   H495      1.0  0.48539  0.48241  0.68241  1.0000
  C   C416      1.0  0.46611  0.18254  0.87507  1.0000
  C   C417      1.0  0.60865  0.36425  0.51660  1.0000
  H   H496      1.0  0.34559  0.01290  0.55598  1.0000
  C   C418      1.0  0.38120  0.13621  0.52036  1.0000
  N   N29       1.0  0.48302  0.27972  0.57691  1.0000
  H   H497      1.0  0.43254  0.47993  0.85369  1.0000
  H   H498      1.0  0.50797  0.27009  0.56575  1.0000
  C   C419      1.0  0.37242  0.37835  0.84539  1.0000
  C   C420      1.0  0.38232  0.37177  0.87704  1.0000
  C   C421      1.0  0.39930  0.37300  0.87418  1.0000
  C   C422      1.0  0.40663  0.38119  0.83961  1.0000
  C   C423      1.0  0.39673  0.38798  0.80805  1.0000
  C   C424      1.0  0.37977  0.38636  0.81076  1.0000
  H   H499      1.0  0.37678  0.36555  0.90399  1.0000
  H   H500      1.0  0.40667  0.36758  0.89869  1.0000
  H   H501      1.0  0.51791  0.44987  0.62110  1.0000
  H   H502      1.0  0.34330  0.07241  0.58005  1.0000
  H   H503      1.0  0.43319  0.44244  0.84908  1.0000
  H   H504      1.0  0.47893  0.30792  0.62466  1.0000
  H   H505      1.0  0.48366  0.18463  0.54118  1.0000
  H   H506      1.0  0.52463  0.24547  0.97085  1.0000
  C   C425      1.0  0.55593  0.00344  0.88640  1.0000
  C   C426      1.0  0.35229  0.02460  0.67318  1.0000
  H   H507      1.0  0.37267  0.14968  0.53488  1.0000
  C   C427      1.0  0.47633  0.43850  0.54871  1.0000
  S   S122      1.0  0.33164  0.36945  0.74391  1.0000
  C   C428      1.0  0.34992  0.00536  0.70300  1.0000
  C   C429      1.0  0.59264  0.36873  0.50477  1.0000
  H   H508      1.0  0.35157  0.26536  0.82515  1.0000
  S   S123      1.0  0.47710  0.43506  0.97449  1.0000
  C   C430      1.0  0.47344  0.28913  0.61068  1.0000
  H   H509      1.0  0.46295  0.13977  0.88879  1.0000
  H   H510      1.0  0.48746  0.02802  0.93892  1.0000
  C   C431      1.0  0.49715  0.47990  0.95259  1.0000
  S   S124      1.0  0.35602  0.09747  0.51242  1.0000
  C   C432      1.0  0.48424  0.22806  0.55832  1.0000
  C   C433      1.0  0.47527  0.20681  0.87964  1.0000
  H   H511      1.0  0.49613  0.22529  0.90601  1.0000
  C   C434      1.0  0.51013  0.48805  0.51949  1.0000
  N   N30       1.0  0.36217  0.29175  0.78127  1.0000
  C   C435      1.0  0.35306  0.31611  0.79595  1.0000
  C   C436      1.0  0.36209  0.29242  0.73843  1.0000
  H   H512      1.0  0.42761  0.42963  0.95476  1.0000
  C   C437      1.0  0.37891  0.29335  0.79589  1.0000
  C   C438      1.0  0.38514  0.27424  0.82345  1.0000
  C   C439      1.0  0.38935  0.31528  0.78376  1.0000
  C   C440      1.0  0.40086  0.27699  0.83756  1.0000
  C   C441      1.0  0.40510  0.31754  0.79761  1.0000
  C   C442      1.0  0.41081  0.29860  0.82467  1.0000
  C   C443      1.0  0.49078  0.01282  0.96049  1.0000
  H   H513      1.0  0.35287  0.04649  0.68092  1.0000
  H   H514      1.0  0.44934  0.46052  0.87179  1.0000
  C   C444      1.0  0.34190  0.05628  0.60282  1.0000
  H   H515      1.0  0.36986  0.27569  0.72619  1.0000
  N   N31       1.0  0.48970  0.13092  0.93737  1.0000
  C   C445      1.0  0.45969  0.25390  0.54682  1.0000
  C   C446      1.0  0.35338  0.26605  0.79336  1.0000
  H   H516      1.0  0.37804  0.25722  0.83498  1.0000
  H   H517      1.0  0.38528  0.33130  0.76417  1.0000
  H   H518      1.0  0.40532  0.26248  0.85898  1.0000
  H   H519      1.0  0.41283  0.33458  0.78811  1.0000
  H   H520      1.0  0.42291  0.30100  0.83603  1.0000
  H   H521      1.0  0.46098  0.29512  0.60272  1.0000
  C   C447      1.0  0.48911  0.20630  0.90213  1.0000
  H   H522      1.0  0.35304  0.31684  0.82807  1.0000
  C   C448      1.0  0.41013  0.45397  0.89805  1.0000
  H   H523      1.0  0.52632  0.27148  0.50657  1.0000
  S   S125      1.0  0.47292  0.29607  0.95235  1.0000
  H   H524      1.0  0.52380  0.22002  0.51465  1.0000
  C   C449      1.0  0.44757  0.48864  0.94051  1.0000
  H   H525      1.0  0.35972  0.24682  0.78363  1.0000
  H   H526      1.0  0.46673  0.03942  0.54802  1.0000
  H   H527      1.0  0.45253  0.27271  0.54753  1.0000
  C   C450      1.0  0.47580  0.25385  0.56065  1.0000
  H   H528      1.0  0.50953  0.12338  0.89858  1.0000
  H   H529      1.0  0.40512  0.47238  0.88267  1.0000
  C   C451      1.0  0.43134  0.48223  0.93081  1.0000
  C   C452      1.0  0.51183  0.24577  0.97691  1.0000
  H   H530      1.0  0.61113  0.36041  0.54673  1.0000
  H   H531      1.0  0.48123  0.10128  0.89497  1.0000
  H   H532      1.0  0.48472  0.08656  0.94157  1.0000
  C   C453      1.0  0.54931  0.01936  0.91617  1.0000
  N   N32       1.0  0.42759  0.45765  0.90627  1.0000
  H   H533      1.0  0.50438  0.18262  0.93844  1.0000
  S   S126      1.0  0.47429  0.12148  0.49583  1.0000
  C   C454      1.0  0.49379  0.18162  0.92042  1.0000
  H   H534      1.0  0.34102  0.26514  0.78074  1.0000
  H   H535      1.0  0.40307  0.45024  0.92490  1.0000
  H   H536      1.0  0.47160  0.22618  0.86608  1.0000
  C   C455      1.0  0.39723  0.14533  0.51427  1.0000
  H   H537      1.0  0.45562  0.18611  0.51772  1.0000
  C   C456      1.0  0.40855  0.12831  0.49511  1.0000
  H   H538      1.0  0.35821  0.33633  0.78589  1.0000
  H   H539      1.0  0.56574  0.01202  0.86936  1.0000
  H   H540      1.0  0.40787  0.43546  0.87913  1.0000
  C   C457      1.0  0.51633  0.23066  0.49387  1.0000
  H   H541      1.0  0.35863  0.04059  0.54131  1.0000
  H   H542      1.0  0.36727  0.00974  0.56153  1.0000
  H   H543      1.0  0.48308  0.40764  0.65424  1.0000
  H   H544      1.0  0.50086  0.26040  0.61334  1.0000
  C   C458      1.0  0.50697  0.12472  0.93001  1.0000
  H   H545      1.0  0.49337  0.03771  0.57879  1.0000
  H   H546      1.0  0.48969  0.29562  0.52108  1.0000
  H   H547      1.0  0.46502  0.46949  0.51314  1.0000
  H   H548      1.0  0.54719  0.30725  0.48259  1.0000
  H   H549      1.0  0.40087  0.16584  0.52435  1.0000
  H   H550      1.0  0.48876  0.32165  0.55843  1.0000
  C   C459      1.0  0.48299  0.30216  0.54742  1.0000
  C   C460      1.0  0.53667  0.00855  0.93805  1.0000
  C   C461      1.0  0.37623  0.10989  0.50714  1.0000
  H   H551      1.0  0.50499  0.29614  0.60188  1.0000
  C   C462      1.0  0.38758  0.09273  0.48833  1.0000
  H   H552      1.0  0.51858  0.47675  0.53722  1.0000
  Fe  Fe63      1.0  0.33239  0.11458  0.53837  1.0000
  H   H553      1.0  0.36621  0.31283  0.72667  1.0000
  H   H554      1.0  0.49082  0.42163  0.69817  1.0000
  Fe  Fe64      1.0  0.52098  0.34131  0.49510  1.0000
  H   H555      1.0  0.44026  0.23023  0.52102  1.0000
  H   H556      1.0  0.34870  0.01257  0.73252  1.0000
  H   H557      1.0  0.49850  0.46946  0.92508  1.0000
  H   H558      1.0  0.34038  0.06765  0.63056  1.0000
  H   H559      1.0  0.45528  0.18310  0.85769  1.0000
  H   H560      1.0  0.44646  0.43176  0.92983  1.0000
  H   H561      1.0  0.47524  0.42213  0.52714  1.0000
  C   C463      1.0  0.49994  0.27625  0.59000  1.0000
  H   H562      1.0  0.38130  0.03911  0.61198  1.0000
  H   H563      1.0  0.37005  0.06578  0.63666  1.0000
  H   H564      1.0  0.47264  0.27239  0.63288  1.0000
  C   C464      1.0  0.47071  0.15766  0.89316  1.0000
  H   H565      1.0  0.33041  0.04504  0.59720  1.0000
  C   C465      1.0  0.48489  0.42746  0.67052  1.0000
  H   H566      1.0  0.47271  0.43577  0.67738  1.0000
  N   N33       1.0  0.35569  0.03675  0.60304  1.0000
  C   C466      1.0  0.43319  0.43188  0.92570  1.0000
  C   C467      1.0  0.47261  0.48662  0.56755  1.0000
  C   C468      1.0  0.35341  0.01584  0.63410  1.0000
  C   C469      1.0  0.47121  0.01968  0.55895  1.0000
  H   H567      1.0  0.55397  0.04013  0.92233  1.0000
  H   H568      1.0  0.56642  0.29415  0.49756  1.0000
  C   C470      1.0  0.48572  0.26861  0.96961  1.0000
  H   H569      1.0  0.34029  0.31548  0.78633  1.0000
  H   H570      1.0  0.63375  0.36123  0.49945  1.0000
  H   H571      1.0  0.45743  0.47580  0.93044  1.0000
  C   C471      1.0  0.48029  0.10559  0.92642  1.0000
  H   H572      1.0  0.50344  0.46739  0.70071  1.0000
  H   H573      1.0  0.51066  0.10454  0.94343  1.0000
  H   H574      1.0  0.46739  0.10747  0.93479  1.0000
  S   S127      1.0  0.49530  0.05017  0.48808  1.0000
  H   H575      1.0  0.53145  0.02104  0.96111  1.0000
  C   C472      1.0  0.50344  0.47507  0.48705  1.0000
  Fe  Fe65      1.0  0.33006  0.37733  0.80783  1.0000
  H   H576      1.0  0.50455  0.48915  0.65879  1.0000
  C   C473      1.0  0.50969  0.99952  0.50078  1.0000
  C   C474      1.0  0.51776  0.25982  0.48939  1.0000
  S   S128      1.0  0.42844  0.14160  0.48719  1.0000
  C   C475      1.0  0.62154  0.36473  0.48984  1.0000
  H   H577      1.0  0.51518  0.14074  0.94263  1.0000
  H   H578      1.0  0.45058  0.99613  0.54040  1.0000
  C   C476      1.0  0.40362  0.10182  0.48235  1.0000
  H   H579      1.0  0.56480  0.32933  0.48145  1.0000
  C   C477      1.0  0.61923  0.54648  0.15404  1.0000
  Fe  Fe66      1.0  0.44191  0.60987  0.44851  1.0000
  H   H580      1.0  0.62771  0.97228  0.35191  1.0000
  Fe  Fe67      1.0  0.47245  0.61910  0.39854  1.0000
  S   S129      1.0  0.48700  0.63131  0.45075  1.0000
  S   S130      1.0  0.48995  0.61983  0.34755  1.0000
  C   C478      1.0  0.59172  0.52871  0.19351  1.0000
  H   H581      1.0  0.50715  0.81437  0.02514  1.0000
  H   H582      1.0  0.45322  0.82709  0.06077  1.0000
  C   C479      1.0  0.63599  0.97286  0.32767  1.0000
  S   S131      1.0  0.46179  0.58100  0.42731  1.0000
  S   S132      1.0  0.45154  0.64684  0.41474  1.0000
  S   S133      1.0  0.64106  0.61521  0.12082  1.0000
  S   S134      1.0  0.63920  0.88183  0.41046  1.0000
  Fe  Fe68      1.0  0.51658  0.58676  0.04911  1.0000
  S   S135      1.0  0.53729  0.61751  0.04191  1.0000
  C   C480      1.0  0.53966  0.53124  0.41468  1.0000
  Fe  Fe69      1.0  0.50478  0.61829  0.12110  1.0000
  S   S136      1.0  0.52431  0.65099  0.11795  1.0000
  S   S137      1.0  0.48393  0.61936  0.16419  1.0000
  Fe  Fe70      1.0  0.51931  0.65198  0.05398  1.0000
  H   H583      1.0  0.47036  0.85087  0.10759  1.0000
  Fe  Fe71      1.0  0.54102  0.61468  0.10599  1.0000
  S   S138      1.0  0.56413  0.61112  0.14272  1.0000
  S   S139      1.0  0.49855  0.62152  0.05770  1.0000
  S   S140      1.0  0.52148  0.58169  0.11276  1.0000
  C   C481      1.0  0.61968  0.61640  0.12773  1.0000
  C   C482      1.0  0.60954  0.61578  0.09516  1.0000
  C   C483      1.0  0.59256  0.61497  0.09901  1.0000
  C   C484      1.0  0.58543  0.61439  0.13564  1.0000
  C   C485      1.0  0.59557  0.61529  0.16819  1.0000
  C   C486      1.0  0.61253  0.61658  0.16434  1.0000
  H   H584      1.0  0.61487  0.61566  0.06668  1.0000
  H   H585      1.0  0.58500  0.61425  0.07367  1.0000
  H   H586      1.0  0.59024  0.61485  0.19667  1.0000
  H   H587      1.0  0.62004  0.61731  0.18970  1.0000
  C   C487      1.0  0.48782  0.61858  0.29669  1.0000
  C   C488      1.0  0.47279  0.61698  0.27869  1.0000
  C   C489      1.0  0.47183  0.61678  0.23807  1.0000
  C   C490      1.0  0.48583  0.61810  0.21512  1.0000
  C   C491      1.0  0.50085  0.61936  0.23320  1.0000
  C   C492      1.0  0.50182  0.61969  0.27375  1.0000
  H   H588      1.0  0.46193  0.61609  0.29594  1.0000
  H   H589      1.0  0.46016  0.61579  0.22431  1.0000
  H   H590      1.0  0.51171  0.62053  0.21591  1.0000
  H   H591      1.0  0.51350  0.62120  0.28732  1.0000
  H   H592      1.0  0.64613  0.50262  0.18110  1.0000
  C   C493      1.0  0.64738  0.95176  0.32358  1.0000
  H   H593      1.0  0.50982  0.98875  0.30744  1.0000
  H   H594      1.0  0.57869  0.54060  0.14249  1.0000
  C   C494      1.0  0.49916  0.97320  0.01551  1.0000
  C   C495      1.0  0.49180  0.97032  0.44594  1.0000
  C   C496      1.0  0.50349  0.95599  0.46748  1.0000
  H   H595      1.0  0.48053  0.87290  0.00873  1.0000
  C   C497      1.0  0.54909  0.50924  0.42841  1.0000
  C   C498      1.0  0.50838  0.71876  0.99839  1.0000
  H   H596      1.0  0.46683  0.80162  0.10378  1.0000
  C   C499      1.0  0.48491  0.77030  0.10234  1.0000
  H   H597      1.0  0.65287  0.57054  0.23248  1.0000
  H   H598      1.0  0.48659  0.70364  0.02495  1.0000
  C   C500      1.0  0.64125  0.56815  0.21700  1.0000
  C   C501      1.0  0.62349  0.88018  0.44577  1.0000
  C   C502      1.0  0.60737  0.87894  0.43318  1.0000
  H   H599      1.0  0.53510  0.57332  0.36039  1.0000
  C   C503      1.0  0.62101  0.53672  0.19242  1.0000
  H   H600      1.0  0.60483  0.87900  0.40262  1.0000
  C   C504      1.0  0.52340  0.56434  0.35088  1.0000
  H   H601      1.0  0.48746  0.83962  0.99223  1.0000
  C   C505      1.0  0.47811  0.79564  0.09066  1.0000
  C   C506      1.0  0.50348  0.52009  0.99483  1.0000
  C   C507      1.0  0.63591  0.77660  0.33750  1.0000
  H   H602      1.0  0.52588  0.54971  0.32657  1.0000
  C   C508      1.0  0.47773  0.85901  0.08322  1.0000
  H   H603      1.0  0.49267  0.51819  0.05119  1.0000
  C   C509      1.0  0.63531  0.99470  0.30088  1.0000
  H   H604      1.0  0.50347  0.58682  0.40632  1.0000
  H   H605      1.0  0.54417  0.55226  0.41879  1.0000
  C   C510      1.0  0.46128  0.83413  0.03712  1.0000
  H   H606      1.0  0.65841  0.78440  0.30636  1.0000
  N   N34       1.0  0.49670  0.70542  0.36062  1.0000
  C   C511      1.0  0.48114  0.69649  0.37804  1.0000
  C   C512      1.0  0.50963  0.68885  0.37911  1.0000
  C   C513      1.0  0.49913  0.73541  0.37022  1.0000
  C   C514      1.0  0.49738  0.70144  0.31824  1.0000
  C   C515      1.0  0.48422  0.69069  0.29647  1.0000
  C   C516      1.0  0.51170  0.70797  0.29751  1.0000
  C   C517      1.0  0.48552  0.68637  0.25668  1.0000
  C   C518      1.0  0.51292  0.70318  0.25778  1.0000
  C   C519      1.0  0.49988  0.69224  0.23747  1.0000
  H   H607      1.0  0.47877  0.67390  0.37264  1.0000
  H   H608      1.0  0.48102  0.69929  0.40992  1.0000
  H   H609      1.0  0.47086  0.70887  0.36681  1.0000
  H   H610      1.0  0.52188  0.69652  0.37155  1.0000
  H   H611      1.0  0.50886  0.66646  0.37034  1.0000
  H   H612      1.0  0.50880  0.68957  0.41108  1.0000
  H   H613      1.0  0.48997  0.74867  0.35573  1.0000
  H   H614      1.0  0.49811  0.73928  0.40186  1.0000
  H   H615      1.0  0.51123  0.74321  0.36149  1.0000
  H   H616      1.0  0.47292  0.68459  0.30952  1.0000
  H   H617      1.0  0.52216  0.71635  0.31204  1.0000
  H   H618      1.0  0.47550  0.67738  0.24077  1.0000
  H   H619      1.0  0.52411  0.70752  0.24269  1.0000
  H   H620      1.0  0.50095  0.68773  0.20688  1.0000
  S   S141      1.0  0.52142  0.69197  0.01637  1.0000
  H   H621      1.0  0.48489  0.95907  0.42446  1.0000
  H   H622      1.0  0.47878  0.75724  0.12332  1.0000
  H   H623      1.0  0.49132  0.55970  0.35904  1.0000
  H   H624      1.0  0.60684  0.51998  0.24089  1.0000
  H   H625      1.0  0.62912  0.53567  0.27123  1.0000
  H   H626      1.0  0.38389  0.57070  0.45894  1.0000
  H   H627      1.0  0.64941  0.52567  0.26345  1.0000
  C   C520      1.0  0.60676  0.52756  0.21162  1.0000
  N   N35       1.0  0.63605  0.80361  0.35854  1.0000
  C   C521      1.0  0.48818  0.51768  0.47375  1.0000
  H   H628      1.0  0.58214  0.87715  0.44954  1.0000
  H   H629      1.0  0.60308  0.55563  0.10724  1.0000
  H   H630      1.0  0.63190  0.57948  0.23390  1.0000
  H   H631      1.0  0.46093  0.81773  0.01429  1.0000
  H   H632      1.0  0.51621  0.58198  0.33912  1.0000
  N   N36       1.0  0.63688  0.53832  0.21177  1.0000
  H   H633      1.0  0.52322  0.58114  0.42362  1.0000
  C   C522      1.0  0.65809  0.95239  0.29265  1.0000
  C   C523      1.0  0.59443  0.87790  0.45974  1.0000
  S   S142      1.0  0.50688  0.91994  0.45827  1.0000
  C   C524      1.0  0.48674  0.85343  0.01803  1.0000
  H   H634      1.0  0.64657  0.82770  0.31189  1.0000
  H   H635      1.0  0.58092  0.52235  0.20888  1.0000
  H   H636      1.0  0.47252  0.87961  0.07490  1.0000
  H   H637      1.0  0.50699  0.55956  0.44042  1.0000
  C   C525      1.0  0.63621  0.72547  0.29558  1.0000
  H   H638      1.0  0.49156  0.53015  0.39046  1.0000
  C   C526      1.0  0.62371  0.73109  0.32132  1.0000
  H   H639      1.0  0.63639  0.70596  0.27953  1.0000
  H   H640      1.0  0.56036  0.51357  0.44307  1.0000
  H   H641      1.0  0.49963  0.52782  0.34190  1.0000
  C   C527      1.0  0.65100  0.80596  0.38167  1.0000
  H   H642      1.0  0.63506  0.84769  0.34517  1.0000
  C   C528      1.0  0.60417  0.54723  0.13614  1.0000
  S   S143      1.0  0.41600  0.59277  0.45020  1.0000
  N   N37       1.0  0.51475  0.54992  0.38265  1.0000
  C   C529      1.0  0.49866  0.54133  0.36794  1.0000
  C   C530      1.0  0.51206  0.57014  0.41457  1.0000
  C   C531      1.0  0.50060  0.80320  0.04722  1.0000
  C   C532      1.0  0.52462  0.52621  0.39638  1.0000
  H   H643      1.0  0.65822  0.74048  0.27036  1.0000
  C   C533      1.0  0.63563  0.82698  0.33045  1.0000
  H   H644      1.0  0.52446  0.72298  0.47604  1.0000
  H   H645      1.0  0.49011  0.86299  0.09433  1.0000
  C   C534      1.0  0.63715  0.52482  0.25034  1.0000
  Fe  Fe72      1.0  0.46569  0.65665  0.46856  1.0000
  S   S144      1.0  0.51359  0.55315  0.00104  1.0000
  C   C535      1.0  0.52203  0.96575  0.35026  1.0000
  H   H646      1.0  0.52164  0.94652  0.33363  1.0000
  C   C536      1.0  0.64847  0.77009  0.31114  1.0000
  C   C537      1.0  0.62220  0.80718  0.38536  1.0000
  C   C538      1.0  0.50740  0.77803  0.05956  1.0000
  H   H647      1.0  0.62279  0.82764  0.40081  1.0000
  H   H648      1.0  0.44246  0.54603  0.99726  1.0000
  C   C539      1.0  0.64948  0.52466  0.18787  1.0000
  H   H649      1.0  0.51863  0.77078  0.04708  1.0000
  H   H650      1.0  0.62208  0.79082  0.40815  1.0000
  H   H651      1.0  0.45569  0.85329  0.02485  1.0000
  H   H652      1.0  0.61343  0.75924  0.36143  1.0000
  H   H653      1.0  0.53401  0.94645  0.39833  1.0000
  C   C540      1.0  0.59041  0.53875  0.15598  1.0000
  C   C541      1.0  0.49950  0.76148  0.08670  1.0000
  H   H654      1.0  0.62934  0.55491  0.13803  1.0000
  H   H655      1.0  0.61415  0.71581  0.32519  1.0000
  H   H656      1.0  0.50251  0.95802  0.03709  1.0000
  C   C542      1.0  0.62347  0.75626  0.34204  1.0000
  C   C543      1.0  0.64853  0.74495  0.29046  1.0000
  C   C544      1.0  0.48563  0.81271  0.06228  1.0000
  N   N38       1.0  0.47807  0.83933  0.05015  1.0000
  H   H657      1.0  0.64258  0.57923  0.18898  1.0000
  C   C545      1.0  0.49401  0.50771  0.02370  1.0000
  H   H658      1.0  0.50462  0.74153  0.09507  1.0000
  S   S145      1.0  0.54167  0.86254  0.47122  1.0000
  H   H659      1.0  0.62494  0.82526  0.31128  1.0000
  H   H660      1.0  0.49914  0.85992  0.02641  1.0000
  H   H661      1.0  0.61050  0.80696  0.36980  1.0000
  C   C546      1.0  0.51521  0.99026  0.33563  1.0000
  H   H662      1.0  0.65170  0.53576  0.16023  1.0000
  H   H663      1.0  0.63370  0.50232  0.24853  1.0000
  H   H664      1.0  0.64800  0.93497  0.34458  1.0000
  C   C547      1.0  0.52911  0.96566  0.38661  1.0000
  H   H665      1.0  0.66136  0.52443  0.20287  1.0000
  H   H666      1.0  0.51080  0.64155  0.98238  1.0000
  Fe  Fe73      1.0  0.47512  0.59474  0.48015  1.0000
  C   C548      1.0  0.65765  0.97426  0.26589  1.0000
  H   H667      1.0  0.47952  0.52875  0.45636  1.0000
  C   C549      1.0  0.48224  0.74166  0.99251  1.0000
  H   H668      1.0  0.65106  0.82519  0.39988  1.0000
  C   C550      1.0  0.49190  0.71968  0.00691  1.0000
  H   H669      1.0  0.46956  0.74216  0.99970  1.0000
  C   C551      1.0  0.38389  0.59145  0.47147  1.0000
  H   H670      1.0  0.53467  0.98976  0.43712  1.0000
  C   C552      1.0  0.52943  0.99008  0.40851  1.0000
  C   C553      1.0  0.49132  0.96403  0.98168  1.0000
  C   C554      1.0  0.39821  0.60744  0.47093  1.0000
  C   C555      1.0  0.51993  0.49778  0.39144  1.0000
  C   C556      1.0  0.51250  0.73150  0.47987  1.0000
  S   S146      1.0  0.52774  0.78259  0.48085  1.0000
  H   H671      1.0  0.65246  0.78766  0.40110  1.0000
  H   H672      1.0  0.66196  0.80725  0.36335  1.0000
  H   H673      1.0  0.50080  0.69091  0.47977  1.0000
  H   H674      1.0  0.41393  0.53620  0.98148  1.0000
  S   S147      1.0  0.35417  0.88676  0.84568  1.0000
  Fe  Fe74      1.0  0.52929  0.82745  0.50339  1.0000
  Fe  Fe75      1.0  0.47897  0.89694  0.92702  1.0000
  S   S148      1.0  0.49719  0.86324  0.91423  1.0000
  H   H675      1.0  0.36197  0.51526  0.63149  1.0000
  Fe  Fe76      1.0  0.45417  0.87010  0.87073  1.0000
  S   S149      1.0  0.47130  0.83517  0.85467  1.0000
  S   S150      1.0  0.43085  0.86883  0.83457  1.0000
  Fe  Fe77      1.0  0.47698  0.83192  0.91806  1.0000
  C   C557      1.0  0.45146  0.51146  0.96402  1.0000
  Fe  Fe78      1.0  0.49022  0.86892  0.85190  1.0000
  S   S151      1.0  0.51117  0.87367  0.80955  1.0000
  S   S152      1.0  0.45879  0.86511  0.93459  1.0000
  S   S153      1.0  0.47313  0.90425  0.86428  1.0000
  Fe  Fe79      1.0  0.55435  0.87138  0.52718  1.0000
  S   S154      1.0  0.58155  0.87867  0.53441  1.0000
  Fe  Fe80      1.0  0.52318  0.86387  0.57543  1.0000
  S   S155      1.0  0.50875  0.85432  0.52205  1.0000
  S   S156      1.0  0.50577  0.86140  0.62666  1.0000
  C   C558      1.0  0.38296  0.53791  0.57453  1.0000
  H   H676      1.0  0.37585  0.87116  0.78146  1.0000
  C   C559      1.0  0.39806  0.54360  0.55818  1.0000
  H   H677      1.0  0.35255  0.51241  0.58441  1.0000
  S   S157      1.0  0.54310  0.83457  0.55824  1.0000
  S   S158      1.0  0.53533  0.90168  0.54923  1.0000
  H   H678      1.0  0.61605  0.88012  0.54261  1.0000
  C   C560      1.0  0.37306  0.55980  0.58907  1.0000
  H   H679      1.0  0.34445  0.77081  0.85418  1.0000
  H   H680      1.0  0.33213  0.78555  0.81667  1.0000
  C   C561      1.0  0.61356  0.87959  0.51201  1.0000
  C   C562      1.0  0.51372  0.93855  0.88054  1.0000
  C   C563      1.0  0.50600  0.51591  0.52866  1.0000
  C   C564      1.0  0.33597  0.70381  0.57686  1.0000
  H   H681      1.0  0.51133  0.52593  0.55356  1.0000
  H   H682      1.0  0.35406  0.59300  0.63784  1.0000
  H   H683      1.0  0.38746  0.76372  0.80091  1.0000
  H   H684      1.0  0.34613  0.58811  0.57111  1.0000
  H   H685      1.0  0.46972  0.76168  0.49422  1.0000
  C   C565      1.0  0.40378  0.57098  0.55602  1.0000
  H   H686      1.0  0.52485  0.61647  0.86928  1.0000
  H   H687      1.0  0.63879  0.88128  0.49571  1.0000
  H   H688      1.0  0.51062  0.77816  0.94267  1.0000
  H   H689      1.0  0.40545  0.86355  0.77902  1.0000
  H   H690      1.0  0.51278  0.95181  0.85431  1.0000
  C   C566      1.0  0.56255  0.64407  0.96255  1.0000
  H   H691      1.0  0.50367  0.62081  0.87902  1.0000
  H   H692      1.0  0.49541  0.63210  0.94855  1.0000
  H   H693      1.0  0.51413  0.59291  0.90083  1.0000
  C   C567      1.0  0.50945  0.87073  0.75865  1.0000
  C   C568      1.0  0.52334  0.87359  0.73556  1.0000
  C   C569      1.0  0.52250  0.87105  0.69506  1.0000
  C   C570      1.0  0.50771  0.86559  0.67730  1.0000
  C   C571      1.0  0.49382  0.86293  0.70036  1.0000
  C   C572      1.0  0.49466  0.86547  0.74079  1.0000
  H   H694      1.0  0.53485  0.87762  0.74909  1.0000
  H   H695      1.0  0.53329  0.87307  0.67771  1.0000
  H   H696      1.0  0.48233  0.85852  0.68697  1.0000
  H   H697      1.0  0.48388  0.86316  0.75815  1.0000
  H   H698      1.0  0.47796  0.91602  0.55216  1.0000
  H   H699      1.0  0.37201  0.60540  0.59385  1.0000
  H   H700      1.0  0.50757  0.95474  0.63836  1.0000
  H   H701      1.0  0.34092  0.52182  0.62525  1.0000
  N   N39       1.0  0.35664  0.55477  0.60446  1.0000
  H   H702      1.0  0.52088  0.97434  0.94820  1.0000
  H   H703      1.0  0.46716  0.92454  0.61731  1.0000
  H   H704      1.0  0.39872  0.61418  0.56725  1.0000
  H   H705      1.0  0.38372  0.66561  0.51615  1.0000
  C   C573      1.0  0.37557  0.88306  0.84127  1.0000
  C   C574      1.0  0.38534  0.88807  0.87378  1.0000
  C   C575      1.0  0.40223  0.88409  0.87238  1.0000
  C   C576      1.0  0.40963  0.87497  0.83830  1.0000
  C   C577      1.0  0.39988  0.87035  0.80565  1.0000
  C   C578      1.0  0.38303  0.87449  0.80699  1.0000
  H   H706      1.0  0.37978  0.89486  0.90043  1.0000
  H   H707      1.0  0.40948  0.88792  0.89771  1.0000
  H   H708      1.0  0.50495  0.66640  0.90006  1.0000
  C   C579      1.0  0.36561  0.78674  0.57777  1.0000
  H   H709      1.0  0.34578  0.81662  0.76652  1.0000
  C   C580      1.0  0.48363  0.72407  0.48680  1.0000
  H   H710      1.0  0.41262  0.80614  0.89065  1.0000
  C   C581      1.0  0.41926  0.50012  0.94620  1.0000
  S   S159      1.0  0.47596  0.79066  0.95290  1.0000
  N   N40       1.0  0.51955  0.63373  0.92521  1.0000
  C   C582      1.0  0.49507  0.77137  0.48862  1.0000
  H   H711      1.0  0.52153  0.96009  0.51157  1.0000
  H   H712      1.0  0.36718  0.76988  0.75937  1.0000
  C   C583      1.0  0.35427  0.56991  0.64152  1.0000
  N   N41       1.0  0.49815  0.77646  0.60992  1.0000
  C   C584      1.0  0.48496  0.79292  0.59238  1.0000
  C   C585      1.0  0.51350  0.78569  0.59178  1.0000
  C   C586      1.0  0.49582  0.74647  0.60005  1.0000
  C   C587      1.0  0.49782  0.78038  0.65233  1.0000
  C   C588      1.0  0.48411  0.77192  0.67404  1.0000
  C   C589      1.0  0.51056  0.79354  0.67306  1.0000
  C   C590      1.0  0.48313  0.77666  0.71381  1.0000
  C   C591      1.0  0.50948  0.79801  0.71285  1.0000
  C   C592      1.0  0.49577  0.78980  0.73313  1.0000
  H   H713      1.0  0.48595  0.81542  0.60055  1.0000
  H   H714      1.0  0.48525  0.79178  0.56038  1.0000
  H   H715      1.0  0.47285  0.78544  0.60149  1.0000
  H   H716      1.0  0.51554  0.80848  0.59605  1.0000
  H   H717      1.0  0.51352  0.78230  0.56002  1.0000
  H   H718      1.0  0.52401  0.77405  0.60333  1.0000
  H   H719      1.0  0.50505  0.73326  0.61436  1.0000
  H   H720      1.0  0.48375  0.73846  0.60854  1.0000
  H   H721      1.0  0.49683  0.74275  0.56837  1.0000
  H   H722      1.0  0.47389  0.76211  0.66022  1.0000
  H   H723      1.0  0.52130  0.80144  0.65912  1.0000
  H   H724      1.0  0.47242  0.77055  0.72970  1.0000
  H   H725      1.0  0.51913  0.80885  0.72788  1.0000
  H   H726      1.0  0.49485  0.79412  0.76378  1.0000
  H   H727      1.0  0.35969  0.74748  0.79782  1.0000
  H   H728      1.0  0.53473  0.89877  0.86010  1.0000
  H   H729      1.0  0.50856  0.91767  0.87320  1.0000
  S   S160      1.0  0.49021  0.56593  0.51806  1.0000
  H   H730      1.0  0.37916  0.51629  0.57459  1.0000
  C   C593      1.0  0.54999  0.97655  0.87853  1.0000
  C   C594      1.0  0.53724  0.96473  0.90075  1.0000
  C   C595      1.0  0.48715  0.98417  0.95417  1.0000
  H   H731      1.0  0.52261  0.92786  0.95209  1.0000
  C   C596      1.0  0.35300  0.52472  0.61166  1.0000
  C   C597      1.0  0.33595  0.76468  0.60057  1.0000
  H   H732      1.0  0.47890  0.94318  0.65253  1.0000
  H   H733      1.0  0.53344  0.58262  0.94110  1.0000
  C   C598      1.0  0.54710  0.64999  0.94881  1.0000
  C   C599      1.0  0.48883  0.76307  0.96930  1.0000
  H   H734      1.0  0.50878  0.60604  0.96714  1.0000
  H   H735      1.0  0.55259  0.91804  0.87162  1.0000
  C   C600      1.0  0.51716  0.66310  0.91239  1.0000
  N   N42       1.0  0.53065  0.93632  0.89362  1.0000
  C   C601      1.0  0.39443  0.59283  0.57016  1.0000
  C   C602      1.0  0.34252  0.78761  0.62009  1.0000
  H   H736      1.0  0.33605  0.79674  0.64433  1.0000
  H   H737      1.0  0.34086  0.80786  0.85157  1.0000
  C   C603      1.0  0.48378  0.96774  0.58432  1.0000
  C   C604      1.0  0.37351  0.81345  0.86366  1.0000
  H   H738      1.0  0.49750  0.92890  0.53929  1.0000
  C   C605      1.0  0.51544  0.61520  0.89215  1.0000
  C   C606      1.0  0.35731  0.79870  0.60864  1.0000
  H   H739      1.0  0.34813  0.69826  0.58782  1.0000
  H   H740      1.0  0.35822  0.71006  0.52312  1.0000
  H   H741      1.0  0.57931  0.61203  0.97887  1.0000
  H   H742      1.0  0.53872  0.93027  0.83487  1.0000
  H   H743      1.0  0.55561  0.96547  0.85495  1.0000
  C   C607      1.0  0.38367  0.64485  0.50371  1.0000
  S   S161      1.0  0.48769  0.92723  0.97496  1.0000
  C   C608      1.0  0.38685  0.77861  0.82424  1.0000
  C   C609      1.0  0.40148  0.80224  0.87524  1.0000
  C   C610      1.0  0.53070  0.98171  0.93049  1.0000
  S   S162      1.0  0.45483  0.62132  0.50322  1.0000
  C   C611      1.0  0.59742  0.87847  0.49945  1.0000
  S   S163      1.0  0.35191  0.64327  0.52688  1.0000
  C   C612      1.0  0.35784  0.76751  0.78220  1.0000
  C   C613      1.0  0.49017  0.92054  0.56354  1.0000
  C   C614      1.0  0.47963  0.92862  0.62749  1.0000
  C   C615      1.0  0.40104  0.78288  0.84520  1.0000
  H   H744      1.0  0.50574  0.94774  0.90300  1.0000
  N   N43       1.0  0.35780  0.79169  0.80924  1.0000
  C   C616      1.0  0.51237  0.97073  0.49513  1.0000
  C   C617      1.0  0.34327  0.78880  0.83411  1.0000
  C   C618      1.0  0.35631  0.81753  0.78614  1.0000
  C   C619      1.0  0.37259  0.79388  0.83289  1.0000
  H   H745      1.0  0.57058  0.66104  0.97067  1.0000
  C   C620      1.0  0.38769  0.81722  0.88472  1.0000
  C   C621      1.0  0.34478  0.56522  0.57626  1.0000
  H   H746      1.0  0.34003  0.69953  0.50074  1.0000
  C   C622      1.0  0.50681  0.94161  0.61190  1.0000
  N   N44       1.0  0.49010  0.94025  0.59667  1.0000
  H   H747      1.0  0.34719  0.73447  0.49299  1.0000
  Fe  Fe81      1.0  0.33242  0.88039  0.80521  1.0000
  C   C623      1.0  0.55691  0.59463  0.95871  1.0000
  C   C624      1.0  0.36940  0.62879  0.50449  1.0000
  C   C625      1.0  0.46831  0.96966  0.56713  1.0000
  H   H748      1.0  0.36725  0.82127  0.76825  1.0000
  Fe  Fe82      1.0  0.52203  0.89043  0.49499  1.0000
  H   H749      1.0  0.35462  0.83624  0.80470  1.0000
  C   C626      1.0  0.39799  0.63426  0.48718  1.0000
  H   H750      1.0  0.40525  0.52679  0.54621  1.0000
  C   C627      1.0  0.53102  0.91969  0.92975  1.0000
  C   C628      1.0  0.37919  0.58749  0.58582  1.0000
  H   H751      1.0  0.38815  0.83274  0.90755  1.0000
  S   S164      1.0  0.33317  0.87231  0.74135  1.0000
  H   H752      1.0  0.48428  0.90828  0.63839  1.0000
  H   H753      1.0  0.48182  0.49928  0.62147  1.0000
  H   H754      1.0  0.51796  0.67813  0.93686  1.0000
  H   H755      1.0  0.41190  0.77159  0.83766  1.0000
  C   C629      1.0  0.56748  0.61647  0.96730  1.0000
  N   N45       1.0  0.33679  0.72741  0.54932  1.0000
  C   C630      1.0  0.34603  0.71773  0.51506  1.0000
  H   H756      1.0  0.48107  0.97772  0.92806  1.0000
  H   H757      1.0  0.36625  0.75527  0.53473  1.0000
  H   H758      1.0  0.36351  0.82697  0.87073  1.0000
  H   H759      1.0  0.52725  0.89760  0.92476  1.0000
  H   H760      1.0  0.49534  0.89997  0.57147  1.0000
  C   C631      1.0  0.50810  0.62807  0.95705  1.0000
  C   C632      1.0  0.35914  0.76367  0.55812  1.0000
  C   C633      1.0  0.36958  0.60197  0.48821  1.0000
  H   H761      1.0  0.56049  0.57318  0.96400  1.0000
  H   H762      1.0  0.36389  0.56464  0.66252  1.0000
  C   C634      1.0  0.34399  0.75203  0.56888  1.0000
  C   C635      1.0  0.50530  0.76200  0.96045  1.0000
  H   H763      1.0  0.37717  0.79536  0.56907  1.0000
  H   H764      1.0  0.34796  0.94547  0.65081  1.0000
  H   H765      1.0  0.54387  0.67182  0.94746  1.0000
  H   H766      1.0  0.46860  0.50760  0.56052  1.0000
  C   C636      1.0  0.54142  0.60030  0.94509  1.0000
  H   H767      1.0  0.46396  0.51572  0.97125  1.0000
  H   H768      1.0  0.34617  0.76558  0.76648  1.0000
  C   C637      1.0  0.49503  0.53087  0.50580  1.0000
  C   C638      1.0  0.53967  0.92035  0.86380  1.0000
  H   H769      1.0  0.34619  0.55473  0.54775  1.0000
  H   H770      1.0  0.35874  0.58937  0.48836  1.0000
  H   H771      1.0  0.51132  0.92055  0.62021  1.0000
  H   H772      1.0  0.54334  0.91950  0.94236  1.0000
  H   H773      1.0  0.41525  0.57543  0.54212  1.0000
  H   H774      1.0  0.35228  0.97791  0.59811  1.0000
  H   H775      1.0  0.51537  0.94984  0.58983  1.0000
  C   C639      1.0  0.53613  0.62818  0.93891  1.0000
  H   H776      1.0  0.46089  0.95129  0.56291  1.0000
  H   H777      1.0  0.50445  0.99396  0.60142  1.0000
  C   C640      1.0  0.35199  0.98662  0.62680  1.0000
  H   H778      1.0  0.52619  0.66921  0.89015  1.0000
  C   C641      1.0  0.62651  0.88024  0.48543  1.0000
  H   H779      1.0  0.34243  0.56468  0.65508  1.0000
  H   H780      1.0  0.51223  0.51506  0.93666  1.0000
  H   H781      1.0  0.36234  0.81654  0.62383  1.0000
  H   H782      1.0  0.40886  0.64685  0.48696  1.0000
  C   C642      1.0  0.42330  0.52290  0.96978  1.0000
  C   C643      1.0  0.50494  0.50590  0.95927  1.0000
  C   C644      1.0  0.48168  0.75317  0.49042  1.0000
  H   H783      1.0  0.49340  0.79377  0.49069  1.0000
  H   H784      1.0  0.33087  0.68475  0.56316  1.0000
  H   H785      1.0  0.52766  0.73963  0.96793  1.0000
  H   H786      1.0  0.33222  0.56149  0.58644  1.0000
  S   S165      1.0  0.46646  0.70203  0.48919  1.0000
  H   H787      1.0  0.40659  0.49688  0.94072  1.0000
  C   C645      1.0  0.34861  0.97690  0.69488  1.0000
  C   C646      1.0  0.34963  0.96757  0.65691  1.0000
  H   H788      1.0  0.34627  0.96207  0.71789  1.0000
  C   C647      1.0  0.49254  0.99318  0.58904  1.0000
  C   C648      1.0  0.51495  0.74000  0.97482  1.0000
  C   C649      1.0  0.43936  0.52853  0.97870  1.0000
  C   C650      1.0  0.51055  0.76059  0.48347  1.0000
  C   C651      1.0  0.49913  0.71330  0.48175  1.0000
  H   H789      1.0  0.99100  0.09317  0.15083  1.0000
  S   S166      1.0  0.96036  0.08678  0.05522  1.0000
  C   C652      1.0  0.88341  0.11670  0.22430  1.0000
  S   S167      1.0  0.96764  0.13898  0.14451  1.0000
  S   S168      1.0  0.95040  0.15321  0.04584  1.0000
  H   H790      1.0  0.66831  0.13423  0.32297  1.0000
  Fe  Fe83      1.0  0.96827  0.12809  0.08030  1.0000
  H   H791      1.0  0.97471  0.05619  0.41952  1.0000
  Fe  Fe84      1.0  0.94340  0.11240  0.01865  1.0000
  C   C653      1.0  0.70790  0.45598  0.40999  1.0000
  Fe  Fe85      1.0  0.69702  0.11494  0.14160  1.0000
  S   S169      1.0  0.70542  0.12723  0.20168  1.0000
  S   S170      1.0  0.71064  0.11515  0.08290  1.0000
  C   C654      1.0  0.67151  0.24530  0.27037  1.0000
  H   H792      1.0  0.67260  0.12246  0.37116  1.0000
  Fe  Fe86      1.0  0.68252  0.15279  0.20550  1.0000
  S   S171      1.0  0.67448  0.19543  0.23040  1.0000
  Fe  Fe87      1.0  0.69040  0.08993  0.22188  1.0000
  C   C655      1.0  0.97021  0.03218  0.32817  1.0000
  S   S172      1.0  0.67481  0.14253  0.14466  1.0000
  S   S173      1.0  0.68317  0.07642  0.16217  1.0000
  C   C656      1.0  0.90006  0.11730  0.22936  1.0000
  C   C657      1.0  0.97868  0.13943  0.21923  1.0000
  Fe  Fe88      1.0  0.69759  0.37666  0.43615  1.0000
  S   S174      1.0  0.70638  0.37039  0.37527  1.0000
  S   S175      1.0  0.98819  0.13472  0.03686  1.0000
  Fe  Fe89      1.0  0.68616  0.39875  0.35649  1.0000
  S   S176      1.0  0.69122  0.43153  0.30871  1.0000
  Fe  Fe90      1.0  0.68879  0.33422  0.37117  1.0000
  S   S177      1.0  0.69822  0.29203  0.34722  1.0000
  S   S178      1.0  0.67784  0.40662  0.41726  1.0000
  S   S179      1.0  0.68078  0.33896  0.43347  1.0000
  C   C658      1.0  0.69477  0.02615  0.28457  1.0000
  C   C659      1.0  0.98752  0.01343  0.00562  1.0000
  Fe  Fe91      1.0  0.96966  0.15657  0.00054  1.0000
  C   C660      1.0  0.68721  0.46783  0.29996  1.0000
  H   H793      1.0  0.77054  0.12283  0.08003  1.0000
  C   C661      1.0  0.96745  0.99834  0.42052  1.0000
  H   H794      1.0  0.68753  0.02950  0.34418  1.0000
  C   C662      1.0  0.68833  0.22123  0.39347  1.0000
  H   H795      1.0  0.90512  0.11298  0.25752  1.0000
  H   H796      1.0  0.70261  0.01527  0.22733  1.0000
  C   C663      1.0  0.68178  0.22276  0.26139  1.0000
  C   C664      1.0  0.69717  0.22244  0.27781  1.0000
  C   C665      1.0  0.70204  0.24404  0.30331  1.0000
  C   C666      1.0  0.69169  0.26642  0.31270  1.0000
  C   C667      1.0  0.67641  0.26698  0.29571  1.0000
  H   H797      1.0  0.73823  0.18103  0.07608  1.0000
  H   H798      1.0  0.70533  0.20558  0.27105  1.0000
  H   H799      1.0  0.71388  0.24330  0.31620  1.0000
  H   H800      1.0  0.72115  0.42577  0.35434  1.0000
  Fe  Fe92      1.0  0.97889  0.09487  0.00894  1.0000
  C   C668      1.0  0.76096  0.11904  0.02252  1.0000
  C   C669      1.0  0.74672  0.11589  0.00127  1.0000
  C   C670      1.0  0.73159  0.11428  0.02028  1.0000
  C   C671      1.0  0.73032  0.11583  0.06085  1.0000
  C   C672      1.0  0.74457  0.11882  0.08209  1.0000
  C   C673      1.0  0.75970  0.12045  0.06307  1.0000
  H   H801      1.0  0.68914  0.15620  0.28419  1.0000
  H   H802      1.0  0.72074  0.11201  0.00337  1.0000
  H   H803      1.0  0.74395  0.12008  0.11318  1.0000
  C   C674      1.0  0.71891  0.18512  0.99039  1.0000
  C   C675      1.0  0.72740  0.47962  0.32605  1.0000
  H   H804      1.0  0.97340  0.24259  0.43159  1.0000
  H   H805      1.0  0.95601  0.04944  0.39418  1.0000
  C   C676      1.0  0.69130  0.01540  0.32152  1.0000
  H   H806      1.0  0.71238  0.16469  0.39878  1.0000
  H   H807      1.0  0.95732  0.02566  0.32849  1.0000
  H   H808      1.0  0.71768  0.12989  0.35701  1.0000
  S   S180      1.0  0.91731  0.09673  0.01638  1.0000
  H   H809      1.0  0.91535  0.14816  0.06878  1.0000
  S   S181      1.0  0.99500  0.11418  0.39560  1.0000
  C   C677      1.0  0.98522  0.48485  0.99068  1.0000
  C   C678      1.0  0.99450  0.03855  0.36508  1.0000
  H   H810      1.0  0.98661  0.13993  0.27868  1.0000
  H   H811      1.0  0.70945  0.21124  0.42593  1.0000
  H   H812      1.0  0.88423  0.07928  0.01179  1.0000
  C   C679      1.0  0.87690  0.12217  0.18814  1.0000
  H   H813      1.0  0.93371  0.10692  0.14582  1.0000
  H   H814      1.0  0.69627  0.46588  0.24171  1.0000
  H   H815      1.0  0.70974  0.15600  0.29915  1.0000
  H   H816      1.0  0.93371  0.15590  0.16356  1.0000
  N   N46       1.0  0.69314  0.13952  0.34118  1.0000
  H   H817      1.0  0.97511  0.47324  0.00234  1.0000
  C   C680      1.0  0.91024  0.12348  0.19832  1.0000
  S   S182      1.0  0.69332  0.06312  0.27659  1.0000
  H   H818      1.0  0.66800  0.22618  0.35621  1.0000
  H   H819      1.0  0.86393  0.12156  0.18426  1.0000
  H   H820      1.0  0.88109  0.13235  0.12967  1.0000
  H   H821      1.0  0.71106  0.17644  0.04841  1.0000
  C   C681      1.0  0.67733  0.21206  0.36596  1.0000
  H   H822      1.0  0.73020  0.45942  0.31380  1.0000
  H   H823      1.0  0.67735  0.47729  0.35588  1.0000
  C   C682      1.0  0.98185  0.24388  0.45522  1.0000
  H   H824      1.0  0.96314  0.01511  0.43864  1.0000
  H   H825      1.0  0.92309  0.12354  0.20356  1.0000
  H   H826      1.0  0.97079  0.15720  0.22293  1.0000
  C   C683      1.0  0.69123  0.47934  0.26373  1.0000
  C   C684      1.0  0.73542  0.46682  0.42636  1.0000
  S   S183      1.0  0.99400  0.19438  0.42535  1.0000
  C   C685      1.0  0.70528  0.12109  0.35955  1.0000
  C   C686      1.0  0.69138  0.16705  0.36041  1.0000
  C   C687      1.0  0.73651  0.18456  0.04548  1.0000
  C   C688      1.0  0.67892  0.18559  0.34919  1.0000
  C   C689      1.0  0.97980  0.12642  0.18288  1.0000
  C   C690      1.0  0.70233  0.17694  0.38892  1.0000
  C   C691      1.0  0.74977  0.19011  0.02167  1.0000
  S   S184      1.0  0.66846  0.11664  0.22932  1.0000
  H   H827      1.0  0.72976  0.41609  0.39936  1.0000
  H   H828      1.0  0.97673  0.01831  0.30775  1.0000
  C   C692      1.0  0.72957  0.43305  0.37729  1.0000
  H   H829      1.0  0.66829  0.28395  0.30250  1.0000
  H   H830      1.0  0.73622  0.44907  0.44719  1.0000
  H   H831      1.0  0.73141  0.48519  0.44343  1.0000
  N   N47       1.0  0.72432  0.46015  0.39412  1.0000
  C   C693      1.0  0.69820  0.14407  0.30071  1.0000
  H   H832      1.0  0.66983  0.01937  0.22138  1.0000
  H   H833      1.0  0.93327  0.16712  0.11517  1.0000
  C   C694      1.0  0.67753  0.12414  0.34138  1.0000
  C   C695      1.0  0.99008  0.10348  0.17853  1.0000
  H   H834      1.0  0.68749  0.24234  0.40493  1.0000
  H   H835      1.0  0.70240  0.11744  0.39050  1.0000
  C   C696      1.0  0.97856  0.49074  0.46928  1.0000
  H   H836      1.0  0.87555  0.11192  0.24843  1.0000
  C   C697      1.0  0.90037  0.11213  0.99339  1.0000
  H   H837      1.0  0.89947  0.12502  0.08142  1.0000
  H   H838      1.0  0.91789  0.17882  0.14788  1.0000
  H   H839      1.0  0.91829  0.09260  0.11474  1.0000
  H   H840      1.0  0.70578  0.10013  0.34528  1.0000
  H   H841      1.0  0.89874  0.16159  0.09575  1.0000
  C   C698      1.0  0.72115  0.18194  0.02990  1.0000
  H   H842      1.0  0.97953  0.02430  0.02520  1.0000
  H   H843      1.0  0.93355  0.11527  0.09605  1.0000
  H   H844      1.0  0.78087  0.18330  0.99024  1.0000
  H   H845      1.0  0.70330  0.47470  0.42538  1.0000
  C   C699      1.0  0.88531  0.09855  0.99566  1.0000
  H   H846      1.0  0.69923  0.45100  0.38652  1.0000
  H   H847      1.0  0.74780  0.47123  0.41544  1.0000
  C   C700      1.0  0.69969  0.00746  0.25577  1.0000
  H   H848      1.0  0.70753  0.43843  0.43101  1.0000
  C   C701      1.0  0.96911  0.05375  0.39047  1.0000
  N   N48       1.0  0.91509  0.13612  0.12892  1.0000
  C   C702      1.0  0.92557  0.11166  0.12128  1.0000
  C   C703      1.0  0.90669  0.14306  0.09237  1.0000
  C   C704      1.0  0.92535  0.16050  0.13942  1.0000
  C   C705      1.0  0.90401  0.12947  0.16116  1.0000
  C   C706      1.0  0.88696  0.12844  0.15688  1.0000
  S   S185      1.0  0.78055  0.12186  0.00031  1.0000
  H   H849      1.0  0.76137  0.19059  0.03563  1.0000
  C   C707      1.0  0.97515  0.00315  0.38440  1.0000
  C   C708      1.0  0.99326  0.22237  0.46002  1.0000
  H   H850      1.0  0.69997  0.12384  0.28531  1.0000
  H   H851      1.0  0.67881  0.10252  0.32969  1.0000
  C   C709      1.0  0.98766  0.12969  0.25093  1.0000
  C   C710      1.0  0.98138  0.26731  0.48030  1.0000
  N   N49       1.0  0.97713  0.03145  0.36759  1.0000
  H   H852      1.0  0.91664  0.45681  0.46355  1.0000
  S   S186      1.0  0.66937  0.36201  0.34769  1.0000
  H   H853      1.0  0.97013  0.07454  0.37628  1.0000
  H   H854      1.0  0.97266  0.28372  0.47572  1.0000
  C   C711      1.0  0.70077  0.20370  0.40499  1.0000
  H   H855      1.0  0.74193  0.43449  0.36497  1.0000
  H   H856      1.0  0.77674  0.22022  0.99687  1.0000
  C   C712      1.0  0.72406  0.48342  0.36597  1.0000
  H   H857      1.0  0.67069  0.18032  0.32617  1.0000
  C   C713      1.0  0.68072  0.48564  0.32805  1.0000
  H   H858      1.0  0.97098  0.05356  0.31540  1.0000
  H   H859      1.0  0.96634  0.48844  0.45901  1.0000
  H   H860      1.0  0.99405  0.48615  0.07463  1.0000
  H   H861      1.0  0.92239  0.40723  0.48106  1.0000
  S   S187      1.0  0.71605  0.39378  0.48128  1.0000
  H   H862      1.0  0.85578  0.05001  0.91653  1.0000
  C   C714      1.0  0.96999  0.29482  0.80732  1.0000
  Fe  Fe93      1.0  0.80784  0.34379  0.71803  1.0000
  S   S188      1.0  0.81387  0.34248  0.65445  1.0000
  S   S189      1.0  0.81588  0.30808  0.75894  1.0000
  Fe  Fe94      1.0  0.79846  0.40729  0.71370  1.0000
  S   S190      1.0  0.80407  0.40906  0.64987  1.0000
  S   S191      1.0  0.78675  0.44606  0.74267  1.0000
  Fe  Fe95      1.0  0.79094  0.36768  0.64509  1.0000
  S   S192      1.0  0.77171  0.35408  0.59971  1.0000
  Fe  Fe96      1.0  0.82640  0.38390  0.66377  1.0000
  S   S193      1.0  0.85211  0.39874  0.64817  1.0000
  S   S194      1.0  0.78434  0.36664  0.70857  1.0000
  S   S195      1.0  0.82131  0.38453  0.72769  1.0000
  Fe  Fe97      1.0  0.83019  0.13512  0.91834  1.0000
  S   S196      1.0  0.82372  0.13282  0.85554  1.0000
  S   S197      1.0  0.85640  0.14833  0.92912  1.0000
  Fe  Fe98      1.0  0.79502  0.12283  0.94296  1.0000
  S   S198      1.0  0.78670  0.11882  0.88099  1.0000
  C   C715      1.0  0.73274  0.41621  0.65031  1.0000
  Fe  Fe99      1.0  0.80952  0.09393  0.87050  1.0000
  S   S199      1.0  0.81663  0.05959  0.82658  1.0000
  Fe  Fe100     1.0  0.80173  0.15776  0.86970  1.0000
  S   S200      1.0  0.79032  0.19133  0.83072  1.0000
  S   S201      1.0  0.81702  0.09534  0.93322  1.0000
  S   S202      1.0  0.80894  0.16286  0.93178  1.0000
  Fe  Fe101     1.0  0.97124  0.40223  0.54901  1.0000
  S   S203      1.0  0.95990  0.36334  0.52261  1.0000
  H   H863      1.0  0.86610  0.02476  0.85884  1.0000
  Fe  Fe102     1.0  0.97213  0.37424  0.62977  1.0000
  S   S204      1.0  0.96087  0.33439  0.60791  1.0000
  S   S205      1.0  0.97353  0.37892  0.69547  1.0000
  Fe  Fe103     1.0  0.97779  0.33829  0.55715  1.0000
  H   H864      1.0  0.80592  0.07960  0.71403  1.0000
  Fe  Fe104     1.0  0.94377  0.36206  0.57541  1.0000
  S   S206      1.0  0.91681  0.35064  0.57098  1.0000
  S   S207      1.0  0.95404  0.40174  0.59980  1.0000
  H   H865      1.0  0.98560  0.13571  0.89438  1.0000
  C   C716      1.0  0.79404  0.47364  0.77347  1.0000
  H   H866      1.0  0.76305  0.49393  0.91590  1.0000
  H   H867      1.0  0.91356  0.11905  0.88892  1.0000
  C   C717      1.0  0.81008  0.02606  0.80922  1.0000
  C   C718      1.0  0.72090  0.43502  0.63619  1.0000
  N   N50       1.0  0.74596  0.42514  0.67626  1.0000
  C   C719      1.0  0.98471  0.47086  0.49542  1.0000
  C   C720      1.0  0.98585  0.22381  0.96648  1.0000
  H   H868      1.0  0.86015  0.09891  0.97933  1.0000
  C   C721      1.0  0.87776  0.45988  0.55391  1.0000
  C   C722      1.0  0.80843  0.27556  0.77816  1.0000
  C   C723      1.0  0.79301  0.26504  0.77009  1.0000
  C   C724      1.0  0.78775  0.23937  0.78633  1.0000
  C   C725      1.0  0.79777  0.22363  0.81083  1.0000
  C   C726      1.0  0.81322  0.23406  0.81876  1.0000
  C   C727      1.0  0.81845  0.25977  0.80262  1.0000
  H   H869      1.0  0.78511  0.27676  0.75142  1.0000
  H   H870      1.0  0.77578  0.23171  0.77985  1.0000
  H   H871      1.0  0.82113  0.22243  0.83750  1.0000
  H   H872      1.0  0.83038  0.26754  0.80928  1.0000
  C   C728      1.0  0.87003  0.38403  0.62792  1.0000
  C   C729      1.0  0.88492  0.39746  0.63469  1.0000
  C   C730      1.0  0.89937  0.38733  0.61822  1.0000
  C   C731      1.0  0.89910  0.36386  0.59403  1.0000
  C   C732      1.0  0.88420  0.35047  0.58719  1.0000
  C   C733      1.0  0.86980  0.36026  0.60429  1.0000
  H   H873      1.0  0.88527  0.41596  0.65269  1.0000
  H   H874      1.0  0.91067  0.39788  0.62388  1.0000
  H   H875      1.0  0.88380  0.33236  0.56843  1.0000
  H   H876      1.0  0.85848  0.34985  0.59831  1.0000
  C   C734      1.0  0.75701  0.36564  0.56492  1.0000
  C   C735      1.0  0.75437  0.39395  0.55650  1.0000
  C   C736      1.0  0.74196  0.40197  0.53077  1.0000
  C   C737      1.0  0.73209  0.38195  0.51221  1.0000
  S   S208      1.0  0.97211  0.19532  0.96226  1.0000
  C   C738      1.0  0.74728  0.34561  0.54594  1.0000
  H   H877      1.0  0.76183  0.40970  0.56993  1.0000
  H   H878      1.0  0.75429  0.45990  0.71097  1.0000
  C   C739      1.0  0.86971  0.43445  0.54951  1.0000
  H   H879      1.0  0.73995  0.42395  0.52538  1.0000
  C   C740      1.0  0.76144  0.42329  0.65511  1.0000
  H   H880      1.0  0.97512  0.37960  0.77782  1.0000
  H   H881      1.0  0.80182  0.02950  0.70400  1.0000
  H   H882      1.0  0.95619  0.30767  0.75792  1.0000
  H   H883      1.0  0.94211  0.45141  0.55242  1.0000
  H   H884      1.0  0.92637  0.32288  0.66009  1.0000
  C   C741      1.0  0.98540  0.29090  0.82253  1.0000
  H   H885      1.0  0.75619  0.41344  0.73114  1.0000
  C   C742      1.0  0.88591  0.31563  0.67307  1.0000
  C   C743      1.0  0.89126  0.09761  0.87633  1.0000
  C   C744      1.0  0.81960  0.01206  0.78157  1.0000
  H   H886      1.0  0.76529  0.15586  0.94285  1.0000
  H   H887      1.0  0.83066  0.02169  0.77161  1.0000
  H   H888      1.0  0.92542  0.47246  0.56565  1.0000
  H   H889      1.0  0.74519  0.46978  0.66677  1.0000
  H   H890      1.0  0.90247  0.30288  0.62829  1.0000
  C   C745      1.0  0.92306  0.46278  0.49049  1.0000
  C   C746      1.0  0.74667  0.40657  0.71049  1.0000
  H   H891      1.0  0.87593  0.30712  0.65691  1.0000
  C   C747      1.0  0.74436  0.45432  0.69065  1.0000
  H   H892      1.0  0.77385  0.17923  0.90758  1.0000
  C   C748      1.0  0.81350  0.49369  0.81871  1.0000
  H   H893      1.0  0.85253  0.04168  0.82712  1.0000
  C   C749      1.0  0.72004  0.37953  0.61080  1.0000
  H   H894      1.0  0.70000  0.39189  0.57575  1.0000
  H   H895      1.0  0.85319  0.08716  0.91429  1.0000
  C   C750      1.0  0.92879  0.45099  0.55659  1.0000
  C   C751      1.0  0.70878  0.39851  0.59709  1.0000
  H   H896      1.0  0.97394  0.46294  0.86984  1.0000
  C   C752      1.0  0.90663  0.09995  0.89253  1.0000
  H   H897      1.0  0.85979  0.11353  0.85683  1.0000
  C   C753      1.0  0.77725  0.20296  0.97533  1.0000
  C   C754      1.0  0.73500  0.35361  0.51977  1.0000
  H   H898      1.0  0.75620  0.03324  0.76138  1.0000
  H   H899      1.0  0.75944  0.08306  0.77229  1.0000
  H   H900      1.0  0.75671  0.24359  0.95270  1.0000
  H   H901      1.0  0.77713  0.00608  0.72730  1.0000
  H   H902      1.0  0.76913  0.23085  0.91376  1.0000
  C   C755      1.0  0.79578  0.01321  0.82154  1.0000
  N   N51       1.0  0.76164  0.19947  0.95496  1.0000
  H   H903      1.0  0.76133  0.43646  0.62873  1.0000
  C   C756      1.0  0.70915  0.42615  0.60990  1.0000
  C   C757      1.0  0.87781  0.41151  0.53426  1.0000
  C   C758      1.0  0.89414  0.41353  0.52451  1.0000
  N   N52       1.0  0.86778  0.33383  0.72696  1.0000
  C   C759      1.0  0.86648  0.31570  0.76143  1.0000
  C   C760      1.0  0.86570  0.36344  0.73910  1.0000
  C   C761      1.0  0.85413  0.32675  0.70100  1.0000
  C   C762      1.0  0.88380  0.32990  0.70875  1.0000
  C   C763      1.0  0.89799  0.33993  0.72715  1.0000
  C   C764      1.0  0.91315  0.33743  0.70974  1.0000
  H   H904      1.0  0.87570  0.32105  0.78347  1.0000
  H   H905      1.0  0.85440  0.31760  0.77545  1.0000
  H   H906      1.0  0.86810  0.29328  0.75356  1.0000
  H   H907      1.0  0.86796  0.37794  0.71455  1.0000
  H   H908      1.0  0.87380  0.36966  0.76301  1.0000
  H   H909      1.0  0.85330  0.36753  0.74987  1.0000
  H   H910      1.0  0.85374  0.30410  0.69367  1.0000
  H   H911      1.0  0.84228  0.33127  0.71472  1.0000
  H   H912      1.0  0.85462  0.33923  0.67398  1.0000
  H   H913      1.0  0.89747  0.35011  0.75492  1.0000
  H   H914      1.0  0.92376  0.34620  0.72351  1.0000
  H   H915      1.0  0.78826  0.02358  0.84264  1.0000
  H   H916      1.0  0.84828  0.09016  0.82762  1.0000
  H   H917      1.0  0.74731  0.11464  0.97020  1.0000
  H   H918      1.0  0.73495  0.40627  0.72614  1.0000
  C   C765      1.0  0.99504  0.15180  0.88833  1.0000
  H   H919      1.0  0.81616  0.45366  0.78973  1.0000
  C   C766      1.0  0.85334  0.06768  0.89670  1.0000
  C   C767      1.0  0.87164  0.10951  0.97694  1.0000
  C   C768      1.0  0.86048  0.09358  0.84017  1.0000
  H   H920      1.0  0.88165  0.03278  0.91118  1.0000
  C   C769      1.0  0.73193  0.38819  0.63673  1.0000
  H   H921      1.0  0.92606  0.43666  0.58107  1.0000
  H   H922      1.0  0.93615  0.46483  0.48342  1.0000
  H   H923      1.0  0.96130  0.45903  0.74032  1.0000
  C   C770      1.0  0.90282  0.43904  0.52935  1.0000
  N   N53       1.0  0.92029  0.44173  0.52118  1.0000
  H   H924      1.0  0.74971  0.38464  0.70282  1.0000
  H   H925      1.0  0.88905  0.16712  0.93729  1.0000
  N   N54       1.0  0.86535  0.06986  0.86515  1.0000
  H   H926      1.0  0.97367  0.24827  0.92340  1.0000
  H   H927      1.0  0.89975  0.39450  0.51446  1.0000
  C   C771      1.0  0.86451  0.04400  0.84142  1.0000
  C   C772      1.0  0.88168  0.07316  0.88177  1.0000
  C   C773      1.0  0.80866  0.47193  0.79340  1.0000
  H   H928      1.0  0.98486  0.02723  0.53076  1.0000
  C   C774      1.0  0.97359  0.45709  0.75048  1.0000
  C   C775      1.0  0.75872  0.22556  0.93291  1.0000
  H   H929      1.0  0.73283  0.45727  0.70654  1.0000
  H   H930      1.0  0.72765  0.33781  0.50592  1.0000
  H   H931      1.0  0.94095  0.41783  0.50231  1.0000
  C   C776      1.0  0.92784  0.41518  0.50823  1.0000
  C   C777      1.0  0.99250  0.26987  0.51043  1.0000
  H   H932      1.0  0.99170  0.42264  0.86122  1.0000
  C   C778      1.0  0.88835  0.05165  0.90491  1.0000
  H   H933      1.0  0.74810  0.22386  0.91364  1.0000
  S   S209      1.0  0.97191  0.44249  0.51118  1.0000
  H   H934      1.0  0.74914  0.32364  0.55177  1.0000
  H   H935      1.0  0.85724  0.43232  0.55855  1.0000
  H   H936      1.0  0.92444  0.08082  0.92877  1.0000
  C   C779      1.0  0.87291  0.13413  0.95531  1.0000
  S   S210      1.0  0.96133  0.11718  0.97043  1.0000
  H   H937      1.0  0.92681  0.39869  0.53069  1.0000
  H   H938      1.0  0.77174  0.43043  0.67312  1.0000
  N   N55       1.0  0.78579  0.11716  0.74985  1.0000
  C   C780      1.0  0.80049  0.12115  0.77342  1.0000
  C   C781      1.0  0.78810  0.13149  0.71232  1.0000
  C   C782      1.0  0.77233  0.13137  0.77025  1.0000
  C   C783      1.0  0.78301  0.08683  0.74351  1.0000
  C   C784      1.0  0.79476  0.07045  0.72410  1.0000
  C   C785      1.0  0.76895  0.07260  0.75674  1.0000
  C   C786      1.0  0.79254  0.04174  0.71812  1.0000
  C   C787      1.0  0.76688  0.04384  0.75063  1.0000
  C   C788      1.0  0.77863  0.02847  0.73132  1.0000
  H   H939      1.0  0.81156  0.11361  0.75872  1.0000
  H   H940      1.0  0.80259  0.14362  0.78073  1.0000
  H   H941      1.0  0.79948  0.10933  0.80089  1.0000
  H   H942      1.0  0.79897  0.12403  0.69669  1.0000
  H   H943      1.0  0.78971  0.15452  0.71613  1.0000
  H   H944      1.0  0.77753  0.12806  0.69315  1.0000
  H   H945      1.0  0.77048  0.12267  0.79969  1.0000
  H   H946      1.0  0.77480  0.15415  0.77437  1.0000
  H   H947      1.0  0.76088  0.12976  0.75377  1.0000
  C   C789      1.0  0.91470  0.32413  0.67419  1.0000
  C   C790      1.0  0.91279  0.07843  0.91501  1.0000
  C   C791      1.0  0.90117  0.31282  0.65630  1.0000
  H   H948      1.0  0.84096  0.06439  0.88529  1.0000
  H   H949      1.0  0.72060  0.45678  0.64446  1.0000
  H   H950      1.0  0.86896  0.09643  0.81561  1.0000
  C   C792      1.0  0.97732  0.46271  0.78906  1.0000
  C   C793      1.0  0.76341  0.17596  0.92733  1.0000
  S   S211      1.0  0.99372  0.30033  0.54074  1.0000
  C   C794      1.0  0.98553  0.44836  0.72495  1.0000
  H   H951      1.0  0.87392  0.04416  0.81849  1.0000
  H   H952      1.0  0.87154  0.39167  0.53130  1.0000
  H   H953      1.0  0.76418  0.40153  0.64594  1.0000
  C   C795      1.0  0.96812  0.30428  0.76964  1.0000
  H   H954      1.0  0.88703  0.11559  0.86059  1.0000
  C   C796      1.0  0.88792  0.14797  0.95368  1.0000
  H   H955      1.0  0.74091  0.37292  0.64469  1.0000
  H   H956      1.0  0.75264  0.17321  0.90875  1.0000
  C   C797      1.0  0.98738  0.37858  0.76729  1.0000
  H   H957      1.0  0.96744  0.46916  0.80724  1.0000
  C   C798      1.0  0.89402  0.46230  0.54369  1.0000
  H   H958      1.0  0.72000  0.35821  0.59997  1.0000
  H   H959      1.0  0.95943  0.29070  0.82495  1.0000
  H   H960      1.0  0.98011  0.31763  0.71787  1.0000
  C   C799      1.0  0.73204  0.19098  0.96631  1.0000
  H   H961      1.0  0.72972  0.19279  0.93581  1.0000
  H   H962      1.0  0.99001  0.17240  0.89742  1.0000
  H   H963      1.0  0.98622  0.28374  0.85201  1.0000
  C   C800      1.0  0.90366  0.05437  0.92131  1.0000
  H   H964      1.0  0.70041  0.44085  0.59879  1.0000
  H   H965      1.0  0.98249  0.44327  0.69533  1.0000
  H   H966      1.0  0.70696  0.18242  0.97836  1.0000
  C   C801      1.0  0.90155  0.13714  0.97269  1.0000
  C   C802      1.0  0.98389  0.24737  0.94265  1.0000
  C   C803      1.0  0.98448  0.47731  0.86715  1.0000
  H   H967      1.0  0.78723  0.20820  0.95503  1.0000
  C   C804      1.0  0.99024  0.37752  0.72729  1.0000
  C   C805      1.0  0.98163  0.30976  0.74702  1.0000
  C   C806      1.0  0.99049  0.01178  0.51238  1.0000
  S   S212      1.0  0.99017  0.37730  0.58099  1.0000
  H   H968      1.0  0.98832  0.48184  0.89727  1.0000
  H   H969      1.0  0.87139  0.47765  0.56594  1.0000
  H   H970      1.0  0.82476  0.49183  0.83412  1.0000
  H   H971      1.0  0.89977  0.48240  0.54790  1.0000
  H   H972      1.0  0.90836  0.03809  0.93981  1.0000
  C   C807      1.0  0.99329  0.45952  0.80320  1.0000
  H   H973      1.0  0.91302  0.14792  0.97075  1.0000
  H   H974      1.0  0.99303  0.28812  0.92609  1.0000
  H   H975      1.0  0.91891  0.48397  0.49905  1.0000
  C   C808      1.0  0.99491  0.26994  0.94389  1.0000
  C   C809      1.0  0.74790  0.19374  0.98121  1.0000
  H   H976      1.0  0.71381  0.70913  0.09983  1.0000
  S   S213      1.0  0.95823  0.58382  0.03789  1.0000
  H   H977      1.0  0.77754  0.67746  0.03729  1.0000
  H   H978      1.0  0.73793  0.72608  0.07795  1.0000
  S   S214      1.0  0.94689  0.64945  0.03384  1.0000
  H   H979      1.0  0.71471  0.55338  0.36123  1.0000
  Fe  Fe105     1.0  0.96360  0.62361  0.07047  1.0000
  S   S215      1.0  0.96057  0.63036  0.13524  1.0000
  Fe  Fe106     1.0  0.94325  0.61074  0.99842  1.0000
  S   S216      1.0  0.98564  0.63468  0.03572  1.0000
  Fe  Fe107     1.0  0.70085  0.61369  0.15222  1.0000
  S   S217      1.0  0.70406  0.62306  0.21581  1.0000
  S   S218      1.0  0.72415  0.60415  0.11743  1.0000
  C   C810      1.0  0.72972  0.81484  0.43677  1.0000
  C   C811      1.0  0.87902  0.63742  0.99928  1.0000
  Fe  Fe108     1.0  0.68576  0.65741  0.20805  1.0000
  S   S219      1.0  0.68996  0.70446  0.22137  1.0000
  Fe  Fe109     1.0  0.68296  0.59379  0.22598  1.0000
  S   S220      1.0  0.68060  0.56292  0.27699  1.0000
  S   S221      1.0  0.68337  0.64895  0.14401  1.0000
  S   S222      1.0  0.68084  0.58217  0.16329  1.0000
  H   H980      1.0  0.90650  0.61678  0.07910  1.0000
  H   H981      1.0  0.87557  0.65430  0.01839  1.0000
  Fe  Fe110     1.0  0.70217  0.87869  0.44131  1.0000
  S   S223      1.0  0.71243  0.86908  0.38247  1.0000
  H   H982      1.0  0.71368  0.67239  0.11022  1.0000
  Fe  Fe111     1.0  0.69474  0.90153  0.36027  1.0000
  S   S224      1.0  0.70061  0.93118  0.30962  1.0000
  Fe  Fe112     1.0  0.69219  0.83747  0.37619  1.0000
  S   S225      1.0  0.69455  0.78983  0.36525  1.0000
  S   S226      1.0  0.68553  0.91303  0.41940  1.0000
  S   S227      1.0  0.68257  0.84581  0.43601  1.0000
  C   C812      1.0  0.68299  0.52605  0.28432  1.0000
  C   C813      1.0  0.89530  0.62909  0.99738  1.0000
  C   C814      1.0  0.98805  0.51359  0.45609  1.0000
  C   C815      1.0  0.69804  0.96789  0.30108  1.0000
  C   C816      1.0  0.76857  0.68168  0.05936  1.0000
  H   H983      1.0  0.98772  0.98139  0.33785  1.0000
  H   H984      1.0  0.89108  0.57631  0.06019  1.0000
  H   H985      1.0  0.70492  0.69710  0.14350  1.0000
  C   C817      1.0  0.74598  0.70874  0.08276  1.0000
  H   H986      1.0  0.69250  0.51655  0.22807  1.0000
  C   C818      1.0  0.69101  0.72768  0.26204  1.0000
  C   C819      1.0  0.69084  0.71822  0.30023  1.0000
  C   C820      1.0  0.69186  0.73752  0.33119  1.0000
  C   C821      1.0  0.69288  0.76661  0.32468  1.0000
  C   C822      1.0  0.69284  0.77609  0.28650  1.0000
  C   C823      1.0  0.69202  0.75677  0.25553  1.0000
  H   H987      1.0  0.69002  0.69602  0.30596  1.0000
  H   H988      1.0  0.69185  0.72979  0.36047  1.0000
  H   H989      1.0  0.97802  0.69979  0.05762  1.0000
  H   H990      1.0  0.91000  0.58722  0.15419  1.0000
  Fe  Fe113     1.0  0.66351  0.61854  0.15957  1.0000
  C   C824      1.0  0.75922  0.60831  0.03367  1.0000
  C   C825      1.0  0.75009  0.60135  0.06693  1.0000
  C   C826      1.0  0.73498  0.61372  0.07440  1.0000
  C   C827      1.0  0.72911  0.63311  0.04771  1.0000
  C   C828      1.0  0.73822  0.64002  0.01443  1.0000
  C   C829      1.0  0.67872  0.51448  0.32031  1.0000
  H   H991      1.0  0.75480  0.58623  0.08710  1.0000
  H   H992      1.0  0.71749  0.64264  0.05245  1.0000
  C   C830      1.0  0.94576  0.51908  0.08343  1.0000
  H   H993      1.0  0.77529  0.64645  0.09387  1.0000
  C   C831      1.0  0.71518  0.69357  0.12327  1.0000
  C   C832      1.0  0.98529  0.76170  0.47475  1.0000
  H   H994      1.0  0.75887  0.71715  0.02985  1.0000
  H   H995      1.0  0.71832  0.76196  0.42782  1.0000
  H   H996      1.0  0.72879  0.65387  0.16531  1.0000
  H   H997      1.0  0.97177  0.72346  0.15963  1.0000
  C   C833      1.0  0.97183  0.94841  0.41525  1.0000
  C   C834      1.0  0.76726  0.66420  0.09127  1.0000
  H   H998      1.0  0.72109  0.81280  0.41238  1.0000
  C   C835      1.0  0.97484  0.62146  0.17129  1.0000
  H   H999      1.0  0.75911  0.78709  0.46442  1.0000
  C   C836      1.0  0.93145  0.53390  0.07761  1.0000
  H   H1000     1.0  0.90805  0.56250  0.03560  1.0000
  H   H1001     1.0  0.89770  0.54161  0.07147  1.0000
  H   H1002     1.0  0.72279  0.72819  0.18241  1.0000
  H   H1003     1.0  0.96031  0.96808  0.46348  1.0000
  H   H1004     1.0  0.73938  0.76189  0.43658  1.0000
  H   H1005     1.0  0.98303  0.52849  0.43606  1.0000
  C   C837      1.0  0.98646  0.74012  0.44678  1.0000
  C   C838      1.0  0.98318  0.62339  0.23908  1.0000
  C   C839      1.0  0.95319  0.55077  0.13461  1.0000
  H   H1006     1.0  0.72059  0.68001  0.19628  1.0000
  H   H1007     1.0  0.72853  0.49837  0.26964  1.0000
  C   C840      1.0  0.91730  0.60337  0.08310  1.0000
  H   H1008     1.0  0.77076  0.59854  0.02862  1.0000
  H   H1009     1.0  0.89179  0.58683  0.12719  1.0000
  C   C841      1.0  0.73065  0.67570  0.17576  1.0000
  C   C842      1.0  0.97223  0.63028  0.20953  1.0000
  H   H1010     1.0  0.73347  0.65501  0.99414  1.0000
  C   C843      1.0  0.75014  0.51686  0.98242  1.0000
  H   H1011     1.0  0.90074  0.55434  0.14197  1.0000
  C   C844      1.0  0.70140  0.97865  0.26406  1.0000
  C   C845      1.0  0.90346  0.57575  0.13107  1.0000
  H   H1012     1.0  0.93704  0.58384  0.14717  1.0000
  H   H1013     1.0  0.69368  0.79829  0.28075  1.0000
  C   C846      1.0  0.95660  0.52752  0.11181  1.0000
  C   C847      1.0  0.71862  0.53288  0.35172  1.0000
  C   C848      1.0  0.75797  0.70395  0.05514  1.0000
  C   C849      1.0  0.98858  0.60578  0.16278  1.0000
  C   C850      1.0  0.72756  0.76558  0.45069  1.0000
  H   H1014     1.0  0.66663  0.97367  0.24333  1.0000
  N   N56       1.0  0.72627  0.79411  0.46743  1.0000
  H   H1015     1.0  0.99076  0.59881  0.13354  1.0000
  H   H1016     1.0  0.96439  0.71800  0.08982  1.0000
  H   H1017     1.0  0.74905  0.87290  0.46777  1.0000
  C   C851      1.0  0.68909  0.50815  0.25586  1.0000
  H   H1018     1.0  0.92512  0.61401  0.10468  1.0000
  Fe  Fe114     1.0  0.96868  0.65797  0.99685  1.0000
  H   H1019     1.0  0.97509  0.52529  0.00506  1.0000
  Fe  Fe115     1.0  0.97920  0.59620  0.00051  1.0000
  H   H1020     1.0  0.71661  0.51517  0.40766  1.0000
  H   H1021     1.0  0.90429  0.63978  0.01450  1.0000
  C   C852      1.0  0.98517  0.51436  0.99229  1.0000
  C   C853      1.0  0.75337  0.62779  0.00707  1.0000
  H   H1022     1.0  0.74422  0.72739  0.17422  1.0000
  C   C854      1.0  0.70926  0.79796  0.47974  1.0000
  H   H1023     1.0  0.97189  0.68584  0.16007  1.0000
  H   H1024     1.0  0.98096  0.63010  0.26842  1.0000
  H   H1025     1.0  0.66706  0.93605  0.28983  1.0000
  H   H1026     1.0  0.96176  0.55771  0.15628  1.0000
  H   H1027     1.0  0.73087  0.74110  0.13825  1.0000
  H   H1028     1.0  0.98877  0.70465  0.17821  1.0000
  C   C855      1.0  0.73230  0.72439  0.16015  1.0000
  S   S228      1.0  0.67545  0.86888  0.34986  1.0000
  H   H1029     1.0  0.75448  0.65337  0.14180  1.0000
  H   H1030     1.0  0.74197  0.67666  0.19278  1.0000
  H   H1031     1.0  0.99081  0.66020  0.11501  1.0000
  H   H1032     1.0  0.92398  0.60324  0.05528  1.0000
  H   H1033     1.0  0.98005  0.74217  0.41984  1.0000
  H   H1034     1.0  0.69013  0.97870  0.35825  1.0000
  H   H1035     1.0  0.74198  0.81253  0.42437  1.0000
  C   C856      1.0  0.71970  0.51081  0.37800  1.0000
  H   H1036     1.0  0.70550  0.96457  0.24167  1.0000
  H   H1037     1.0  0.96668  0.68108  0.09302  1.0000
  C   C857      1.0  0.98129  0.97932  0.36480  1.0000
  H   H1038     1.0  0.92378  0.52651  0.05462  1.0000
  H   H1039     1.0  0.98244  0.74767  0.06068  1.0000
  N   N57       1.0  0.73088  0.69592  0.14329  1.0000
  N   N58       1.0  0.91281  0.57450  0.09459  1.0000
  C   C858      1.0  0.97341  0.70090  0.08780  1.0000
  C   C859      1.0  0.72199  0.52844  0.31287  1.0000
  H   H1040     1.0  0.67393  0.52799  0.34258  1.0000
  C   C860      1.0  0.72645  0.50193  0.30012  1.0000
  C   C861      1.0  0.93892  0.56565  0.12915  1.0000
  H   H1041     1.0  0.73627  0.50098  0.03044  1.0000
  Fe  Fe116     1.0  0.66689  0.87898  0.41011  1.0000
  H   H1042     1.0  0.72060  0.54537  0.29237  1.0000
  C   C862      1.0  0.98862  0.98398  0.00684  1.0000
  C   C863      1.0  0.75517  0.66852  0.11880  1.0000
  H   H1043     1.0  0.96162  0.64236  0.21650  1.0000
  H   H1044     1.0  0.98137  0.97242  0.02735  1.0000
  C   C864      1.0  0.74411  0.69103  0.11534  1.0000
  C   C865      1.0  0.92761  0.55779  0.10037  1.0000
  C   C866      1.0  0.99228  0.75064  0.08063  1.0000
  C   C867      1.0  0.73826  0.51842  0.01103  1.0000
  C   C868      1.0  0.90197  0.56307  0.06427  1.0000
  H   H1045     1.0  0.72582  0.74932  0.47327  1.0000
  H   H1046     1.0  0.70073  0.79429  0.45545  1.0000
  H   H1047     1.0  0.72878  0.83657  0.44821  1.0000
  N   N59       1.0  0.98672  0.70478  0.11592  1.0000
  H   H1048     1.0  0.72010  0.54407  0.03791  1.0000
  H   H1049     1.0  0.69211  0.76449  0.22623  1.0000
  H   H1050     1.0  0.98474  0.93455  0.36522  1.0000
  C   C869      1.0  0.97964  0.95240  0.38012  1.0000
  S   S229      1.0  0.66471  0.62914  0.22277  1.0000
  C   C870      1.0  0.69280  0.98651  0.32968  1.0000
  C   C871      1.0  0.73157  0.56504  0.99042  1.0000
  H   H1051     1.0  0.97105  0.92767  0.42785  1.0000
  H   H1052     1.0  0.94858  0.50121  0.06534  1.0000
  C   C872      1.0  0.97951  0.70478  0.15512  1.0000
  H   H1053     1.0  0.72452  0.58393  0.99407  1.0000
  C   C873      1.0  0.99587  0.71606  0.45320  1.0000
  C   C874      1.0  0.96571  0.97129  0.43529  1.0000
  C   C875      1.0  0.72907  0.54256  0.01518  1.0000
  H   H1054     1.0  0.97810  0.78003  0.46905  1.0000
  H   H1055     1.0  0.96776  0.51623  0.11587  1.0000
  S   S230      1.0  0.84669  0.63440  0.98189  1.0000
  C   C876      1.0  0.99604  0.73094  0.10994  1.0000
  C   C877      1.0  0.77917  0.89659  0.85415  1.0000
  C   C878      1.0  0.76122  0.80563  0.55834  1.0000
  Fe  Fe117     1.0  0.80712  0.84246  0.71512  1.0000
  S   S231      1.0  0.81700  0.84255  0.65420  1.0000
  S   S232      1.0  0.79853  0.80663  0.75522  1.0000
  Fe  Fe118     1.0  0.80393  0.90715  0.71710  1.0000
  S   S233      1.0  0.81331  0.91152  0.65638  1.0000
  S   S234      1.0  0.79360  0.94025  0.75920  1.0000
  Fe  Fe119     1.0  0.79769  0.87446  0.64000  1.0000
  S   S235      1.0  0.78645  0.87246  0.57871  1.0000
  Fe  Fe120     1.0  0.83211  0.87964  0.67287  1.0000
  S   S236      1.0  0.85823  0.89259  0.65822  1.0000
  S   S237      1.0  0.78696  0.87214  0.69957  1.0000
  S   S238      1.0  0.82355  0.87748  0.73485  1.0000
  Fe  Fe121     1.0  0.82580  0.62637  0.94022  1.0000
  S   S239      1.0  0.82858  0.61919  0.87687  1.0000
  H   H1056     1.0  0.70586  0.78315  0.50310  1.0000
  Fe  Fe122     1.0  0.78873  0.62951  0.93399  1.0000
  S   S240      1.0  0.78954  0.62337  0.86882  1.0000
  C   C879      1.0  0.76608  0.79704  0.52175  1.0000
  Fe  Fe123     1.0  0.80758  0.58921  0.88140  1.0000
  S   S241      1.0  0.81071  0.54421  0.85755  1.0000
  Fe  Fe124     1.0  0.81054  0.65408  0.86897  1.0000
  S   S242      1.0  0.82009  0.68801  0.82685  1.0000
  S   S243      1.0  0.80593  0.59434  0.94631  1.0000
  S   S244      1.0  0.80851  0.66222  0.93272  1.0000
  Fe  Fe125     1.0  0.97979  0.89396  0.54521  1.0000
  S   S245      1.0  0.96580  0.85724  0.52003  1.0000
  C   C880      1.0  0.99363  0.75968  0.50970  1.0000
  Fe  Fe126     1.0  0.97751  0.86988  0.62755  1.0000
  S   S246      1.0  0.96371  0.83214  0.60708  1.0000
  S   S247      1.0  0.97912  0.87504  0.69350  1.0000
  Fe  Fe127     1.0  0.98116  0.82955  0.55738  1.0000
  C   C881      1.0  0.99505  0.87336  0.72761  1.0000
  Fe  Fe128     1.0  0.94906  0.86192  0.57149  1.0000
  S   S248      1.0  0.92172  0.85233  0.56761  1.0000
  S   S249      1.0  0.96196  0.90027  0.59403  1.0000
  N   N60       1.0  0.86832  0.68127  0.87308  1.0000
  C   C882      1.0  0.80055  0.97301  0.77836  1.0000
  H   H1057     1.0  0.83677  0.84125  0.55116  1.0000
  H   H1058     1.0  0.82236  0.97550  0.74493  1.0000
  C   C883      1.0  0.80403  0.51783  0.82412  1.0000
  C   C884      1.0  0.76346  0.51457  0.90129  1.0000
  C   C885      1.0  0.89983  0.60686  0.97346  1.0000
  H   H1059     1.0  0.87340  0.64792  0.83281  1.0000
  H   H1060     1.0  0.78235  0.51199  0.96273  1.0000
  N   N61       1.0  0.76651  0.53796  0.92855  1.0000
  C   C886      1.0  0.98793  0.98296  0.51997  1.0000
  C   C887      1.0  0.80485  0.77359  0.77450  1.0000
  C   C888      1.0  0.82003  0.76207  0.76694  1.0000
  C   C889      1.0  0.82439  0.73599  0.78315  1.0000
  C   C890      1.0  0.81376  0.72099  0.80741  1.0000
  C   C891      1.0  0.79862  0.73261  0.81515  1.0000
  C   C892      1.0  0.79421  0.75857  0.79866  1.0000
  H   H1061     1.0  0.82837  0.77312  0.74835  1.0000
  H   H1062     1.0  0.83607  0.72728  0.77656  1.0000
  H   H1063     1.0  0.79022  0.72143  0.83343  1.0000
  H   H1064     1.0  0.78238  0.76699  0.80451  1.0000
  C   C893      1.0  0.87578  0.88039  0.63350  1.0000
  C   C894      1.0  0.88941  0.89803  0.63166  1.0000
  C   C895      1.0  0.90354  0.88980  0.61197  1.0000
  C   C896      1.0  0.90435  0.86358  0.59397  1.0000
  C   C897      1.0  0.89072  0.84593  0.59580  1.0000
  C   C898      1.0  0.87657  0.85415  0.61556  1.0000
  H   H1065     1.0  0.88895  0.91846  0.64513  1.0000
  H   H1066     1.0  0.91369  0.90400  0.61000  1.0000
  H   H1067     1.0  0.89109  0.82572  0.58171  1.0000
  H   H1068     1.0  0.86630  0.84018  0.61679  1.0000
  C   C899      1.0  0.76674  0.87549  0.55740  1.0000
  C   C900      1.0  0.75271  0.87961  0.57924  1.0000
  C   C901      1.0  0.73745  0.88102  0.56101  1.0000
  C   C902      1.0  0.73584  0.87850  0.52063  1.0000
  C   C903      1.0  0.74989  0.87465  0.49876  1.0000
  C   C904      1.0  0.76514  0.87309  0.51700  1.0000
  H   H1069     1.0  0.75357  0.88152  0.61023  1.0000
  H   H1070     1.0  0.85247  0.65448  0.84008  1.0000
  S   S250      1.0  0.96983  0.70237  0.97254  1.0000
  H   H1071     1.0  0.85560  0.70208  0.82717  1.0000
  H   H1072     1.0  0.70706  0.81976  0.48993  1.0000
  H   H1073     1.0  0.85656  0.67248  0.92688  1.0000
  H   H1074     1.0  0.92899  0.89638  0.67634  1.0000
  C   C905      1.0  0.91505  0.68436  0.92795  1.0000
  C   C906      1.0  0.77104  0.79645  0.89745  1.0000
  H   H1075     1.0  0.90706  0.87401  0.71561  1.0000
  C   C907      1.0  0.74498  0.81040  0.56582  1.0000
  C   C908      1.0  0.89449  0.65796  0.89406  1.0000
  H   H1076     1.0  0.94930  0.87121  0.73777  1.0000
  H   H1077     1.0  0.87707  0.69959  0.82039  1.0000
  C   C909      1.0  0.81492  0.98577  0.76629  1.0000
  H   H1078     1.0  0.91706  0.64082  0.91351  1.0000
  C   C910      1.0  0.90537  0.70808  0.92660  1.0000
  C   C911      1.0  0.88439  0.68189  0.89165  1.0000
  C   C912      1.0  0.77920  0.84539  0.85513  1.0000
  S   S251      1.0  0.91992  0.59405  0.97174  1.0000
  H   H1079     1.0  0.74134  0.81803  0.59398  1.0000
  N   N62       1.0  0.83713  0.88604  0.54148  1.0000
  H   H1080     1.0  0.76607  0.89937  0.85923  1.0000
  H   H1081     1.0  0.84104  0.86215  0.59292  1.0000
  C   C913      1.0  0.78589  0.79840  0.87886  1.0000
  C   C914      1.0  0.78949  0.51971  0.80386  1.0000
  C   C915      1.0  0.88801  0.59377  0.95059  1.0000
  C   C916      1.0  0.87180  0.60250  0.95186  1.0000
  H   H1082     1.0  0.86282  0.59195  0.93447  1.0000
  C   C917      1.0  0.78449  0.49770  0.77911  1.0000
  H   H1083     1.0  0.83364  0.93063  0.54649  1.0000
  H   H1084     1.0  0.74843  0.81657  0.90873  1.0000
  H   H1085     1.0  0.92673  0.68518  0.94195  1.0000
  H   H1086     1.0  0.79419  0.78093  0.87990  1.0000
  H   H1087     1.0  0.82087  0.85994  0.57408  1.0000
  H   H1088     1.0  0.90959  0.72737  0.93969  1.0000
  H   H1089     1.0  0.77129  0.58223  0.92397  1.0000
  H   H1090     1.0  0.77011  0.80950  0.58064  1.0000
  C   C918      1.0  0.85446  0.88677  0.53117  1.0000
  H   H1091     1.0  0.88938  0.92463  0.54393  1.0000
  H   H1092     1.0  0.78204  0.53804  0.80740  1.0000
  C   C919      1.0  0.82713  0.88403  0.50615  1.0000
  H   H1093     1.0  0.90062  0.88544  0.50621  1.0000
  H   H1094     1.0  0.85674  0.70875  0.91436  1.0000
  H   H1095     1.0  0.77859  0.56198  0.88422  1.0000
  H   H1096     1.0  0.86349  0.63695  0.87700  1.0000
  S   S252      1.0  0.96399  0.62059  0.95874  1.0000
  C   C920      1.0  0.74351  0.56384  0.96194  1.0000
  H   H1097     1.0  0.81853  0.90997  0.57003  1.0000
  C   C921      1.0  0.99150  0.87866  0.76667  1.0000
  H   H1098     1.0  0.79243  0.53338  0.92832  1.0000
  H   H1099     1.0  0.72125  0.81209  0.54427  1.0000
  H   H1100     1.0  0.84337  0.68529  0.89014  1.0000
  C   C922      1.0  0.86745  0.70279  0.84235  1.0000
  H   H1101     1.0  0.98033  0.97658  0.54378  1.0000
  C   C923      1.0  0.76011  0.81840  0.89487  1.0000
  H   H1102     1.0  0.75494  0.85845  0.87164  1.0000
  C   C924      1.0  0.83384  0.86124  0.56587  1.0000
  C   C925      1.0  0.86435  0.65389  0.85503  1.0000
  H   H1103     1.0  0.99271  0.79588  0.94966  1.0000
  S   S253      1.0  0.71599  0.87959  0.49961  1.0000
  H   H1104     1.0  0.90820  0.83685  0.72395  1.0000
  N   N63       1.0  0.78290  0.87070  0.83207  1.0000
  C   C926      1.0  0.80010  0.87262  0.82030  1.0000
  C   C927      1.0  0.77296  0.87018  0.79669  1.0000
  C   C928      1.0  0.78993  0.82233  0.85772  1.0000
  H   H1105     1.0  0.80340  0.85574  0.79969  1.0000
  H   H1106     1.0  0.80280  0.89256  0.80495  1.0000
  H   H1107     1.0  0.80825  0.87161  0.84564  1.0000
  H   H1108     1.0  0.77551  0.85111  0.77914  1.0000
  H   H1109     1.0  0.77538  0.88879  0.77822  1.0000
  H   H1110     1.0  0.75985  0.87005  0.80326  1.0000
  H   H1111     1.0  0.78306  0.91577  0.83823  1.0000
  H   H1112     1.0  0.80136  0.82184  0.84278  1.0000
  C   C929      1.0  0.75329  0.53966  0.95726  1.0000
  H   H1113     1.0  0.77317  0.49942  0.76397  1.0000
  C   C930      1.0  0.93465  0.87560  0.67154  1.0000
  C   C931      1.0  0.93673  0.82748  0.69092  1.0000
  C   C932      1.0  0.95117  0.81686  0.70723  1.0000
  C   C933      1.0  0.92956  0.81133  0.66102  1.0000
  C   C934      1.0  0.95761  0.79127  0.69518  1.0000
  C   C935      1.0  0.93604  0.78571  0.64937  1.0000
  C   C936      1.0  0.95002  0.77567  0.66646  1.0000
  H   H1114     1.0  0.94788  0.87882  0.67040  1.0000
  H   H1115     1.0  0.93125  0.86812  0.64242  1.0000
  H   H1116     1.0  0.95809  0.82852  0.72813  1.0000
  H   H1117     1.0  0.91934  0.81888  0.64495  1.0000
  H   H1118     1.0  0.96889  0.78402  0.70707  1.0000
  H   H1119     1.0  0.93058  0.77422  0.62574  1.0000
  H   H1120     1.0  0.95532  0.75630  0.65631  1.0000
  C   C937      1.0  0.89026  0.70694  0.90881  1.0000
  H   H1121     1.0  0.77878  0.79399  0.51590  1.0000
  C   C938      1.0  0.90961  0.65940  0.91171  1.0000
  H   H1122     1.0  0.81399  0.88454  0.51314  1.0000
  H   H1123     1.0  0.88309  0.72575  0.90898  1.0000
  C   C939      1.0  0.76849  0.56384  0.90534  1.0000
  H   H1124     1.0  0.97933  0.88403  0.77496  1.0000
  H   H1125     1.0  0.98665  0.76487  0.84443  1.0000
  N   N64       1.0  0.93009  0.85518  0.70167  1.0000
  H   H1126     1.0  0.89093  0.63768  0.88313  1.0000
  H   H1127     1.0  0.72677  0.88405  0.57843  1.0000
  C   C940      1.0  0.76404  0.84245  0.87384  1.0000
  C   C941      1.0  0.93624  0.86580  0.73921  1.0000
  C   C942      1.0  0.85574  0.68729  0.90232  1.0000
  C   C943      1.0  0.91221  0.85405  0.70455  1.0000
  H   H1128     1.0  0.90632  0.85093  0.67615  1.0000
  H   H1129     1.0  0.78539  0.89666  0.88253  1.0000
  H   H1130     1.0  0.93430  0.85021  0.76255  1.0000
  H   H1131     1.0  0.75706  0.49780  0.98056  1.0000
  H   H1132     1.0  0.76790  0.77764  0.91323  1.0000
  H   H1133     1.0  0.86862  0.72440  0.85379  1.0000
  H   H1134     1.0  0.74505  0.58247  0.94469  1.0000
  H   H1135     1.0  0.93021  0.88560  0.74797  1.0000
  H   H1136     1.0  0.89138  0.57659  0.93191  1.0000
  H   H1137     1.0  0.98327  0.78864  0.80503  1.0000
  C   C944      1.0  0.99501  0.96253  0.49646  1.0000
  H   H1138     1.0  0.83798  0.91299  0.59147  1.0000
  C   C945      1.0  0.88142  0.90822  0.53358  1.0000
  H   H1139     1.0  0.82976  0.90171  0.48622  1.0000
  C   C946      1.0  0.88779  0.88616  0.51225  1.0000
  C   C947      1.0  0.86505  0.90859  0.54324  1.0000
  S   S254      1.0  0.76416  0.63738  0.96404  1.0000
  H   H1140     1.0  0.75751  0.56855  0.88827  1.0000
  H   H1141     1.0  0.77580  0.86992  0.49958  1.0000
  C   C948      1.0  0.87779  0.86443  0.50013  1.0000
  C   C949      1.0  0.73350  0.80679  0.53677  1.0000
  C   C950      1.0  0.83167  0.91109  0.56324  1.0000
  C   C951      1.0  0.78198  0.53281  0.94864  1.0000
  H   H1142     1.0  0.86111  0.92579  0.56108  1.0000
  H   H1143     1.0  0.77989  0.97747  0.81571  1.0000
  C   C952      1.0  0.75470  0.79315  0.49252  1.0000
  H   H1144     1.0  0.85418  0.84710  0.49975  1.0000
  S   S255      1.0  0.99127  0.92569  0.50245  1.0000
  C   C953      1.0  0.86716  0.62412  0.97670  1.0000
  H   H1145     1.0  0.99320  0.75624  0.79649  1.0000
  C   C954      1.0  0.99206  0.77367  0.81755  1.0000
  H   H1146     1.0  0.75181  0.51742  0.88598  1.0000
  H   H1147     1.0  0.97158  0.75891  0.94570  1.0000
  H   H1148     1.0  0.78415  0.54890  0.97134  1.0000
  H   H1149     1.0  0.77317  0.51310  0.87904  1.0000
  C   C955      1.0  0.86137  0.86469  0.50926  1.0000
  C   C956      1.0  0.73802  0.79778  0.49916  1.0000
  H   H1150     1.0  0.88293  0.84699  0.48435  1.0000
  H   H1151     1.0  0.82912  0.86421  0.49011  1.0000
  S   S256      1.0  0.99354  0.78694  0.54550  1.0000
  C   C957      1.0  0.79107  0.98694  0.80617  1.0000
  C   C958      1.0  0.98567  0.72745  0.97440  1.0000
  C   C959      1.0  0.98305  0.75424  0.95886  1.0000
  C   C960      1.0  0.99503  0.77521  0.96087  1.0000
  H   H1152     1.0  0.98049  0.49754  0.85460  1.0000
