data_image0
_chemical_formula_structural       H2SH2C2HFeCSHCH2CSCHCHCHC2SC2HCH2C2FeC2HCH3CFeSH2C2SHC2HCH2C2FeHCHNCH4CS2CHCHCFeHSCFeSCH2C2HCH3C2H2CNH3CH2C2HCHCFeCSHCH7SCH2C2H2SH3NHC2H2SC4H4CH3C3FeH6CHCHC2HCHCH3NHSCHC4HFeHSCHCFeH2SFeSCHCH2SHC2H4CH8SHCH2FeC2NH2CSC3HFeCH4CHC2HSC2H4FeSCS3HCHSH2C2NC2H2C2HNHC3NHFeSH4CH2C4HSHFeC3NCHSH2SH3CH5NH2C2HCFeHC2HCH2CHCHCH4CHCHCHCH2FeSCH2CH2C4HC2HCNHC3H2SC3SCHC2FeH2CHCH2SC2HSHSFeCSH2SFeHSNCHC2HC2HCFeHSFe2S2HFeHCH3C2FeSHCFeS2H2SH3C2FeCH2CHC2SC4H2CSC3H3CH4CSH2CH2CHSH2SHC2H2C2FeHCHCHC2H3CHCHFeCHCSHCHCHNH2C2HC2HCH2CHC2HCH4SHSC2H2CHCHC2SCHSHC4FeH2C3H2CHSC3H2SCH3CHCSC2SHCHCH3FeHFeHFeCHC2SC2SC2NC3H2SHCHCH2CH2CNH2C2H3C2H2C2H2C4HNC3H5C2H3C3H4C4NH2C2HS2H3SHC2HCHCHCFeH2FeHCSH3C2HC2NCH4SCSHSHCFe2C2S2NH3CH2CFeCHS2CH2CH2CFeCHC3FeH2C3SHSC2SHS2CH2CHCHNC3H2SC2HCHNCH3C3H3CH5CH2C2HC2HCH4NH2CHC2HC2HSHSC2H3CHC2HCHCH2C4H2CH2CSCHCHC4FeHCH2CHC2FeHCS3CH2C2SFe2CHCSFeSH3C4H3CHCHCHSFeSCH3CSFeCSHC2FeH3SHFeHSHCH6FeHCSH2SHC2H2C2HCH2CH2SCNC4HSCH3FeCH2C2HCH4S2CHC2H4SNH5SCHFeHC3SHC2FeHCH2C2HCHCH4CH3FeNCHFeS2C2HC2HCH2C2HCH2CHCNC2HCHCHC2HCHC4HC2HC2H6SH4C2NH2CSCH2SC2HCH2CHCSH2C4SCHC2H3CHSH3NS2C2HCSHCHCHNHCSCH2SC2HFeC2HCHCHCH5C3H2CFeHC2FeHC2HC2H3SH4CH2FeSCHNCSCHSFeH3NCHSH3CHC4H3C2HFeHFeC2HSHSHFeHC3HC2HSHCH5NHCS2HC
_chemical_formula_sum              "H576 S128 C480 Fe64 N32"
_cell_length_a       29.3882
_cell_length_b       24.9389
_cell_length_c       22.7861
_cell_angle_alpha    91.2503
_cell_angle_beta     84.3394
_cell_angle_gamma    86.5547

_space_group_name_H-M_alt    "P 1"
_space_group_IT_number       1

loop_
  _space_group_symop_operation_xyz
  'x, y, z'

loop_
  _atom_site_type_symbol
  _atom_site_label
  _atom_site_symmetry_multiplicity
  _atom_site_fract_x
  _atom_site_fract_y
  _atom_site_fract_z
  _atom_site_occupancy
  H   H1        1.0  0.33728  0.43000  0.84052  1.0000
  H   H2        1.0  0.20000  0.35608  0.84778  1.0000
  S   S1        1.0  0.41058  0.38736  0.02250  1.0000
  H   H3        1.0  0.38923  0.28567  0.94740  1.0000
  H   H4        1.0  0.42492  0.53953  0.81999  1.0000
  C   C1        1.0  0.20207  0.56222  0.99193  1.0000
  C   C2        1.0  0.31101  0.60577  0.99862  1.0000
  H   H5        1.0  0.05278  0.62222  0.91730  1.0000
  Fe  Fe1       1.0  0.24874  0.43101  0.97944  1.0000
  C   C3        1.0  0.31768  0.65009  0.96300  1.0000
  S   S2        1.0  0.20155  0.38680  0.04179  1.0000
  H   H6        1.0  0.31438  0.64371  0.91668  1.0000
  C   C4        1.0  0.44112  0.55355  0.95623  1.0000
  H   H7        1.0  0.39440  0.23111  0.89408  1.0000
  H   H8        1.0  0.34932  0.25319  0.80271  1.0000
  C   C5        1.0  0.40236  0.52895  0.94062  1.0000
  S   S3        1.0  0.22968  0.48414  0.90672  1.0000
  C   C6        1.0  0.38104  0.24325  0.93997  1.0000
  H   H9        1.0  0.19909  0.53010  0.02298  1.0000
  C   C7        1.0  0.05248  0.60905  0.87163  1.0000
  H   H10       1.0  0.09906  0.23358  0.97907  1.0000
  C   C8        1.0  0.42418  0.44934  0.99294  1.0000
  H   H11       1.0  0.01164  0.36739  0.95697  1.0000
  C   C9        1.0  0.20950  0.64545  0.91170  1.0000
  C   C10       1.0  0.46409  0.47283  0.00625  1.0000
  S   S4        1.0  0.22877  0.23527  0.99679  1.0000
  C   C11       1.0  0.33109  0.70329  0.04904  1.0000
  C   C12       1.0  0.47232  0.52519  0.98840  1.0000
  H   H12       1.0  0.16861  0.51751  0.82192  1.0000
  C   C13       1.0  0.22010  0.59208  0.89237  1.0000
  H   H13       1.0  0.23263  0.58305  0.84679  1.0000
  H   H14       1.0  0.45798  0.28942  0.98390  1.0000
  C   C14       1.0  0.23286  0.33398  0.83729  1.0000
  C   C15       1.0  0.39357  0.47719  0.95955  1.0000
  Fe  Fe2       1.0  0.25193  0.31602  0.02158  1.0000
  C   C16       1.0  0.19177  0.61580  0.01145  1.0000
  C   C17       1.0  0.21618  0.55045  0.93230  1.0000
  H   H15       1.0  0.20840  0.25906  0.86841  1.0000
  C   C18       1.0  0.19550  0.65739  0.97127  1.0000
  H   H16       1.0  0.12353  0.58529  0.86235  1.0000
  H   H17       1.0  0.37457  0.37717  0.86511  1.0000
  H   H18       1.0  0.48780  0.45124  0.03199  1.0000
  C   C19       1.0  0.01203  0.61454  0.84462  1.0000
  Fe  Fe3       1.0  0.33458  0.38392  0.02854  1.0000
  S   S5        1.0  0.29601  0.35880  0.95438  1.0000
  H   H19       1.0  0.37855  0.55039  0.91488  1.0000
  H   H20       1.0  0.03896  0.45035  0.00002  1.0000
  C   C20       1.0  0.38592  0.22859  0.04319  1.0000
  C   C21       1.0  0.27980  0.25127  0.83594  1.0000
  S   S6        1.0  0.44921  0.62025  0.93703  1.0000
  H   H21       1.0  0.36294  0.45909  0.94842  1.0000
  C   C22       1.0  0.27064  0.36076  0.81377  1.0000
  C   C23       1.0  0.09280  0.58753  0.83976  1.0000
  H   H22       1.0  0.30274  0.56793  0.97923  1.0000
  C   C24       1.0  0.36593  0.39988  0.82578  1.0000
  H   H23       1.0  0.34291  0.24317  0.94296  1.0000
  H   H24       1.0  0.26557  0.40358  0.80818  1.0000
  C   C25       1.0  0.23749  0.27943  0.84871  1.0000
  C   C26       1.0  0.47561  0.25048  0.97485  1.0000
  Fe  Fe4       1.0  0.48614  0.66448  0.00270  1.0000
  H   H25       1.0  0.21337  0.67760  0.88082  1.0000
  C   C27       1.0  0.31771  0.27748  0.81152  1.0000
  H   H26       1.0  0.49797  0.49290  0.84174  1.0000
  N   N1        1.0  0.40049  0.20663  0.98291  1.0000
  C   C28       1.0  0.32776  0.70051  0.98734  1.0000
  H   H27       1.0  0.48873  0.61244  0.81432  1.0000
  H   H28       1.0  0.39606  0.42289  0.81136  1.0000
  H   H29       1.0  0.28319  0.20892  0.84585  1.0000
  H   H30       1.0  0.50277  0.54361  0.99942  1.0000
  C   C29       1.0  0.01226  0.45297  0.97040  1.0000
  S   S7        1.0  0.29057  0.45927  0.04944  1.0000
  S   S8        1.0  0.49103  0.65630  0.22575  1.0000
  C   C30       1.0  0.42599  0.56456  0.13127  1.0000
  H   H31       1.0  0.08059  0.45215  0.20765  1.0000
  C   C31       1.0  0.32533  0.65842  0.08390  1.0000
  H   H32       1.0  0.32395  0.68151  0.27582  1.0000
  C   C32       1.0  0.31461  0.60995  0.05889  1.0000
  Fe  Fe5       1.0  0.50392  0.68315  0.13216  1.0000
  H   H33       1.0  0.04952  0.37463  0.18432  1.0000
  S   S9        1.0  0.22781  0.43912  0.20158  1.0000
  C   C33       1.0  0.43140  0.51962  0.22326  1.0000
  Fe  Fe6       1.0  0.24809  0.40856  0.10979  1.0000
  S   S10       1.0  0.29513  0.33478  0.09415  1.0000
  C   C34       1.0  0.13152  0.33142  0.23146  1.0000
  H   H34       1.0  0.39336  0.63102  0.23299  1.0000
  H   H35       1.0  0.09577  0.59648  0.11300  1.0000
  C   C35       1.0  0.29376  0.26293  0.23367  1.0000
  C   C36       1.0  0.27545  0.57101  0.22727  1.0000
  H   H36       1.0  0.03550  0.20936  0.13409  1.0000
  C   C37       1.0  0.09247  0.52356  0.16129  1.0000
  H   H37       1.0  0.42586  0.45834  0.12786  1.0000
  H   H38       1.0  0.27717  0.22960  0.25735  1.0000
  H   H39       1.0  0.12689  0.52541  0.17456  1.0000
  C   C38       1.0  0.16903  0.35793  0.20615  1.0000
  C   C39       1.0  0.34539  0.33368  0.23554  1.0000
  H   H40       1.0  0.12281  0.29392  0.21195  1.0000
  H   H41       1.0  0.37216  0.48623  0.10917  1.0000
  C   C40       1.0  0.01580  0.63989  0.29269  1.0000
  N   N2        1.0  0.40130  0.53171  0.17615  1.0000
  H   H42       1.0  0.18926  0.34080  0.16730  1.0000
  H   H43       1.0  0.26658  0.28603  0.21220  1.0000
  H   H44       1.0  0.37606  0.45199  0.17791  1.0000
  C   C41       1.0  0.09453  0.60449  0.28737  1.0000
  H   H45       1.0  0.32394  0.36075  0.20964  1.0000
  H   H46       1.0  0.36644  0.35849  0.26213  1.0000
  C   C42       1.0  0.06555  0.48171  0.18022  1.0000
  C   C43       1.0  0.01623  0.38163  0.16563  1.0000
  H   H47       1.0  0.10602  0.23951  0.08746  1.0000
  C   C44       1.0  0.15472  0.42770  0.28237  1.0000
  H   H48       1.0  0.30921  0.50320  0.18155  1.0000
  C   C45       1.0  0.18073  0.40594  0.23193  1.0000
  Fe  Fe7       1.0  0.16066  0.68505  0.21319  1.0000
  C   C46       1.0  0.10525  0.35352  0.28174  1.0000
  S   S11       1.0  0.45639  0.25142  0.15460  1.0000
  H   H49       1.0  0.40493  0.57391  0.09430  1.0000
  C   C47       1.0  0.35887  0.56179  0.20234  1.0000
  H   H50       1.0  0.26799  0.22570  0.10773  1.0000
  H   H51       1.0  0.18099  0.62487  0.05753  1.0000
  H   H52       1.0  0.24815  0.64436  0.27233  1.0000
  H   H53       1.0  0.30847  0.57573  0.08619  1.0000
  H   H54       1.0  0.01678  0.59339  0.08416  1.0000
  H   H55       1.0  0.24194  0.55510  0.22562  1.0000
  H   H56       1.0  0.32769  0.66205  0.13088  1.0000
  S   S12       1.0  0.16229  0.21523  0.30008  1.0000
  C   C48       1.0  0.39320  0.47990  0.14675  1.0000
  H   H57       1.0  0.30169  0.41080  0.29535  1.0000
  H   H58       1.0  0.44041  0.55677  0.24576  1.0000
  C   C49       1.0  0.32157  0.64201  0.25578  1.0000
  C   C50       1.0  0.03048  0.56185  0.11069  1.0000
  H   H59       1.0  0.46443  0.49815  0.20554  1.0000
  H   H60       1.0  0.37608  0.24453  0.27887  1.0000
  S   S13       1.0  0.22425  0.69111  0.15207  1.0000
  H   H61       1.0  0.02311  0.37958  0.11669  1.0000
  H   H62       1.0  0.31850  0.24351  0.19825  1.0000
  H   H63       1.0  0.43558  0.60328  0.14975  1.0000
  N   N3        1.0  0.31649  0.29856  0.27336  1.0000
  H   H64       1.0  0.45869  0.54353  0.11195  1.0000
  C   C51       1.0  0.06248  0.64650  0.27880  1.0000
  C   C52       1.0  0.07493  0.56367  0.12675  1.0000
  H   H65       1.0  0.07356  0.68388  0.26110  1.0000
  H   H66       1.0  0.41434  0.49462  0.25771  1.0000
  S   S14       1.0  0.15252  0.61081  0.26572  1.0000
  C   C53       1.0  0.27886  0.62117  0.25395  1.0000
  C   C54       1.0  0.36107  0.61285  0.23062  1.0000
  C   C55       1.0  0.02005  0.47861  0.16502  1.0000
  C   C56       1.0  0.31471  0.54147  0.20188  1.0000
  H   H67       1.0  0.36999  0.30990  0.20309  1.0000
  H   H68       1.0  0.01939  0.42990  0.27117  1.0000
  H   H69       1.0  0.34809  0.23331  0.05142  1.0000
  H   H70       1.0  0.39889  0.26885  0.05111  1.0000
  C   C57       1.0  0.28148  0.32887  0.31444  1.0000
  H   H71       1.0  0.12672  0.56989  0.46096  1.0000
  H   H72       1.0  0.16452  0.46439  0.30240  1.0000
  H   H73       1.0  0.09647  0.41894  0.34601  1.0000
  C   C58       1.0  0.27877  0.38588  0.32067  1.0000
  C   C59       1.0  0.11654  0.40194  0.30694  1.0000
  C   C60       1.0  0.03340  0.55033  0.32640  1.0000
  Fe  Fe8       1.0  0.08858  0.23703  0.33086  1.0000
  H   H74       1.0  0.10806  0.63843  0.39907  1.0000
  H   H75       1.0  0.21757  0.28996  0.53842  1.0000
  H   H76       1.0  0.25113  0.56600  0.42822  1.0000
  H   H77       1.0  0.03715  0.43292  0.45649  1.0000
  H   H78       1.0  0.27378  0.34363  0.48708  1.0000
  H   H79       1.0  0.10485  0.52531  0.32101  1.0000
  C   C61       1.0  0.45426  0.29292  0.39186  1.0000
  H   H80       1.0  0.20593  0.56979  0.53049  1.0000
  C   C62       1.0  0.21226  0.38452  0.39208  1.0000
  H   H81       1.0  0.16770  0.42493  0.52120  1.0000
  C   C63       1.0  0.16185  0.56726  0.43750  1.0000
  C   C64       1.0  0.23428  0.60615  0.42091  1.0000
  H   H82       1.0  0.23175  0.60940  0.37269  1.0000
  C   C65       1.0  0.19322  0.61056  0.51821  1.0000
  H   H83       1.0  0.25771  0.63670  0.43403  1.0000
  C   C66       1.0  0.21449  0.32870  0.38793  1.0000
  H   H84       1.0  0.42929  0.32443  0.40938  1.0000
  H   H85       1.0  0.47385  0.30802  0.53259  1.0000
  H   H86       1.0  0.15919  0.56524  0.38907  1.0000
  N   N4        1.0  0.18827  0.61331  0.45412  1.0000
  H   H87       1.0  0.48956  0.58607  0.32385  1.0000
  S   S15       1.0  0.48187  0.54057  0.45127  1.0000
  C   C67       1.0  0.16681  0.66636  0.44092  1.0000
  H   H88       1.0  0.46977  0.66210  0.49294  1.0000
  C   C68       1.0  0.32613  0.32495  0.54424  1.0000
  C   C69       1.0  0.08012  0.55722  0.31315  1.0000
  C   C70       1.0  0.24886  0.30115  0.35019  1.0000
  C   C71       1.0  0.44836  0.23986  0.40748  1.0000
  H   H89       1.0  0.01917  0.69941  0.48916  1.0000
  Fe  Fe9       1.0  0.33558  0.63132  0.53687  1.0000
  H   H90       1.0  0.17848  0.52810  0.44894  1.0000
  S   S16       1.0  0.34893  0.57247  0.46078  1.0000
  C   C72       1.0  0.12648  0.67230  0.41149  1.0000
  H   H91       1.0  0.00990  0.52662  0.45466  1.0000
  C   C73       1.0  0.03558  0.33484  0.48517  1.0000
  Fe  Fe10      1.0  0.41248  0.54655  0.50147  1.0000
  H   H92       1.0  0.36227  0.29018  0.34097  1.0000
  H   H93       1.0  0.35071  0.34950  0.52082  1.0000
  S   S17       1.0  0.09382  0.20824  0.42240  1.0000
  Fe  Fe11      1.0  0.31427  0.51438  0.52117  1.0000
  S   S18       1.0  0.25660  0.46712  0.49619  1.0000
  C   C74       1.0  0.49259  0.30569  0.35447  1.0000
  H   H94       1.0  0.24941  0.25784  0.34882  1.0000
  C   C75       1.0  0.43580  0.68584  0.39240  1.0000
  H   H95       1.0  0.05297  0.34362  0.44110  1.0000
  H   H96       1.0  0.43464  0.64322  0.40597  1.0000
  S   S19       1.0  0.05928  0.31962  0.31416  1.0000
  H   H97       1.0  0.04570  0.29215  0.49334  1.0000
  C   C76       1.0  0.34720  0.26518  0.30776  1.0000
  C   C77       1.0  0.24456  0.41298  0.35902  1.0000
  H   H98       1.0  0.18937  0.30658  0.41390  1.0000
  H   H99       1.0  0.24247  0.45651  0.36227  1.0000
  H   H100      1.0  0.04976  0.35947  0.51945  1.0000
  H   H101      1.0  0.43911  0.68463  0.34339  1.0000
  C   C78       1.0  0.28275  0.32166  0.52531  1.0000
  H   H102      1.0  0.18526  0.40594  0.42055  1.0000
  H   H103      1.0  0.21790  0.63894  0.53276  1.0000
  H   H104      1.0  0.41866  0.22985  0.43635  1.0000
  H   H105      1.0  0.15978  0.62042  0.54466  1.0000
  H   H106      1.0  0.49577  0.34756  0.34499  1.0000
  H   H107      1.0  0.32885  0.23344  0.33218  1.0000
  H   H108      1.0  0.02223  0.51263  0.34329  1.0000
  H   H109      1.0  0.28610  0.45195  0.61183  1.0000
  S   S20       1.0  0.16300  0.36680  0.72609  1.0000
  H   H110      1.0  0.16447  0.51159  0.66286  1.0000
  C   C79       1.0  0.18576  0.42168  0.56012  1.0000
  H   H111      1.0  0.04847  0.56322  0.70892  1.0000
  H   H112      1.0  0.37348  0.41283  0.70392  1.0000
  Fe  Fe12      1.0  0.03777  0.24558  0.67497  1.0000
  C   C80       1.0  0.49139  0.44078  0.70381  1.0000
  C   C81       1.0  0.22969  0.44046  0.56014  1.0000
  N   N5        1.0  0.48532  0.66570  0.74156  1.0000
  H   H113      1.0  0.40888  0.30559  0.79547  1.0000
  H   H114      1.0  0.37175  0.29844  0.60748  1.0000
  C   C82       1.0  0.22776  0.23483  0.70313  1.0000
  S   S21       1.0  0.45062  0.22485  0.64771  1.0000
  C   C83       1.0  0.44115  0.64849  0.72335  1.0000
  C   C84       1.0  0.03074  0.56129  0.58694  1.0000
  C   C85       1.0  0.05145  0.57525  0.75406  1.0000
  H   H115      1.0  0.41697  0.63987  0.76228  1.0000
  Fe  Fe13      1.0  0.04596  0.69256  0.59921  1.0000
  C   C86       1.0  0.15824  0.50436  0.77869  1.0000
  H   H116      1.0  0.17637  0.22543  0.57659  1.0000
  H   H117      1.0  0.47315  0.52081  0.57457  1.0000
  H   H118      1.0  0.42475  0.35171  0.74013  1.0000
  H   H119      1.0  0.31595  0.24512  0.66197  1.0000
  C   C87       1.0  0.16478  0.39907  0.61090  1.0000
  H   H120      1.0  0.03981  0.42723  0.60882  1.0000
  C   C88       1.0  0.18778  0.39489  0.66162  1.0000
  C   C89       1.0  0.39578  0.32817  0.75839  1.0000
  H   H121      1.0  0.44607  0.61106  0.69533  1.0000
  S   S22       1.0  0.03452  0.37064  0.77848  1.0000
  C   C90       1.0  0.42618  0.50336  0.73335  1.0000
  C   C91       1.0  0.26071  0.26227  0.60658  1.0000
  H   H122      1.0  0.13431  0.47172  0.78698  1.0000
  H   H123      1.0  0.31915  0.43155  0.74054  1.0000
  H   H124      1.0  0.15449  0.62645  0.71487  1.0000
  H   H125      1.0  0.38887  0.29913  0.72312  1.0000
  Fe  Fe14      1.0  0.09488  0.33146  0.72307  1.0000
  S   S23       1.0  0.40160  0.60961  0.57369  1.0000
  C   C92       1.0  0.50737  0.61965  0.77051  1.0000
  S   S24       1.0  0.29657  0.57475  0.59489  1.0000
  S   S25       1.0  0.08019  0.24817  0.75163  1.0000
  S   S26       1.0  0.05806  0.32520  0.64238  1.0000
  H   H126      1.0  0.11794  0.55970  0.65787  1.0000
  C   C93       1.0  0.02489  0.46763  0.61115  1.0000
  H   H127      1.0  0.43751  0.46121  0.64921  1.0000
  S   S27       1.0  0.37337  0.53542  0.72038  1.0000
  H   H128      1.0  0.22539  0.27823  0.71600  1.0000
  H   H129      1.0  0.25877  0.21584  0.72026  1.0000
  C   C94       1.0  0.16895  0.59269  0.73997  1.0000
  C   C95       1.0  0.50613  0.53663  0.56309  1.0000
  N   N6        1.0  0.35422  0.36337  0.77806  1.0000
  C   C96       1.0  0.44338  0.51194  0.78758  1.0000
  C   C97       1.0  0.25038  0.29091  0.55580  1.0000
  H   H130      1.0  0.27702  0.68107  0.62840  1.0000
  H   H131      1.0  0.15602  0.21242  0.64994  1.0000
  C   C98       1.0  0.09354  0.56985  0.77988  1.0000
  C   C99       1.0  0.45048  0.46811  0.69120  1.0000
  H   H132      1.0  0.16817  0.27991  0.63142  1.0000
  N   N7        1.0  0.13700  0.54889  0.74646  1.0000
  H   H133      1.0  0.32699  0.37144  0.69411  1.0000
  C   C100      1.0  0.13128  0.52777  0.68629  1.0000
  C   C101      1.0  0.33765  0.29681  0.59335  1.0000
  C   C102      1.0  0.04957  0.50839  0.58442  1.0000
  N   N8        1.0  0.22810  0.22711  0.63815  1.0000
  H   H134      1.0  0.13082  0.38540  0.61063  1.0000
  Fe  Fe15      1.0  0.36432  0.54727  0.62489  1.0000
  S   S28       1.0  0.37940  0.48226  0.55498  1.0000
  H   H135      1.0  0.10786  0.49417  0.68797  1.0000
  H   H136      1.0  0.20260  0.57834  0.71617  1.0000
  H   H137      1.0  0.42463  0.67894  0.69593  1.0000
  H   H138      1.0  0.17618  0.60968  0.78328  1.0000
  C   C103      1.0  0.23128  0.41454  0.66181  1.0000
  H   H139      1.0  0.19001  0.48599  0.75377  1.0000
  H   H140      1.0  0.24859  0.41214  0.70131  1.0000
  C   C104      1.0  0.34280  0.39593  0.72707  1.0000
  C   C105      1.0  0.25221  0.43749  0.61134  1.0000
  C   C106      1.0  0.30543  0.26617  0.62429  1.0000
  C   C107      1.0  0.18022  0.23705  0.62326  1.0000
  H   H141      1.0  0.19834  0.21632  0.72786  1.0000
  S   S29       1.0  0.06342  0.61173  0.55527  1.0000
  H   H142      1.0  0.08352  0.49894  0.56231  1.0000
  Fe  Fe16      1.0  0.01640  0.28693  0.80083  1.0000
  C   C108      1.0  0.48482  0.48569  0.79971  1.0000
  C   C109      1.0  0.31431  0.33339  0.80018  1.0000
  C   C110      1.0  0.01157  0.59770  0.78600  1.0000
  N   N9        1.0  0.09204  0.78759  0.86761  1.0000
  C   C111      1.0  0.06637  0.97791  0.90112  1.0000
  H   H143      1.0  0.38941  0.12584  0.01189  1.0000
  S   S30       1.0  0.23944  0.00321  0.87625  1.0000
  H   H144      1.0  0.29662  0.72617  0.87907  1.0000
  H   H145      1.0  0.27875  0.04583  0.00849  1.0000
  S   S31       1.0  0.18327  0.72456  0.99449  1.0000
  H   H146      1.0  0.15008  0.18922  0.97336  1.0000
  H   H147      1.0  0.46080  0.98197  0.01940  1.0000
  H   H148      1.0  0.38996  0.13419  0.93346  1.0000
  C   C112      1.0  0.11181  0.73557  0.84082  1.0000
  H   H149      1.0  0.38478  0.77953  0.00444  1.0000
  H   H150      1.0  0.03775  0.12920  0.96221  1.0000
  H   H151      1.0  0.41955  0.15101  0.84149  1.0000
  H   H152      1.0  0.37977  0.00864  0.87685  1.0000
  H   H153      1.0  0.09951  0.96025  0.90967  1.0000
  N   N10       1.0  0.09623  0.16703  0.03792  1.0000
  H   H154      1.0  0.30170  0.82813  0.94476  1.0000
  H   H155      1.0  0.01596  0.09601  0.86100  1.0000
  C   C113      1.0  0.06481  0.77794  0.92427  1.0000
  C   C114      1.0  0.04976  0.78755  0.03223  1.0000
  H   H156      1.0  0.26380  0.77756  0.96847  1.0000
  C   C115      1.0  0.38007  0.76885  0.95805  1.0000
  Fe  Fe17      1.0  0.27890  0.05555  0.81356  1.0000
  H   H157      1.0  0.08494  0.70915  0.82862  1.0000
  C   C116      1.0  0.02042  0.14791  0.00212  1.0000
  C   C117      1.0  0.02708  0.94860  0.91057  1.0000
  H   H158      1.0  0.01493  0.73073  0.88483  1.0000
  C   C118      1.0  0.46011  0.98321  0.97213  1.0000
  H   H159      1.0  0.33652  0.77547  0.86180  1.0000
  H   H160      1.0  0.10227  0.08612  0.00062  1.0000
  C   C119      1.0  0.07630  0.79768  0.97964  1.0000
  H   H161      1.0  0.30048  0.80441  0.01843  1.0000
  C   C120      1.0  0.41758  0.99735  0.95225  1.0000
  H   H162      1.0  0.02990  0.90825  0.92683  1.0000
  C   C121      1.0  0.02564  0.74711  0.92520  1.0000
  H   H163      1.0  0.34195  0.15841  0.98132  1.0000
  H   H164      1.0  0.02087  0.99861  0.03925  1.0000
  H   H165      1.0  0.35762  0.70724  0.86893  1.0000
  H   H166      1.0  0.40791  0.73805  0.94222  1.0000
  C   C122      1.0  0.49313  0.96966  0.87082  1.0000
  H   H167      1.0  0.15222  0.10640  0.03149  1.0000
  C   C123      1.0  0.49953  0.96970  0.93180  1.0000
  H   H168      1.0  0.23815  0.12286  0.96482  1.0000
  C   C124      1.0  0.25178  0.17985  0.03249  1.0000
  H   H169      1.0  0.15005  0.82964  0.83006  1.0000
  C   C125      1.0  0.27618  0.08493  0.03055  1.0000
  H   H170      1.0  0.11835  0.86277  0.89283  1.0000
  H   H171      1.0  0.38547  0.80628  0.93348  1.0000
  Fe  Fe18      1.0  0.17763  0.03317  0.83284  1.0000
  S   S32       1.0  0.11016  0.07012  0.87559  1.0000
  C   C126      1.0  0.01161  0.75705  0.03147  1.0000
  H   H172      1.0  0.15626  0.80388  0.90126  1.0000
  H   H173      1.0  0.46226  0.11555  0.95934  1.0000
  C   C127      1.0  0.11401  0.11008  0.03727  1.0000
  H   H174      1.0  0.13259  0.71361  0.87202  1.0000
  H   H175      1.0  0.10127  0.16923  0.94211  1.0000
  C   C128      1.0  0.29868  0.79157  0.97184  1.0000
  C   C129      1.0  0.43670  0.79514  0.82385  1.0000
  C   C130      1.0  0.13067  0.82256  0.87363  1.0000
  C   C131      1.0  0.06246  0.03089  0.88262  1.0000
  H   H176      1.0  0.47289  0.84872  0.87487  1.0000
  C   C132      1.0  0.06199  0.81350  0.82632  1.0000
  C   C133      1.0  0.45053  0.98422  0.85143  1.0000
  H   H177      1.0  0.40535  0.82065  0.82894  1.0000
  C   C134      1.0  0.04550  0.16971  0.04616  1.0000
  N   N11       1.0  0.33429  0.74874  0.95144  1.0000
  H   H178      1.0  0.04273  0.84994  0.84667  1.0000
  C   C135      1.0  0.47492  0.81131  0.84936  1.0000
  C   C136      1.0  0.25305  0.12854  0.00595  1.0000
  C   C137      1.0  0.41286  0.99803  0.89205  1.0000
  H   H179      1.0  0.10617  0.82018  0.98369  1.0000
  H   H180      1.0  0.38786  0.00703  0.98384  1.0000
  S   S33       1.0  0.27459  0.85476  0.81132  1.0000
  C   C138      1.0  0.37994  0.15396  0.97722  1.0000
  C   C139      1.0  0.47762  0.15370  0.96178  1.0000
  C   C140      1.0  0.33124  0.73860  0.88752  1.0000
  S   S34       1.0  0.33324  0.10515  0.84405  1.0000
  C   C141      1.0  0.01923  0.05453  0.87398  1.0000
  H   H181      1.0  0.03635  0.78641  0.81184  1.0000
  C   C142      1.0  0.45115  0.20318  0.97295  1.0000
  C   C143      1.0  0.11211  0.19089  0.98090  1.0000
  Fe  Fe19      1.0  0.25095  0.94141  0.80211  1.0000
  H   H182      1.0  0.44666  0.98472  0.80452  1.0000
  H   H183      1.0  0.28881  0.84779  0.12853  1.0000
  C   C144      1.0  0.38129  0.80793  0.19919  1.0000
  H   H184      1.0  0.45145  0.81670  0.16626  1.0000
  C   C145      1.0  0.40498  0.85005  0.10724  1.0000
  H   H185      1.0  0.39009  0.78740  0.23827  1.0000
  H   H186      1.0  0.23538  0.88823  0.23402  1.0000
  S   S35       1.0  0.44614  0.70820  0.07959  1.0000
  C   C146      1.0  0.13814  0.98950  0.14996  1.0000
  C   C147      1.0  0.24720  0.02225  0.24050  1.0000
  H   H187      1.0  0.39860  0.20164  0.07704  1.0000
  S   S36       1.0  0.11449  0.72239  0.15028  1.0000
  H   H188      1.0  0.27273  0.05006  0.25375  1.0000
  S   S37       1.0  0.45308  0.09897  0.10648  1.0000
  Fe  Fe20      1.0  0.39007  0.06844  0.15520  1.0000
  C   C148      1.0  0.12051  0.93871  0.15779  1.0000
  S   S38       1.0  0.44877  0.85784  0.05098  1.0000
  H   H189      1.0  0.31456  0.90843  0.25058  1.0000
  H   H190      1.0  0.24847  0.02471  0.19151  1.0000
  S   S39       1.0  0.37912  0.13823  0.21967  1.0000
  Fe  Fe21      1.0  0.13709  0.13574  0.27443  1.0000
  H   H191      1.0  0.30911  0.14907  0.15060  1.0000
  S   S40       1.0  0.15380  0.09144  0.18756  1.0000
  N   N12       1.0  0.25687  0.96647  0.25960  1.0000
  C   C149      1.0  0.10346  0.01778  0.24722  1.0000
  H   H192      1.0  0.18984  0.93953  0.24941  1.0000
  C   C150      1.0  0.35906  0.85992  0.09719  1.0000
  C   C151      1.0  0.29816  0.09266  0.08158  1.0000
  H   H193      1.0  0.32911  0.97692  0.25672  1.0000
  C   C152      1.0  0.08631  0.96713  0.25524  1.0000
  C   C153      1.0  0.33557  0.81478  0.18750  1.0000
  H   H194      1.0  0.12644  0.90851  0.12269  1.0000
  C   C154      1.0  0.32425  0.84150  0.13702  1.0000
  Fe  Fe22      1.0  0.48719  0.77815  0.05333  1.0000
  H   H195      1.0  0.09615  0.04794  0.28195  1.0000
  S   S41       1.0  0.42953  0.01601  0.21414  1.0000
  Fe  Fe23      1.0  0.44442  0.16565  0.17485  1.0000
  Fe  Fe24      1.0  0.49147  0.05350  0.17171  1.0000
  S   S42       1.0  0.18998  0.81595  0.13273  1.0000
  S   S43       1.0  0.48675  0.12274  0.23672  1.0000
  H   H196      1.0  0.33797  0.74034  0.07097  1.0000
  Fe  Fe25      1.0  0.42274  0.08803  0.27522  1.0000
  H   H197      1.0  0.21242  0.03805  0.25881  1.0000
  C   C155      1.0  0.09485  0.92748  0.21076  1.0000
  H   H198      1.0  0.35057  0.87939  0.05734  1.0000
  H   H199      1.0  0.06683  0.95873  0.29642  1.0000
  H   H200      1.0  0.10307  0.09077  0.07947  1.0000
  C   C156      1.0  0.22604  0.93167  0.23029  1.0000
  C   C157      1.0  0.29431  0.14332  0.10991  1.0000
  Fe  Fe26      1.0  0.22955  0.77078  0.19704  1.0000
  S   S44       1.0  0.29325  0.79060  0.23748  1.0000
  H   H201      1.0  0.31100  0.95165  0.18911  1.0000
  C   C158      1.0  0.27081  0.18674  0.08571  1.0000
  Fe  Fe27      1.0  0.12780  0.80064  0.19356  1.0000
  S   S45       1.0  0.16821  0.76231  0.26126  1.0000
  S   S46       1.0  0.33260  0.03979  0.10722  1.0000
  H   H202      1.0  0.02262  0.92227  0.13611  1.0000
  H   H203      1.0  0.10934  0.17826  0.12896  1.0000
  S   S47       1.0  0.07284  0.86438  0.22189  1.0000
  H   H204      1.0  0.48095  0.84498  0.27484  1.0000
  H   H205      1.0  0.05937  0.80267  0.07401  1.0000
  H   H206      1.0  0.22730  0.93856  0.18201  1.0000
  C   C159      1.0  0.30497  0.95005  0.23814  1.0000
  C   C160      1.0  0.12987  0.02895  0.19502  1.0000
  Fe  Fe28      1.0  0.17916  0.73508  0.09295  1.0000
  C   C161      1.0  0.41598  0.82485  0.15868  1.0000
  H   H207      1.0  0.04712  0.01141  0.10602  1.0000
  H   H208      1.0  0.15861  0.99795  0.10944  1.0000
  C   C162      1.0  0.01453  0.01625  0.08493  1.0000
  H   H209      1.0  0.15534  0.19349  0.07709  1.0000
  C   C163      1.0  0.11723  0.19607  0.08505  1.0000
  C   C164      1.0  0.01957  0.19272  0.09764  1.0000
  S   S48       1.0  0.06309  0.15999  0.29920  1.0000
  C   C165      1.0  0.36295  0.92793  0.38621  1.0000
  C   C166      1.0  0.46868  0.70539  0.48174  1.0000
  C   C167      1.0  0.30657  0.16749  0.46716  1.0000
  C   C168      1.0  0.47855  0.83605  0.32143  1.0000
  H   H210      1.0  0.08342  0.98651  0.49970  1.0000
  H   H211      1.0  0.04129  0.83077  0.35430  1.0000
  C   C169      1.0  0.16842  0.76479  0.44271  1.0000
  S   S49       1.0  0.40989  0.08097  0.37302  1.0000
  C   C170      1.0  0.10896  0.72287  0.39632  1.0000
  C   C171      1.0  0.46942  0.06596  0.50399  1.0000
  C   C172      1.0  0.47717  0.78276  0.33908  1.0000
  H   H212      1.0  0.32747  0.09222  0.31554  1.0000
  H   H213      1.0  0.25619  0.87313  0.32255  1.0000
  H   H214      1.0  0.25864  0.81405  0.51515  1.0000
  C   C173      1.0  0.25064  0.90938  0.34979  1.0000
  H   H215      1.0  0.02510  0.78483  0.44119  1.0000
  H   H216      1.0  0.47736  0.15848  0.40025  1.0000
  H   H217      1.0  0.24483  0.04640  0.34939  1.0000
  H   H218      1.0  0.35325  0.79558  0.41321  1.0000
  C   C174      1.0  0.24514  0.00589  0.36439  1.0000
  S   S50       1.0  0.31436  0.71569  0.51435  1.0000
  H   H219      1.0  0.25260  0.14161  0.34522  1.0000
  H   H220      1.0  0.34936  0.82901  0.51439  1.0000
  C   C175      1.0  0.36033  0.87309  0.37495  1.0000
  H   H221      1.0  0.14618  0.93760  0.54546  1.0000
  H   H222      1.0  0.24472  0.86369  0.42889  1.0000
  C   C176      1.0  0.24432  0.90350  0.41093  1.0000
  H   H223      1.0  0.30097  0.18876  0.50928  1.0000
  S   S51       1.0  0.14849  0.09957  0.36156  1.0000
  H   H224      1.0  0.40207  0.70660  0.40829  1.0000
  H   H225      1.0  0.36810  0.95500  0.34987  1.0000
  S   S52       1.0  0.21821  0.19909  0.45224  1.0000
  H   H226      1.0  0.46784  0.80725  0.48851  1.0000
  C   C177      1.0  0.47359  0.76953  0.39966  1.0000
  C   C178      1.0  0.47674  0.87773  0.36345  1.0000
  H   H227      1.0  0.47767  0.91905  0.34966  1.0000
  H   H228      1.0  0.47918  0.75182  0.30472  1.0000
  C   C179      1.0  0.32189  0.11386  0.35742  1.0000
  C   C180      1.0  0.08072  0.98120  0.54701  1.0000
  Fe  Fe29      1.0  0.16597  0.18159  0.39011  1.0000
  H   H229      1.0  0.07942  0.72583  0.37143  1.0000
  C   C181      1.0  0.47303  0.86629  0.42326  1.0000
  H   H230      1.0  0.11569  0.80830  0.40102  1.0000
  C   C182      1.0  0.35160  0.91424  0.49312  1.0000
  H   H231      1.0  0.43385  0.07013  0.49536  1.0000
  C   C183      1.0  0.35655  0.11335  0.39528  1.0000
  C   C184      1.0  0.47122  0.81312  0.44145  1.0000
  H   H232      1.0  0.49021  0.01896  0.42487  1.0000
  H   H233      1.0  0.43514  0.72363  0.50237  1.0000
  H   H234      1.0  0.01040  0.87200  0.41380  1.0000
  C   C185      1.0  0.25030  0.96091  0.32449  1.0000
  H   H235      1.0  0.49679  0.72292  0.50368  1.0000
  C   C186      1.0  0.00984  0.85703  0.36747  1.0000
  H   H236      1.0  0.23542  0.03489  0.45480  1.0000
  Fe  Fe30      1.0  0.07568  0.12830  0.38792  1.0000
  C   C187      1.0  0.23939  0.99969  0.42544  1.0000
  H   H237      1.0  0.47126  0.89886  0.45585  1.0000
  C   C188      1.0  0.50128  0.03673  0.46454  1.0000
  S   S53       1.0  0.03080  0.06881  0.43254  1.0000
  H   H238      1.0  0.09906  0.12562  0.51240  1.0000
  C   C189      1.0  0.23834  0.94861  0.44872  1.0000
  H   H239      1.0  0.01243  0.89275  0.33921  1.0000
  C   C190      1.0  0.35882  0.94841  0.44427  1.0000
  H   H240      1.0  0.30118  0.00212  0.53787  1.0000
  N   N13       1.0  0.47389  0.71256  0.41690  1.0000
  H   H241      1.0  0.18421  0.80071  0.45573  1.0000
  H   H242      1.0  0.37588  0.14058  0.47924  1.0000
  C   C191      1.0  0.35164  0.85825  0.48001  1.0000
  C   C192      1.0  0.34894  0.14011  0.45021  1.0000
  H   H243      1.0  0.23315  0.94421  0.49611  1.0000
  C   C193      1.0  0.12958  0.76911  0.41239  1.0000
  C   C194      1.0  0.27945  0.14111  0.37449  1.0000
  H   H244      1.0  0.36292  0.85735  0.32991  1.0000
  C   C195      1.0  0.48139  0.19966  0.38711  1.0000
  H   H245      1.0  0.35974  0.01917  0.54222  1.0000
  H   H246      1.0  0.17018  0.06760  0.51516  1.0000
  C   C196      1.0  0.35487  0.83834  0.42181  1.0000
  H   H247      1.0  0.36124  0.99125  0.44966  1.0000
  C   C197      1.0  0.27161  0.16716  0.42972  1.0000
  C   C198      1.0  0.18722  0.71424  0.45604  1.0000
  H   H248      1.0  0.21811  0.71278  0.47802  1.0000
  C   C199      1.0  0.08757  0.13691  0.60674  1.0000
  H   H249      1.0  0.40452  0.88415  0.57702  1.0000
  H   H250      1.0  0.07496  0.96719  0.71629  1.0000
  H   H251      1.0  0.21178  0.71781  0.69723  1.0000
  H   H252      1.0  0.45875  0.11304  0.58508  1.0000
  S   S54       1.0  0.21798  0.02944  0.61347  1.0000
  H   H253      1.0  0.27910  0.16051  0.62896  1.0000
  S   S55       1.0  0.29401  0.99235  0.74215  1.0000
  C   C200      1.0  0.43891  0.74703  0.79066  1.0000
  C   C201      1.0  0.40696  0.15602  0.79897  1.0000
  H   H254      1.0  0.46442  0.19847  0.76564  1.0000
  H   H255      1.0  0.42126  0.87335  0.69258  1.0000
  C   C202      1.0  0.11604  0.95380  0.57267  1.0000
  H   H256      1.0  0.23813  0.16046  0.57539  1.0000
  C   C203      1.0  0.04210  0.00318  0.58204  1.0000
  H   H257      1.0  0.36824  0.16672  0.64178  1.0000
  C   C204      1.0  0.03760  0.99777  0.64435  1.0000
  C   C205      1.0  0.35210  0.13776  0.72983  1.0000
  S   S56       1.0  0.02061  0.82802  0.68560  1.0000
  C   C206      1.0  0.11326  0.94890  0.63363  1.0000
  H   H258      1.0  0.14129  0.92848  0.65353  1.0000
  S   S57       1.0  0.07744  0.76796  0.56794  1.0000
  H   H259      1.0  0.01497  0.09892  0.69361  1.0000
  C   C207      1.0  0.39043  0.80049  0.66963  1.0000
  C   C208      1.0  0.35285  0.76919  0.68151  1.0000
  C   C209      1.0  0.22171  0.73860  0.65727  1.0000
  C   C210      1.0  0.10283  0.12284  0.66078  1.0000
  Fe  Fe31      1.0  0.50127  0.81581  0.62639  1.0000
  H   H260      1.0  0.27965  0.90655  0.57419  1.0000
  H   H261      1.0  0.19381  0.85201  0.58512  1.0000
  C   C211      1.0  0.31770  0.78574  0.72551  1.0000
  C   C212      1.0  0.19845  0.78704  0.64536  1.0000
  C   C213      1.0  0.37862  0.16430  0.68592  1.0000
  H   H262      1.0  0.28917  0.76086  0.73533  1.0000
  H   H263      1.0  0.03757  0.05330  0.74475  1.0000
  C   C214      1.0  0.07495  0.97105  0.66917  1.0000
  H   H264      1.0  0.08195  0.82611  0.78551  1.0000
  S   S58       1.0  0.15194  0.81225  0.69376  1.0000
  C   C215      1.0  0.36626  0.13424  0.78666  1.0000
  C   C216      1.0  0.35607  0.86670  0.74341  1.0000
  C   C217      1.0  0.21189  0.81453  0.59427  1.0000
  H   H265      1.0  0.01654  0.02453  0.55894  1.0000
  H   H266      1.0  0.22199  0.14256  0.64981  1.0000
  S   S59       1.0  0.18529  0.96642  0.76437  1.0000
  C   C218      1.0  0.41867  0.18764  0.69944  1.0000
  H   H267      1.0  0.32431  0.00702  0.60732  1.0000
  H   H268      1.0  0.30669  0.92404  0.63812  1.0000
  H   H269      1.0  0.50045  0.71349  0.66623  1.0000
  C   C219      1.0  0.24262  0.17033  0.62235  1.0000
  H   H270      1.0  0.15060  0.07393  0.70434  1.0000
  C   C220      1.0  0.39218  0.84912  0.70099  1.0000
  S   S60       1.0  0.43517  0.77761  0.61634  1.0000
  C   C221      1.0  0.16632  0.06804  0.61012  1.0000
  C   C222      1.0  0.43278  0.18286  0.75568  1.0000
  S   S61       1.0  0.21704  0.09035  0.77571  1.0000
  H   H271      1.0  0.32083  0.12029  0.71996  1.0000
  C   C223      1.0  0.14100  0.08694  0.66240  1.0000
  H   H272      1.0  0.08462  0.13852  0.70162  1.0000
  C   C224      1.0  0.31880  0.83489  0.75593  1.0000
  H   H273      1.0  0.48065  0.08850  0.76446  1.0000
  H   H274      1.0  0.35794  0.90392  0.76803  1.0000
  H   H275      1.0  0.35125  0.73160  0.65735  1.0000
  Fe  Fe32      1.0  0.00752  0.80804  0.59258  1.0000
  H   H276      1.0  0.39105  0.94236  0.62484  1.0000
  Fe  Fe33      1.0  0.08807  0.78268  0.66272  1.0000
  H   H277      1.0  0.32473  0.86352  0.60003  1.0000
  Fe  Fe34      1.0  0.22788  0.02169  0.70953  1.0000
  C   C225      1.0  0.25837  0.71749  0.61800  1.0000
  H   H278      1.0  0.40813  0.73719  0.77181  1.0000
  C   C226      1.0  0.48024  0.71403  0.78109  1.0000
  C   C227      1.0  0.39245  0.92737  0.57820  1.0000
  S   S62       1.0  0.03920  0.18124  0.60500  1.0000
  C   C228      1.0  0.31323  0.90595  0.59286  1.0000
  C   C229      1.0  0.27146  0.74438  0.56647  1.0000
  S   S63       1.0  0.06237  0.70419  0.69219  1.0000
  C   C230      1.0  0.24855  0.79324  0.55493  1.0000
  C   C231      1.0  0.15134  0.08240  0.55589  1.0000
  N   N14       1.0  0.34732  0.93505  0.55498  1.0000
  C   C232      1.0  0.33260  0.99324  0.56042  1.0000
  C   C233      1.0  0.48347  0.09023  0.55416  1.0000
  C   C234      1.0  0.11127  0.11573  0.55428  1.0000
  H   H279      1.0  0.41905  0.94921  0.55195  1.0000
  H   H280      1.0  0.13446  0.74150  0.79952  1.0000
  S   S64       1.0  0.99160  0.26830  0.89405  1.0000
  H   H281      1.0  0.69808  0.61793  0.91668  1.0000
  C   C235      1.0  0.85380  0.62853  0.82982  1.0000
  H   H282      1.0  0.59892  0.49742  0.83682  1.0000
  C   C236      1.0  0.58783  0.47563  0.98285  1.0000
  H   H283      1.0  0.54114  0.28527  0.96856  1.0000
  H   H284      1.0  0.70959  0.23824  0.87932  1.0000
  C   C237      1.0  0.89810  0.41328  0.82152  1.0000
  H   H285      1.0  0.83767  0.23788  0.98329  1.0000
  H   H286      1.0  0.67117  0.25694  0.94210  1.0000
  C   C238      1.0  0.78742  0.53291  0.00709  1.0000
  N   N15       1.0  0.90762  0.46513  0.84974  1.0000
  H   H287      1.0  0.63634  0.66615  0.83225  1.0000
  H   H288      1.0  0.85255  0.46235  0.91908  1.0000
  C   C239      1.0  0.86250  0.52970  0.04326  1.0000
  C   C240      1.0  0.67717  0.36105  0.94178  1.0000
  H   H289      1.0  0.74425  0.42199  0.88903  1.0000
  H   H290      1.0  0.94447  0.54619  0.90963  1.0000
  H   H291      1.0  0.62172  0.65552  0.90922  1.0000
  C   C241      1.0  0.95898  0.50657  0.91790  1.0000
  C   C242      1.0  0.83908  0.60349  0.98370  1.0000
  H   H292      1.0  0.71882  0.55674  0.87734  1.0000
  H   H293      1.0  0.83631  0.49230  0.85218  1.0000
  C   C243      1.0  0.61120  0.51819  0.00299  1.0000
  C   C244      1.0  0.74958  0.30925  0.94008  1.0000
  H   H294      1.0  0.83611  0.61235  0.86828  1.0000
  H   H295      1.0  0.84556  0.64177  0.96421  1.0000
  C   C245      1.0  0.62282  0.63660  0.86453  1.0000
  C   C246      1.0  0.72669  0.34580  0.84997  1.0000
  C   C247      1.0  0.79743  0.58020  0.97804  1.0000
  C   C248      1.0  0.74344  0.39817  0.84890  1.0000
  H   H296      1.0  0.74341  0.66919  0.02071  1.0000
  N   N16       1.0  0.70990  0.32216  0.90651  1.0000
  C   C249      1.0  0.52338  0.24856  0.96624  1.0000
  C   C250      1.0  0.87214  0.57737  0.01467  1.0000
  C   C251      1.0  0.99682  0.40644  0.94627  1.0000
  H   H297      1.0  0.89721  0.67575  0.87849  1.0000
  H   H298      1.0  0.00449  0.53915  0.97614  1.0000
  H   H299      1.0  0.65705  0.27816  0.87118  1.0000
  H   H300      1.0  0.92333  0.54391  0.81804  1.0000
  H   H301      1.0  0.91244  0.27944  0.97848  1.0000
  C   C252      1.0  0.69795  0.59520  0.87423  1.0000
  C   C253      1.0  0.62940  0.54705  0.90137  1.0000
  H   H302      1.0  0.64951  0.37609  0.91516  1.0000
  H   H303      1.0  0.71648  0.61967  0.84047  1.0000
  H   H304      1.0  0.88379  0.38488  0.85445  1.0000
  C   C254      1.0  0.88810  0.66444  0.83525  1.0000
  C   C255      1.0  0.94320  0.46008  0.89141  1.0000
  C   C256      1.0  0.86423  0.48781  0.88168  1.0000
  H   H305      1.0  0.58671  0.63029  0.85711  1.0000
  H   H306      1.0  0.77247  0.59976  0.95261  1.0000
  H   H307      1.0  0.56386  0.43735  0.90711  1.0000
  H   H308      1.0  0.95218  0.37218  0.89081  1.0000
  C   C257      1.0  0.58351  0.46929  0.92281  1.0000
  C   C258      1.0  0.60391  0.50435  0.88253  1.0000
  C   C259      1.0  0.63110  0.55388  0.96313  1.0000
  C   C260      1.0  0.96258  0.40972  0.90771  1.0000
  N   N17       1.0  0.65093  0.58513  0.85971  1.0000
  H   H309      1.0  0.76796  0.34562  0.94977  1.0000
  H   H310      1.0  0.57232  0.44819  0.01392  1.0000
  C   C261      1.0  0.81991  0.50784  0.04013  1.0000
  C   C262      1.0  0.99316  0.50293  0.95648  1.0000
  H   H311      1.0  0.73887  0.29089  0.98298  1.0000
  S   S65       1.0  0.73434  0.50553  0.00212  1.0000
  S   S66       1.0  0.92307  0.60777  0.02386  1.0000
  H   H312      1.0  0.77476  0.28004  0.91489  1.0000
  H   H313      1.0  0.66053  0.34269  0.98183  1.0000
  H   H314      1.0  0.64816  0.58660  0.98148  1.0000
  S   S67       1.0  0.65037  0.70383  0.00815  1.0000
  H   H315      1.0  0.69383  0.39642  0.95853  1.0000
  C   C263      1.0  0.86358  0.22721  0.94717  1.0000
  C   C264      1.0  0.90582  0.25079  0.94445  1.0000
  H   H316      1.0  0.86810  0.52841  0.90026  1.0000
  C   C265      1.0  0.68593  0.27189  0.89902  1.0000
  H   H317      1.0  0.98104  0.63236  0.86899  1.0000
  C   C266      1.0  0.93934  0.23779  0.89749  1.0000
  H   H318      1.0  0.61403  0.52397  0.04979  1.0000
  C   C267      1.0  0.92203  0.50184  0.80189  1.0000
  Fe  Fe35      1.0  0.82385  0.65446  0.20695  1.0000
  H   H319      1.0  0.92650  0.40081  0.18105  1.0000
  H   H320      1.0  0.86531  0.20760  0.29351  1.0000
  Fe  Fe36      1.0  0.90726  0.63605  0.11668  1.0000
  H   H321      1.0  0.83507  0.31124  0.11683  1.0000
  C   C268      1.0  0.58837  0.21139  0.09406  1.0000
  S   S68       1.0  0.95440  0.67281  0.17451  1.0000
  H   H322      1.0  0.83941  0.21224  0.11129  1.0000
  H   H323      1.0  0.60649  0.24391  0.21132  1.0000
  H   H324      1.0  0.95232  0.21312  0.14261  1.0000
  C   C269      1.0  0.51279  0.25474  0.12182  1.0000
  C   C270      1.0  0.57727  0.30815  0.09308  1.0000
  H   H325      1.0  0.57446  0.60740  0.16270  1.0000
  C   C271      1.0  0.72081  0.65130  0.16782  1.0000
  C   C272      1.0  0.72381  0.66685  0.06300  1.0000
  N   N18       1.0  0.99236  0.43381  0.18615  1.0000
  C   C273      1.0  0.67326  0.66115  0.17304  1.0000
  H   H326      1.0  0.59047  0.34687  0.08518  1.0000
  H   H327      1.0  0.52415  0.32185  0.23221  1.0000
  H   H328      1.0  0.88752  0.51020  0.06879  1.0000
  H   H329      1.0  0.99570  0.34711  0.17957  1.0000
  S   S69       1.0  0.65220  0.42038  0.10669  1.0000
  C   C274      1.0  0.84713  0.31559  0.20841  1.0000
  S   S70       1.0  0.87475  0.58506  0.18616  1.0000
  H   H330      1.0  0.96476  0.40296  0.26927  1.0000
  S   S71       1.0  0.83289  0.38442  0.21539  1.0000
  H   H331      1.0  0.92491  0.47221  0.18215  1.0000
  C   C275      1.0  0.53038  0.30472  0.11028  1.0000
  Fe  Fe37      1.0  0.76778  0.39422  0.17220  1.0000
  Fe  Fe38      1.0  0.91676  0.62738  0.24702  1.0000
  C   C276      1.0  0.74575  0.65195  0.11241  1.0000
  C   C277      1.0  0.55608  0.32581  0.25405  1.0000
  S   S72       1.0  0.70511  0.35228  0.20451  1.0000
  S   S73       1.0  0.74942  0.64460  0.23111  1.0000
  N   N19       1.0  0.56591  0.27787  0.28954  1.0000
  H   H332      1.0  0.50805  0.34095  0.11653  1.0000
  H   H333      1.0  0.63571  0.29749  0.29504  1.0000
  H   H334      1.0  0.58435  0.33185  0.21892  1.0000
  C   C278      1.0  0.51874  0.57349  0.29292  1.0000
  H   H335      1.0  0.79436  0.52671  0.26239  1.0000
  H   H336      1.0  0.94774  0.43378  0.11617  1.0000
  C   C279      1.0  0.98629  0.43537  0.25159  1.0000
  Fe  Fe39      1.0  0.69233  0.34168  0.10982  1.0000
  C   C280      1.0  0.94600  0.43551  0.16519  1.0000
  H   H337      1.0  0.96890  0.52184  0.11605  1.0000
  S   S74       1.0  0.75932  0.37471  0.07757  1.0000
  S   S75       1.0  0.73179  0.47571  0.17370  1.0000
  C   C281      1.0  0.65118  0.67473  0.12319  1.0000
  H   H338      1.0  0.55293  0.36389  0.28076  1.0000
  H   H339      1.0  0.81234  0.47162  0.06330  1.0000
  C   C282      1.0  0.58081  0.23245  0.24735  1.0000
  H   H340      1.0  0.86063  0.30722  0.29913  1.0000
  H   H341      1.0  0.62288  0.52667  0.18203  1.0000
  C   C283      1.0  0.84532  0.23263  0.15177  1.0000
  Fe  Fe40      1.0  0.71992  0.45428  0.08039  1.0000
  C   C284      1.0  0.84240  0.28874  0.15509  1.0000
  H   H342      1.0  0.65371  0.65974  0.21572  1.0000
  C   C285      1.0  0.85967  0.23020  0.25457  1.0000
  C   C286      1.0  0.60664  0.26165  0.08677  1.0000
  C   C287      1.0  0.59349  0.53917  0.21270  1.0000
  Fe  Fe41      1.0  0.66832  0.43281  0.19998  1.0000
  H   H343      1.0  0.96949  0.47452  0.26885  1.0000
  H   H344      1.0  0.55113  0.21711  0.22706  1.0000
  C   C288      1.0  0.56596  0.58498  0.20161  1.0000
  C   C289      1.0  0.85743  0.28649  0.25765  1.0000
  C   C290      1.0  0.58306  0.51005  0.26347  1.0000
  S   S76       1.0  0.54055  0.63279  0.05715  1.0000
  H   H345      1.0  0.61472  0.68356  0.12772  1.0000
  S   S77       1.0  0.61599  0.45174  0.27702  1.0000
  C   C291      1.0  0.52817  0.60178  0.24122  1.0000
  C   C292      1.0  0.67665  0.67900  0.06849  1.0000
  S   S78       1.0  0.66637  0.26555  0.07375  1.0000
  H   H346      1.0  0.78192  0.64069  0.10745  1.0000
  S   S79       1.0  0.86422  0.69424  0.27150  1.0000
  S   S80       1.0  0.85250  0.70185  0.13162  1.0000
  C   C293      1.0  0.54155  0.20795  0.11169  1.0000
  H   H347      1.0  0.99095  0.67227  0.28593  1.0000
  H   H348      1.0  0.84884  0.50875  0.28901  1.0000
  C   C294      1.0  0.00318  0.52015  0.12950  1.0000
  H   H349      1.0  0.82321  0.57571  0.30080  1.0000
  C   C295      1.0  0.81563  0.53256  0.29966  1.0000
  H   H350      1.0  0.98327  0.27358  0.43184  1.0000
  N   N20       1.0  0.60485  0.39938  0.47601  1.0000
  C   C296      1.0  0.53206  0.25497  0.50291  1.0000
  C   C297      1.0  0.53301  0.35201  0.50480  1.0000
  C   C298      1.0  0.00130  0.59112  0.31439  1.0000
  H   H351      1.0  0.57386  0.57715  0.44486  1.0000
  H   H352      1.0  0.87267  0.48558  0.50572  1.0000
  S   S81       1.0  0.79371  0.42189  0.51862  1.0000
  C   C299      1.0  0.92085  0.70059  0.42294  1.0000
  C   C300      1.0  0.74590  0.60501  0.37741  1.0000
  H   H353      1.0  0.97911  0.27848  0.54780  1.0000
  C   C301      1.0  0.97021  0.40218  0.48558  1.0000
  H   H354      1.0  0.62454  0.46404  0.53114  1.0000
  N   N21       1.0  0.98501  0.34446  0.48743  1.0000
  C   C302      1.0  0.56316  0.56796  0.49005  1.0000
  H   H355      1.0  0.67372  0.36540  0.47946  1.0000
  H   H356      1.0  0.53793  0.50507  0.34314  1.0000
  H   H357      1.0  0.52318  0.68447  0.34418  1.0000
  C   C303      1.0  0.51797  0.68440  0.39318  1.0000
  C   C304      1.0  0.95515  0.68277  0.45716  1.0000
  C   C305      1.0  0.76792  0.32037  0.49957  1.0000
  H   H358      1.0  0.93120  0.31592  0.43897  1.0000
  H   H359      1.0  0.59591  0.21184  0.47296  1.0000
  H   H360      1.0  0.92724  0.31728  0.54361  1.0000
  C   C306      1.0  0.66343  0.55801  0.36607  1.0000
  H   H361      1.0  0.62513  0.59284  0.52328  1.0000
  H   H362      1.0  0.80297  0.51914  0.44784  1.0000
  H   H363      1.0  0.70199  0.48422  0.34853  1.0000
  H   H364      1.0  0.63150  0.54026  0.35992  1.0000
  H   H365      1.0  0.76991  0.44558  0.31353  1.0000
  C   C307      1.0  0.66347  0.61301  0.37766  1.0000
  H   H366      1.0  0.63169  0.63765  0.38116  1.0000
  H   H367      1.0  0.82079  0.43488  0.34817  1.0000
  C   C308      1.0  0.60226  0.29737  0.47257  1.0000
  C   C309      1.0  0.65332  0.39027  0.45053  1.0000
  H   H368      1.0  0.70497  0.67950  0.38994  1.0000
  C   C310      1.0  0.70465  0.63647  0.38301  1.0000
  C   C311      1.0  0.74716  0.54868  0.36602  1.0000
  H   H369      1.0  0.59977  0.47269  0.42778  1.0000
  C   C312      1.0  0.52579  0.26515  0.33050  1.0000
  H   H370      1.0  0.65605  0.37038  0.40604  1.0000
  H   H371      1.0  0.98042  0.33581  0.39422  1.0000
  H   H372      1.0  0.74538  0.24127  0.48281  1.0000
  H   H373      1.0  0.57956  0.41539  0.39219  1.0000
  N   N22       1.0  0.79157  0.51682  0.35611  1.0000
  H   H374      1.0  0.89737  0.39131  0.50851  1.0000
  H   H375      1.0  0.95257  0.64541  0.48021  1.0000
  C   C313      1.0  0.96482  0.32041  0.54247  1.0000
  H   H376      1.0  0.77693  0.62575  0.37982  1.0000
  C   C314      1.0  0.78683  0.45782  0.35292  1.0000
  C   C315      1.0  0.60475  0.42731  0.53419  1.0000
  H   H377      1.0  0.59565  0.32367  0.35478  1.0000
  C   C316      1.0  0.59227  0.57636  0.53427  1.0000
  C   C317      1.0  0.58150  0.43536  0.43585  1.0000
  H   H378      1.0  0.61374  0.25340  0.35081  1.0000
  S   S82       1.0  0.79787  0.67935  0.49792  1.0000
  H   H379      1.0  0.89138  0.67689  0.41950  1.0000
  S   S83       1.0  0.72232  0.55804  0.53013  1.0000
  C   C318      1.0  0.82084  0.52760  0.40408  1.0000
  C   C319      1.0  0.70450  0.52609  0.35990  1.0000
  H   H380      1.0  0.51958  0.64141  0.40542  1.0000
  H   H381      1.0  0.92451  0.22424  0.48705  1.0000
  H   H382      1.0  0.70089  0.67623  0.52929  1.0000
  C   C320      1.0  0.92329  0.41943  0.49764  1.0000
  H   H383      1.0  0.54604  0.44846  0.45365  1.0000
  C   C321      1.0  0.98580  0.49639  0.46644  1.0000
  C   C322      1.0  0.93965  0.51197  0.48002  1.0000
  H   H384      1.0  0.63833  0.29094  0.45798  1.0000
  C   C323      1.0  0.90855  0.47354  0.49545  1.0000
  H   H385      1.0  0.92789  0.55384  0.47821  1.0000
  C   C324      1.0  0.75995  0.36770  0.53405  1.0000
  H   H386      1.0  0.76752  0.44377  0.39363  1.0000
  H   H387      1.0  0.85358  0.50229  0.39838  1.0000
  C   C325      1.0  0.57815  0.25107  0.48139  1.0000
  C   C326      1.0  0.73960  0.27765  0.50998  1.0000
  C   C327      1.0  0.51981  0.54881  0.50479  1.0000
  C   C328      1.0  0.58029  0.34945  0.48376  1.0000
  H   H388      1.0  0.79567  0.31672  0.46446  1.0000
  H   H389      1.0  0.67066  0.42867  0.44556  1.0000
  C   C329      1.0  0.96922  0.31612  0.43608  1.0000
  H   H390      1.0  0.83114  0.56974  0.40546  1.0000
  H   H391      1.0  0.54746  0.70337  0.41049  1.0000
  C   C330      1.0  0.51989  0.21207  0.35004  1.0000
  S   S84       1.0  0.94335  0.57917  0.31917  1.0000
  C   C331      1.0  0.60448  0.28865  0.32415  1.0000
  H   H392      1.0  0.51400  0.21886  0.51174  1.0000
  C   C332      1.0  0.54594  0.52746  0.30378  1.0000
  H   H393      1.0  0.51430  0.39013  0.51597  1.0000
  C   C333      1.0  0.00105  0.44226  0.46839  1.0000
  C   C334      1.0  0.50945  0.30535  0.51437  1.0000
  C   C335      1.0  0.72413  0.37198  0.57934  1.0000
  C   C336      1.0  0.51477  0.67765  0.68758  1.0000
  Fe  Fe42      1.0  0.58997  0.21844  0.76894  1.0000
  H   H394      1.0  0.71735  0.40843  0.60554  1.0000
  C   C337      1.0  0.53516  0.54464  0.60696  1.0000
  H   H395      1.0  0.67386  0.59304  0.76708  1.0000
  H   H396      1.0  0.77309  0.40950  0.70167  1.0000
  C   C338      1.0  0.81516  0.22090  0.68344  1.0000
  H   H397      1.0  0.82658  0.21218  0.77663  1.0000
  C   C339      1.0  0.96147  0.53191  0.64072  1.0000
  C   C340      1.0  0.75963  0.42092  0.79589  1.0000
  Fe  Fe43      1.0  0.76777  0.49688  0.57033  1.0000
  H   H398      1.0  0.62077  0.56336  0.78002  1.0000
  C   C341      1.0  0.76013  0.39217  0.74273  1.0000
  S   S85       1.0  0.52560  0.27261  0.77834  1.0000
  S   S86       1.0  0.73162  0.63532  0.64707  1.0000
  S   S87       1.0  0.97291  0.27943  0.72584  1.0000
  C   C342      1.0  0.84338  0.30483  0.64310  1.0000
  H   H399      1.0  0.51014  0.41401  0.67093  1.0000
  H   H400      1.0  0.66832  0.33296  0.62486  1.0000
  C   C343      1.0  0.70397  0.28202  0.55545  1.0000
  C   C344      1.0  0.84123  0.61437  0.77447  1.0000
  S   S88       1.0  0.61163  0.57802  0.65003  1.0000
  Fe  Fe44      1.0  0.77094  0.61694  0.55867  1.0000
  Fe  Fe45      1.0  0.68663  0.57150  0.62125  1.0000
  C   C345      1.0  0.85845  0.31865  0.69708  1.0000
  H   H401      1.0  0.97183  0.61390  0.61724  1.0000
  C   C346      1.0  0.72899  0.31709  0.79510  1.0000
  S   S89       1.0  0.81889  0.55497  0.59301  1.0000
  Fe  Fe46      1.0  0.99660  0.35988  0.69915  1.0000
  S   S90       1.0  0.63450  0.28131  0.73214  1.0000
  H   H402      1.0  0.52438  0.53525  0.65204  1.0000
  H   H403      1.0  0.86406  0.29519  0.78650  1.0000
  H   H404      1.0  0.92720  0.54109  0.66190  1.0000
  C   C347      1.0  0.82266  0.25645  0.63599  1.0000
  C   C348      1.0  0.89688  0.67243  0.72934  1.0000
  C   C349      1.0  0.65482  0.56560  0.79714  1.0000
  C   C350      1.0  0.74449  0.34064  0.74231  1.0000
  H   H405      1.0  0.55032  0.68543  0.69688  1.0000
  H   H406      1.0  0.84799  0.33151  0.60623  1.0000
  H   H407      1.0  0.74479  0.31859  0.70070  1.0000
  C   C351      1.0  0.69631  0.32905  0.59029  1.0000
  H   H408      1.0  0.95657  0.48868  0.77998  1.0000
  C   C352      1.0  0.98674  0.57318  0.61543  1.0000
  H   H409      1.0  0.54373  0.62524  0.77639  1.0000
  C   C353      1.0  0.90952  0.68682  0.78486  1.0000
  H   H410      1.0  0.91254  0.68976  0.69041  1.0000
  S   S91       1.0  0.55595  0.31039  0.64304  1.0000
  Fe  Fe47      1.0  0.51576  0.24572  0.68556  1.0000
  S   S92       1.0  0.94981  0.42766  0.67255  1.0000
  C   C354      1.0  0.57793  0.56507  0.59291  1.0000
  H   H411      1.0  0.81320  0.24702  0.59251  1.0000
  H   H412      1.0  0.85313  0.62564  0.68097  1.0000
  H   H413      1.0  0.51752  0.64399  0.65462  1.0000
  C   C355      1.0  0.98071  0.47904  0.63901  1.0000
  S   S93       1.0  0.56051  0.41701  0.77379  1.0000
  Fe  Fe48      1.0  0.56941  0.33360  0.73485  1.0000
  C   C356      1.0  0.85195  0.28466  0.74458  1.0000
  S   S94       1.0  0.79842  0.56939  0.76943  1.0000
  H   H414      1.0  0.71874  0.27642  0.79171  1.0000
  C   C357      1.0  0.86273  0.63633  0.72405  1.0000
  C   C358      1.0  0.83048  0.23658  0.73819  1.0000
  Fe  Fe49      1.0  0.77540  0.56785  0.67898  1.0000
  H   H415      1.0  0.73082  0.20663  0.65659  1.0000
  H   H416      1.0  0.67334  0.52525  0.79155  1.0000
  H   H417      1.0  0.89777  0.50350  0.76718  1.0000
  S   S95       1.0  0.72780  0.50515  0.65933  1.0000
  H   H418      1.0  0.87530  0.35573  0.70181  1.0000
  Fe  Fe50      1.0  0.61679  0.25230  0.64411  1.0000
  H   H419      1.0  0.62021  0.40064  0.56642  1.0000
  S   S96       1.0  0.66807  0.22951  0.56763  1.0000
  H   H420      1.0  0.97140  0.34462  0.58193  1.0000
  C   C359      1.0  0.50880  0.44983  0.75794  1.0000
  H   H421      1.0  0.92965  0.39394  0.79691  1.0000
  H   H422      1.0  0.98028  0.60283  0.76461  1.0000
  H   H423      1.0  0.77153  0.46125  0.79587  1.0000
  H   H424      1.0  0.87253  0.41915  0.78886  1.0000
  H   H425      1.0  0.56962  0.44042  0.55382  1.0000
  H   H426      1.0  0.50838  0.58203  0.74326  1.0000
  Fe  Fe51      1.0  0.57513  0.70814  0.03399  1.0000
  H   H427      1.0  0.72863  0.10781  0.98616  1.0000
  C   C360      1.0  0.81328  0.76269  0.83567  1.0000
  S   S97       1.0  0.52384  0.73600  0.97339  1.0000
  H   H428      1.0  0.89973  0.78431  0.95958  1.0000
  H   H429      1.0  0.52083  0.95791  0.83741  1.0000
  S   S98       1.0  0.71192  0.91761  0.94161  1.0000
  H   H430      1.0  0.72376  0.17506  0.01503  1.0000
  C   C361      1.0  0.97258  0.15039  0.00816  1.0000
  C   C362      1.0  0.80876  0.78503  0.94168  1.0000
  H   H431      1.0  0.66722  0.81886  0.95300  1.0000
  H   H432      1.0  0.69119  0.03787  0.03021  1.0000
  C   C363      1.0  0.55347  0.89436  0.94064  1.0000
  C   C364      1.0  0.87434  0.77892  0.99825  1.0000
  H   H433      1.0  0.58776  0.96756  0.87073  1.0000
  C   C365      1.0  0.71839  0.13267  0.02706  1.0000
  H   H434      1.0  0.55671  0.88353  0.89274  1.0000
  H   H435      1.0  0.58535  0.19808  0.94945  1.0000
  C   C366      1.0  0.54760  0.96460  0.01517  1.0000
  H   H436      1.0  0.88256  0.14790  0.82286  1.0000
  H   H437      1.0  0.79927  0.16529  0.04242  1.0000
  S   S99       1.0  0.75405  0.03320  0.83675  1.0000
  C   C367      1.0  0.64815  0.79875  0.86679  1.0000
  N   N23       1.0  0.82958  0.80819  0.99236  1.0000
  C   C368      1.0  0.51594  0.77995  0.84052  1.0000
  C   C369      1.0  0.76604  0.76082  0.94782  1.0000
  C   C370      1.0  0.77208  0.73769  0.84362  1.0000
  C   C371      1.0  0.74866  0.73670  0.89957  1.0000
  H   H438      1.0  0.54517  0.11450  0.94449  1.0000
  S   S100      1.0  0.61710  0.15733  0.82958  1.0000
  C   C372      1.0  0.68650  0.89426  0.83147  1.0000
  H   H439      1.0  0.76758  0.82933  0.04868  1.0000
  H   H440      1.0  0.63387  0.76155  0.88071  1.0000
  H   H441      1.0  0.52465  0.93978  0.04375  1.0000
  Fe  Fe52      1.0  0.87114  0.97005  0.87622  1.0000
  C   C373      1.0  0.68678  0.87863  0.89011  1.0000
  H   H442      1.0  0.95440  0.13481  0.97289  1.0000
  H   H443      1.0  0.61572  0.97265  0.93552  1.0000
  C   C374      1.0  0.66691  0.83133  0.90785  1.0000
  C   C375      1.0  0.88899  0.17604  0.85719  1.0000
  H   H444      1.0  0.89012  0.79317  0.03784  1.0000
  C   C376      1.0  0.98417  0.97142  0.89919  1.0000
  H   H445      1.0  0.71626  0.71797  0.90566  1.0000
  H   H446      1.0  0.52516  0.87194  0.96260  1.0000
  H   H447      1.0  0.74511  0.76000  0.98928  1.0000
  H   H448      1.0  0.80448  0.88850  0.97579  1.0000
  S   S101      1.0  0.81740  0.00705  0.94383  1.0000
  S   S102      1.0  0.80222  0.16007  0.90795  1.0000
  C   C377      1.0  0.52548  0.15230  0.95350  1.0000
  H   H449      1.0  0.58573  0.87931  0.95807  1.0000
  C   C378      1.0  0.93079  0.20070  0.85362  1.0000
  C   C379      1.0  0.83722  0.86561  0.98234  1.0000
  H   H450      1.0  0.85210  0.88477  0.02006  1.0000
  H   H451      1.0  0.94717  0.04325  0.87453  1.0000
  H   H452      1.0  0.95674  0.19040  0.81741  1.0000
  H   H453      1.0  0.57441  0.02507  0.91931  1.0000
  S   S103      1.0  0.86606  0.03834  0.81431  1.0000
  N   N24       1.0  0.54476  0.95300  0.95140  1.0000
  H   H454      1.0  0.86476  0.80243  0.87564  1.0000
  H   H455      1.0  0.86147  0.87116  0.94278  1.0000
  H   H456      1.0  0.87037  0.73494  0.00231  1.0000
  H   H457      1.0  0.97044  0.71205  0.97768  1.0000
  H   H458      1.0  0.58267  0.95532  0.02829  1.0000
  S   S104      1.0  0.93606  0.93265  0.90726  1.0000
  C   C380      1.0  0.58200  0.98085  0.91788  1.0000
  H   H459      1.0  0.80691  0.09668  0.01837  1.0000
  Fe  Fe53      1.0  0.80927  0.07284  0.87930  1.0000
  H   H460      1.0  0.54629  0.79296  0.85855  1.0000
  C   C381      1.0  0.98024  0.02468  0.88157  1.0000
  C   C382      1.0  0.54827  0.19952  0.95581  1.0000
  C   C383      1.0  0.80077  0.80545  0.04947  1.0000
  S   S105      1.0  0.82119  0.92184  0.83212  1.0000
  H   H461      1.0  0.68099  0.13060  0.03941  1.0000
  C   C384      1.0  0.85527  0.18935  0.90385  1.0000
  C   C385      1.0  0.83182  0.78530  0.88394  1.0000
  Fe  Fe54      1.0  0.76700  0.96428  0.89536  1.0000
  H   H462      1.0  0.53862  0.00781  0.02681  1.0000
  C   C386      1.0  0.58620  0.10385  0.80833  1.0000
  H   H463      1.0  0.52226  0.15133  0.82172  1.0000
  H   H464      1.0  0.70154  0.93101  0.81755  1.0000
  C   C387      1.0  0.53960  0.11433  0.80343  1.0000
  C   C388      1.0  0.51862  0.73207  0.80711  1.0000
  H   H465      1.0  0.75820  0.71877  0.80666  1.0000
  C   C389      1.0  0.99973  0.73655  0.97808  1.0000
  H   H466      1.0  0.93711  0.97927  0.04656  1.0000
  C   C390      1.0  0.64802  0.81407  0.80813  1.0000
  H   H467      1.0  0.96260  0.90954  0.14416  1.0000
  H   H468      1.0  0.72283  0.91251  0.14606  1.0000
  H   H469      1.0  0.78681  0.06041  0.16152  1.0000
  H   H470      1.0  0.71001  0.77258  0.17673  1.0000
  C   C391      1.0  0.62967  0.06375  0.20398  1.0000
  H   H471      1.0  0.59817  0.19840  0.26850  1.0000
  H   H472      1.0  0.82703  0.79084  0.24970  1.0000
  H   H473      1.0  0.81693  0.11541  0.09178  1.0000
  Fe  Fe55      1.0  0.80804  0.11862  0.28844  1.0000
  N   N25       1.0  0.74550  0.11577  0.07596  1.0000
  C   C392      1.0  0.72797  0.95279  0.13102  1.0000
  H   H474      1.0  0.99897  0.78369  0.28296  1.0000
  Fe  Fe56      1.0  0.89733  0.73642  0.19342  1.0000
  S   S106      1.0  0.84623  0.13437  0.20109  1.0000
  S   S107      1.0  0.75028  0.06420  0.29578  1.0000
  C   C393      1.0  0.85236  0.20344  0.20203  1.0000
  C   C394      1.0  0.67338  0.81066  0.11236  1.0000
  H   H475      1.0  0.69393  0.14962  0.14227  1.0000
  C   C395      1.0  0.58885  0.03785  0.21365  1.0000
  C   C396      1.0  0.98922  0.93169  0.11844  1.0000
  H   H476      1.0  0.89567  0.93541  0.21569  1.0000
  C   C397      1.0  0.61252  0.87632  0.14585  1.0000
  H   H477      1.0  0.53342  0.01951  0.27772  1.0000
  H   H478      1.0  0.71187  0.88797  0.28196  1.0000
  C   C398      1.0  0.73995  0.05931  0.09298  1.0000
  C   C399      1.0  0.96146  0.06522  0.29469  1.0000
  H   H479      1.0  0.91114  0.17644  0.06264  1.0000
  C   C400      1.0  0.56536  0.03892  0.27022  1.0000
  H   H480      1.0  0.69253  0.78734  0.07655  1.0000
  H   H481      1.0  0.68126  0.94806  0.06464  1.0000
  C   C401      1.0  0.83246  0.83173  0.26137  1.0000
  H   H482      1.0  0.58472  0.90422  0.13623  1.0000
  C   C402      1.0  0.70201  0.78119  0.28852  1.0000
  N   N26       1.0  0.66578  0.82396  0.28084  1.0000
  C   C403      1.0  0.62226  0.86952  0.20415  1.0000
  C   C404      1.0  0.96932  0.81278  0.29646  1.0000
  H   H483      1.0  0.60172  0.89383  0.23796  1.0000
  C   C405      1.0  0.76381  0.03707  0.13890  1.0000
  H   H484      1.0  0.97279  0.84795  0.26744  1.0000
  C   C406      1.0  0.95315  0.09500  0.24558  1.0000
  H   H485      1.0  0.73559  0.79032  0.26530  1.0000
  C   C407      1.0  0.97405  0.01060  0.28796  1.0000
  C   C408      1.0  0.86607  0.85920  0.22903  1.0000
  H   H486      1.0  0.99259  0.91440  0.07260  1.0000
  C   C409      1.0  0.73089  0.15248  0.12740  1.0000
  H   H487      1.0  0.90484  0.98249  0.11819  1.0000
  C   C410      1.0  0.87018  0.91373  0.24099  1.0000
  C   C411      1.0  0.97159  0.19503  0.10326  1.0000
  C   C412      1.0  0.97101  0.01488  0.18063  1.0000
  C   C413      1.0  0.84188  0.94000  0.28715  1.0000
  H   H488      1.0  0.69271  0.74130  0.27205  1.0000
  C   C414      1.0  0.64581  0.09282  0.25021  1.0000
  C   C415      1.0  0.93421  0.99906  0.09130  1.0000
  H   H489      1.0  0.60949  0.77283  0.29434  1.0000
  C   C416      1.0  0.94821  0.17412  0.05849  1.0000
  C   C417      1.0  0.97880  0.98543  0.23188  1.0000
  H   H490      1.0  0.79369  0.76323  0.06019  1.0000
  H   H491      1.0  0.84538  0.98200  0.29653  1.0000
  H   H492      1.0  0.73598  0.19518  0.11664  1.0000
  H   H493      1.0  0.98926  0.94316  0.22981  1.0000
  H   H494      1.0  0.52831  0.16907  0.11991  1.0000
  H   H495      1.0  0.81794  0.82191  0.08690  1.0000
  S   S108      1.0  0.54172  0.75700  0.11204  1.0000
  H   H496      1.0  0.93791  0.79361  0.28596  1.0000
  H   H497      1.0  0.77598  0.96918  0.19349  1.0000
  H   H498      1.0  0.64712  0.06418  0.16007  1.0000
  H   H499      1.0  0.99149  0.74890  0.07246  1.0000
  C   C418      1.0  0.79425  0.12346  0.05656  1.0000
  C   C419      1.0  0.65737  0.83181  0.21848  1.0000
  N   N27       1.0  0.97712  0.99047  0.12019  1.0000
  H   H500      1.0  0.94251  0.13735  0.25121  1.0000
  H   H501      1.0  0.67596  0.11527  0.24185  1.0000
  C   C420      1.0  0.95783  0.07039  0.18943  1.0000
  S   S109      1.0  0.90513  0.82393  0.17744  1.0000
  C   C421      1.0  0.68300  0.80266  0.17055  1.0000
  H   H502      1.0  0.95070  0.09533  0.15299  1.0000
  H   H503      1.0  0.75069  0.14406  0.16566  1.0000
  S   S110      1.0  0.56207  0.01425  0.15366  1.0000
  C   C422      1.0  0.75784  0.98468  0.15757  1.0000
  C   C423      1.0  0.63803  0.84694  0.10004  1.0000
  H   H504      1.0  0.61060  0.17511  0.08896  1.0000
  C   C424      1.0  0.70450  0.97295  0.08527  1.0000
  H   H505      1.0  0.92504  0.04225  0.08490  1.0000
  H   H506      1.0  0.00672  0.06000  0.08066  1.0000
  C   C425      1.0  0.71050  0.02516  0.06592  1.0000
  H   H507      1.0  0.63018  0.85184  0.05491  1.0000
  C   C426      1.0  0.75192  0.72410  0.48545  1.0000
  S   S111      1.0  0.83590  0.18294  0.48832  1.0000
  H   H508      1.0  0.94383  0.02621  0.46081  1.0000
  H   H509      1.0  0.67683  0.00906  0.51026  1.0000
  C   C427      1.0  0.54738  0.03114  0.47533  1.0000
  C   C428      1.0  0.90151  0.94193  0.54864  1.0000
  C   C429      1.0  0.81039  0.91132  0.32202  1.0000
  C   C430      1.0  0.67996  0.87485  0.30643  1.0000
  S   S112      1.0  0.84267  0.07950  0.36046  1.0000
  C   C431      1.0  0.96293  0.78017  0.39576  1.0000
  H   H510      1.0  0.95814  0.08454  0.33814  1.0000
  C   C432      1.0  0.92792  0.86753  0.37529  1.0000
  C   C433      1.0  0.93971  0.06929  0.46773  1.0000
  H   H511      1.0  0.62905  0.79856  0.36123  1.0000
  H   H512      1.0  0.98097  0.98817  0.32664  1.0000
  H   H513      1.0  0.57027  0.00818  0.44286  1.0000
  C   C434      1.0  0.58104  0.06879  0.31611  1.0000
  H   H514      1.0  0.89727  0.76041  0.36628  1.0000
  S   S113      1.0  0.74225  0.08787  0.43897  1.0000
  H   H515      1.0  0.66653  0.10476  0.54238  1.0000
  H   H516      1.0  0.68668  0.87067  0.35340  1.0000
  H   H517      1.0  0.89494  0.85107  0.36629  1.0000
  N   N28       1.0  0.61156  0.05143  0.53856  1.0000
  S   S114      1.0  0.77673  0.94257  0.38159  1.0000
  S   S115      1.0  0.63420  0.84984  0.47480  1.0000
  C   C435      1.0  0.89592  0.09463  0.48033  1.0000
  C   C436      1.0  0.89053  0.15068  0.48532  1.0000
  H   H518      1.0  0.00241  0.17943  0.46379  1.0000
  C   C437      1.0  0.99269  0.71338  0.46223  1.0000
  S   S116      1.0  0.63820  0.13761  0.36186  1.0000
  H   H519      1.0  0.93067  0.90481  0.34952  1.0000
  C   C438      1.0  0.85136  0.82933  0.51472  1.0000
  H   H520      1.0  0.86619  0.07093  0.48388  1.0000
  C   C439      1.0  0.92896  0.18111  0.48207  1.0000
  H   H521      1.0  0.73001  0.84805  0.43159  1.0000
  N   N29       1.0  0.96770  0.82864  0.35975  1.0000
  H   H522      1.0  0.78116  0.83514  0.33582  1.0000
  C   C440      1.0  0.75962  0.77151  0.45546  1.0000
  S   S117      1.0  0.76932  0.18325  0.34685  1.0000
  C   C441      1.0  0.72329  0.80994  0.45128  1.0000
  H   H523      1.0  0.62963  0.11878  0.48573  1.0000
  H   H524      1.0  0.64331  0.02574  0.45194  1.0000
  S   S118      1.0  0.97381  0.86703  0.53522  1.0000
  C   C442      1.0  0.92462  0.74847  0.39251  1.0000
  C   C443      1.0  0.97275  0.15584  0.46844  1.0000
  H   H525      1.0  0.76727  0.92810  0.51208  1.0000
  Fe  Fe57      1.0  0.71431  0.12494  0.36042  1.0000
  C   C444      1.0  0.70739  0.71338  0.50742  1.0000
  C   C445      1.0  0.99619  0.76199  0.43319  1.0000
  H   H526      1.0  0.59574  0.84157  0.31883  1.0000
  C   C446      1.0  0.62311  0.80861  0.31507  1.0000
  H   H527      1.0  0.91075  0.95123  0.50312  1.0000
  C   C447      1.0  0.97790  0.10006  0.45964  1.0000
  H   H528      1.0  0.63677  0.74200  0.51790  1.0000
  C   C448      1.0  0.78612  0.89330  0.52738  1.0000
  H   H529      1.0  0.92544  0.87953  0.42294  1.0000
  H   H530      1.0  0.62792  0.97159  0.50069  1.0000
  H   H531      1.0  0.70776  0.77641  0.33575  1.0000
  H   H532      1.0  0.88339  0.81472  0.49049  1.0000
  H   H533      1.0  0.54475  0.17937  0.33692  1.0000
  C   C449      1.0  0.67101  0.75115  0.50188  1.0000
  C   C450      1.0  0.67906  0.80020  0.47551  1.0000
  C   C451      1.0  0.82652  0.87352  0.49510  1.0000
  H   H534      1.0  0.79392  0.77948  0.43753  1.0000
  H   H535      1.0  0.56130  0.07226  0.35872  1.0000
  C   C452      1.0  0.56288  0.05526  0.52629  1.0000
  Fe  Fe58      1.0  0.78125  0.03059  0.37324  1.0000
  H   H536      1.0  0.83898  0.89325  0.45545  1.0000
  C   C453      1.0  0.63035  0.10496  0.53172  1.0000
  C   C454      1.0  0.64087  0.01267  0.49856  1.0000
  Fe  Fe59      1.0  0.80074  0.14041  0.42007  1.0000
  H   H537      1.0  0.65335  0.90840  0.30601  1.0000
  C   C455      1.0  0.62110  0.09606  0.30604  1.0000
  C   C456      1.0  0.80562  0.85723  0.30904  1.0000
  H   H538      1.0  0.97631  0.93722  0.69456  1.0000
  C   C457      1.0  0.52945  0.08532  0.56506  1.0000
  C   C458      1.0  0.87758  0.91838  0.66664  1.0000
  H   H539      1.0  0.66654  0.87446  0.74547  1.0000
  H   H540      1.0  0.92614  0.04895  0.67828  1.0000
  H   H541      1.0  0.60243  0.98522  0.72966  1.0000
  S   S119      1.0  0.51801  0.85005  0.71229  1.0000
  H   H542      1.0  0.93222  0.85676  0.65423  1.0000
  H   H543      1.0  0.72605  0.75739  0.61016  1.0000
  H   H544      1.0  0.76225  0.10478  0.72115  1.0000
  H   H545      1.0  0.53841  0.10508  0.60458  1.0000
  C   C459      1.0  0.79408  0.82286  0.59990  1.0000
  H   H546      1.0  0.78788  0.72683  0.70643  1.0000
  H   H547      1.0  0.84405  0.00046  0.55957  1.0000
  Fe  Fe60      1.0  0.54071  0.91952  0.65978  1.0000
  S   S120      1.0  0.97515  0.73143  0.61567  1.0000
  C   C460      1.0  0.58472  0.02068  0.75115  1.0000
  H   H548      1.0  0.83880  0.75533  0.67541  1.0000
  N   N30       1.0  0.79561  0.16834  0.67404  1.0000
  C   C461      1.0  0.72829  0.78279  0.65023  1.0000
  S   S121      1.0  0.80516  0.99330  0.67953  1.0000
  C   C462      1.0  0.60860  0.05598  0.78415  1.0000
  H   H549      1.0  0.86006  0.12181  0.66954  1.0000
  S   S122      1.0  0.61370  0.88740  0.64240  1.0000
  Fe  Fe61      1.0  0.59069  0.84874  0.56136  1.0000
  H   H550      1.0  0.65147  0.02496  0.60884  1.0000
  H   H551      1.0  0.73891  0.88597  0.60298  1.0000
  H   H552      1.0  0.97811  0.07610  0.75384  1.0000
  N   N31       1.0  0.99612  0.01794  0.68267  1.0000
  C   C463      1.0  0.66645  0.86239  0.79069  1.0000
  H   H553      1.0  0.61063  0.13616  0.56104  1.0000
  S   S123      1.0  0.62646  0.77112  0.75702  1.0000
  H   H554      1.0  0.59594  0.99797  0.60929  1.0000
  H   H555      1.0  0.00263  0.96435  0.75562  1.0000
  H   H556      1.0  0.84702  0.14953  0.60132  1.0000
  C   C464      1.0  0.97950  0.97439  0.72114  1.0000
  H   H557      1.0  0.71471  0.76002  0.68892  1.0000
  C   C465      1.0  0.51613  0.07936  0.77065  1.0000
  C   C466      1.0  0.95781  0.03713  0.64892  1.0000
  C   C467      1.0  0.53895  0.03411  0.74234  1.0000
  C   C468      1.0  0.80318  0.74707  0.66695  1.0000
  H   H558      1.0  0.96651  0.07308  0.62273  1.0000
  H   H559      1.0  0.75687  0.87371  0.69958  1.0000
  H   H560      1.0  0.85671  0.77009  0.57836  1.0000
  C   C469      1.0  0.00723  0.06337  0.72052  1.0000
  C   C470      1.0  0.77011  0.86866  0.57918  1.0000
  H   H561      1.0  0.64494  0.04827  0.78701  1.0000
  Fe  Fe62      1.0  0.99340  0.74801  0.70732  1.0000
  H   H562      1.0  0.80747  0.13052  0.75643  1.0000
  Fe  Fe63      1.0  0.81155  0.99363  0.77627  1.0000
  C   C471      1.0  0.61530  0.03427  0.59999  1.0000
  C   C472      1.0  0.83561  0.80418  0.56626  1.0000
  H   H563      1.0  0.80474  0.71741  0.62934  1.0000
  S   S124      1.0  0.57605  0.18621  0.68033  1.0000
  H   H564      1.0  0.73775  0.13649  0.63580  1.0000
  S   S125      1.0  0.95070  0.73387  0.79231  1.0000
  H   H565      1.0  0.94908  0.00521  0.61796  1.0000
  Fe  Fe64      1.0  0.58935  0.81457  0.68874  1.0000
  H   H566      1.0  0.75350  0.16980  0.75730  1.0000
  C   C473      1.0  0.77661  0.83506  0.70554  1.0000
  C   C474      1.0  0.91393  0.88894  0.63390  1.0000
  C   C475      1.0  0.77904  0.14271  0.72984  1.0000
  H   H567      1.0  0.76653  0.18295  0.59123  1.0000
  C   C476      1.0  0.83160  0.13154  0.64211  1.0000
  C   C477      1.0  0.85200  0.95814  0.63971  1.0000
  H   H568      1.0  0.76134  0.81816  0.74724  1.0000
  S   S126      1.0  0.57081  0.77355  0.60658  1.0000
  H   H569      1.0  0.60148  0.06577  0.63339  1.0000
  C   C478      1.0  0.75612  0.17412  0.63812  1.0000
  H   H570      1.0  0.86894  0.90956  0.71238  1.0000
  H   H571      1.0  0.83200  0.76305  0.79234  1.0000
  H   H572      1.0  0.81216  0.84513  0.71180  1.0000
  H   H573      1.0  0.94541  0.98531  0.74525  1.0000
  H   H574      1.0  0.81772  0.09322  0.62832  1.0000
  N   N32       1.0  0.77613  0.79711  0.65464  1.0000
  H   H575      1.0  0.70417  0.81850  0.64823  1.0000
  C   C479      1.0  0.86386  0.96983  0.58064  1.0000
  S   S127      1.0  0.51970  0.88775  0.57473  1.0000
  S   S128      1.0  0.50994  0.99920  0.69188  1.0000
  H   H576      1.0  0.55157  0.71020  0.79999  1.0000
  C   C480      1.0  0.92656  0.90140  0.57522  1.0000
