data_image0
_chemical_formula_structural       C3SCHC2H2C2SH3CH4C2FeCHC3HCH2C2SFeHCNHCHCHCHC2NH6CH3CS2C4HSH2CH3C2HFeHC2HFeCHSHCHSCH2SHSH5CNHSCH2FeH5SNCHC2FeHCSFeH2CS2H2CHC2H2C2HSCSH3CH3CH3CFeNCH2C2H2CSCHC2H2C3HC2H3C2H2CFe2CFeH2CH2SH3CSCFeH2CHSH2SHCSHC2NCSH5C2H3CSH3C3HC2HCH2CH2FeCNHNSH2C2NH2C2HSHC2H2CS2CH3CH2SC2HCHNCHCSHFeH2CHFeH2CFeH4CHC3H2SHC5SHSFeH2CHS3HC2H4C2HNH2CS2H2FeH2C2H4CHC2SNHFeHC2SHCHC2FeNCH4C2FeC2H3C3HC4H2SHC3HCH5C3H2FeC3FeH2C2H4CHS2CFeCHFeHSCSHFeH8C2HS2HC3HNH2SC2H2C2HCHFeCSH3SH2S2H4C5S2HCHSC2H2C3H4CNHCH2CNSH4CHC2H2FeSCHNC2H4NSFeHCHC2H3C2SHCHC2HFeCHCSH2FeHC2HCHCH5SHCS2CFeC2H3FeHC2HCSFeC2HC3H3CH4CH2CHCFeCHSCS2CSH3CH3C2HCSHCNCFeCHC2HSH3CNHC2SCHCHCH2C3SFeH3C2SHCHCH3SC6HCH2C3H3CH3CH3CH2CHSCFeHCHCHFeCSH2C2HNSC2H6CHC2SFeHC3FeCNSH2C2HCHCHCHSCHFeCHSCH3SCH2CHCNC2H3C4H2C2H4NCHCH2CHC2HSH2CH2CSCH3S2H3C2H3CFeNC2SHSCH2CFeC2FeCHC6SC3HCH2FeH2SH3CFeH5CH2CNCSC2H3C2H2SCSC2H2SCFeCH4CHC2FeH2CH2FeHCH2SHSHC2H3CSH2CH2C2H3CNFeH5SCHSH2CHS3H2CFeC2H5NC2FeC2HCHCSH2CSC4HC6SC2H4C3H3SC2HSCFeH2NH2CFeC2H2C2HC2H4CSHCH3SHNH2CHCH2C2H2C3HCSHC3SC3H3CHCHCSHFeSCH5FeHFeH4FeC2H6SCH2SCHCHCHC3HC6H4CNCFeH2CSNH3C2H2CHCHC4H2SH2C2H2SCHSHC2SCH2C3HCH4CHCHSHSCH4C2HCH6CH3C2HSCSCHSCHFeCHCSHSH2C2HCH5C8HCH2NC3FeHCH2CHC3HCFeCFeCSCH2CHC2H2FeH6CFeCH2C2H2C2HCSH3FeH2C3HC4HC4NH4C2SHFeH3FeH3CH2SCH3SC2HSCH5C2H2SHCFeC2SHCH2C2HFeH6C4H4CHCSHS2HCHC3H2C2HSC3H3SCH2CH2SFeC2SCNSC4H2CH2CH2CSH2CHFeHC2SFeH5NH2CHC2H2FeHC4HC2SCSHC2H2C2H2CHCSCNC3FeCHCHCFe3HC2HCHSHS2HC2SHCHCSHS2CHC2SHC2S2CHFeNH5CSCH4CSHCHCH4C2HCH3NCHSH3CHFeH2CH2C2H3FeC2HCHC2SH2C2H3FeHNCHCHC3H3C3HC2HCSFeHCHCH2CSHFeHCHSHFeCNHCH3CH5CH2FeSCHNC2NHCHCH2CHSCH4SHC2FeCSH3CH2S2CFeCHCSCSCHCSC2HC3H2CHFeH2CH3C2SCHCSC2HCNHC3SH2C2H2CH2C2H4SCHCH4CHSH2CHS2C3HCFeCH2FeCH3SHC3SH2SHFeHCHNHSHC2HNHCFeHCHCHCHC2SHFeH3CHCH2CHC2HC4HC2HCSH2C2H4CHC2HCH5NCH6SC2HC2S3H3C2HC3H3CHNCHCSH2C2HCFeCH3CHSC2HCH2CHCSCHC2HSHSC2H2SNHNC2SC2HCH5CFeHS2C3H2CSC2HCNFeCHCH4CH2CHCFe2HCSHC2FeCH3CH3CSCH2CHCH3CSCH2CH2CH2SCHCFeC2H2CH4C2FeCFeHC3H3C5SHCHCSNSHC6HFeCH2CSHC4H2C2H3NHFeC3SCHCH3CFeC2SHSH3C4FeNH7CNH4SH2CSHCHSHFeH2C2SH3SC4SH2FeH3C2H2CFeCHFeC2SHCSCHSHC2H4CHCH2CSCHNCH2CH2FeH2C2HC3SC2H2SHC2HCSCH2SFeH4CHCHC3NH2SC2H4SCSH4CSFeC3HCHCH2SC2HFeHC2H2FeC2HSH2NC3HFeHFeC2HCHCH2CHSH2C2H3NC2SHCHC2HC2HCHCFeSH3C2HNH2SHC2H2C5SH2CHCSC3H3SC2HFeH2FeHC5H2CHC2HNCHSCH2SH2CH2CHC2SCH6CHSHFeHC2HSCH2CNHC2SCHC3SHFeCH2NCHCSHSH2CHC2FeHSH2CHCHCSH2CHCHCHC3H2C2HCH2CH2CH2C2SCHC2HC3HFeH2CH2C3S2HFeCHCNH3C2SH5CHC5FeCHCSH2
_chemical_formula_sum              "C960 S256 H1152 Fe128 N64"
_cell_length_a       36.7098
_cell_length_b       40.7054
_cell_length_c       23.636
_cell_angle_alpha    92.8348
_cell_angle_beta     104.008
_cell_angle_gamma    85.4991

_space_group_name_H-M_alt    "P 1"
_space_group_IT_number       1

loop_
  _space_group_symop_operation_xyz
  'x, y, z'

loop_
  _atom_site_type_symbol
  _atom_site_label
  _atom_site_symmetry_multiplicity
  _atom_site_fract_x
  _atom_site_fract_y
  _atom_site_fract_z
  _atom_site_occupancy
  C   C1        1.0  0.47724  0.37955  0.09197  1.0000
  C   C2        1.0  0.31599  0.34234  0.14955  1.0000
  C   C3        1.0  0.16546  0.45071  0.75658  1.0000
  S   S1        1.0  0.43639  0.26746  0.13801  1.0000
  C   C4        1.0  0.62728  0.34621  0.93546  1.0000
  H   H1        1.0  0.22857  0.35607  0.91714  1.0000
  C   C5        1.0  0.22903  0.42590  0.00495  1.0000
  C   C6        1.0  0.30845  0.32538  0.04802  1.0000
  H   H2        1.0  0.51729  0.42223  0.15388  1.0000
  H   H3        1.0  0.65843  0.38646  0.75483  1.0000
  C   C7        1.0  0.18429  0.25018  0.21400  1.0000
  C   C8        1.0  0.26248  0.31194  0.09995  1.0000
  S   S2        1.0  0.44920  0.45557  0.17848  1.0000
  H   H4        1.0  0.27402  0.32748  0.19076  1.0000
  H   H5        1.0  0.46229  0.40305  0.10235  1.0000
  H   H6        1.0  0.36928  0.25944  0.92629  1.0000
  C   C9        1.0  0.44583  0.31410  0.82898  1.0000
  H   H7        1.0  0.59288  0.39275  0.15083  1.0000
  H   H8        1.0  0.42158  0.30788  0.84591  1.0000
  H   H9        1.0  0.25414  0.25360  0.18905  1.0000
  H   H10       1.0  0.62835  0.35068  0.10739  1.0000
  C   C10       1.0  0.33266  0.24948  0.15077  1.0000
  C   C11       1.0  0.62666  0.33531  0.78026  1.0000
  Fe  Fe1       1.0  0.56252  0.24693  0.10854  1.0000
  C   C12       1.0  0.36347  0.26880  0.73574  1.0000
  H   H11       1.0  0.44280  0.37633  0.17796  1.0000
  C   C13       1.0  0.61015  0.40650  0.99892  1.0000
  C   C14       1.0  0.36650  0.26416  0.15566  1.0000
  C   C15       1.0  0.26347  0.47210  0.05166  1.0000
  H   H12       1.0  0.35490  0.45646  0.79897  1.0000
  C   C16       1.0  0.17720  0.23907  0.75470  1.0000
  H   H13       1.0  0.59702  0.34180  0.92975  1.0000
  H   H14       1.0  0.26029  0.29798  0.01059  1.0000
  C   C17       1.0  0.62148  0.28817  0.19735  1.0000
  C   C18       1.0  0.46462  0.46016  0.82595  1.0000
  S   S3        1.0  0.53752  0.23866  0.18318  1.0000
  Fe  Fe2       1.0  0.35247  0.34424  0.87495  1.0000
  H   H15       1.0  0.37061  0.28816  0.17711  1.0000
  C   C19       1.0  0.62423  0.37622  0.02634  1.0000
  N   N1        1.0  0.64601  0.35098  0.99824  1.0000
  H   H16       1.0  0.45368  0.33907  0.84622  1.0000
  C   C20       1.0  0.23940  0.39386  0.98498  1.0000
  H   H17       1.0  0.27430  0.25380  0.94893  1.0000
  C   C21       1.0  0.17927  0.43016  0.91474  1.0000
  H   H18       1.0  0.44222  0.47867  0.81039  1.0000
  C   C22       1.0  0.28321  0.32722  0.15066  1.0000
  H   H19       1.0  0.43586  0.31608  0.78128  1.0000
  C   C23       1.0  0.50620  0.32692  0.12379  1.0000
  C   C24       1.0  0.46004  0.43637  0.86409  1.0000
  N   N2        1.0  0.24837  0.44070  0.06163  1.0000
  H   H20       1.0  0.28934  0.25372  0.85639  1.0000
  H   H21       1.0  0.56582  0.44378  0.09829  1.0000
  H   H22       1.0  0.65871  0.27148  0.74389  1.0000
  H   H23       1.0  0.59890  0.34934  0.77622  1.0000
  H   H24       1.0  0.16804  0.25661  0.78512  1.0000
  H   H25       1.0  0.51455  0.26949  0.92129  1.0000
  C   C25       1.0  0.22122  0.44736  0.09881  1.0000
  H   H26       1.0  0.47145  0.28983  0.93241  1.0000
  H   H27       1.0  0.23520  0.45538  0.14394  1.0000
  H   H28       1.0  0.62908  0.36774  0.90946  1.0000
  C   C26       1.0  0.22036  0.38070  0.93118  1.0000
  S   S4        1.0  0.36449  0.36615  0.09329  1.0000
  S   S5        1.0  0.50692  0.24723  0.04385  1.0000
  C   C27       1.0  0.47268  0.23928  0.77333  1.0000
  C   C28       1.0  0.34677  0.25815  0.95004  1.0000
  C   C29       1.0  0.61786  0.37234  0.08247  1.0000
  C   C30       1.0  0.45726  0.35277  0.16616  1.0000
  H   H29       1.0  0.53242  0.33013  0.10952  1.0000
  S   S6        1.0  0.33019  0.30163  0.81569  1.0000
  H   H30       1.0  0.43263  0.25261  0.88942  1.0000
  H   H31       1.0  0.28068  0.46843  0.01866  1.0000
  C   C31       1.0  0.19842  0.44368  0.96808  1.0000
  H   H32       1.0  0.61532  0.41219  0.95747  1.0000
  H   H33       1.0  0.20967  0.35310  0.16676  1.0000
  H   H34       1.0  0.46439  0.33735  0.20513  1.0000
  C   C32       1.0  0.48965  0.41314  0.88610  1.0000
  C   C33       1.0  0.35610  0.32824  0.73067  1.0000
  H   H35       1.0  0.48937  0.24940  0.74757  1.0000
  Fe  Fe3       1.0  0.42218  0.38146  0.92748  1.0000
  H   H36       1.0  0.19915  0.46691  0.08130  1.0000
  C   C34       1.0  0.27563  0.31037  0.04913  1.0000
  C   C35       1.0  0.46457  0.25625  0.82337  1.0000
  H   H37       1.0  0.18863  0.46788  0.98115  1.0000
  Fe  Fe4       1.0  0.63982  0.46922  0.85381  1.0000
  C   C36       1.0  0.16406  0.38768  0.17430  1.0000
  H   H38       1.0  0.35072  0.47593  0.02299  1.0000
  S   S7        1.0  0.19441  0.29049  0.92574  1.0000
  H   H39       1.0  0.27039  0.39582  0.10560  1.0000
  C   C37       1.0  0.39493  0.24796  0.13287  1.0000
  H   H40       1.0  0.31807  0.32478  0.00836  1.0000
  S   S8        1.0  0.31728  0.37508  0.92533  1.0000
  C   C38       1.0  0.51898  0.37386  0.19156  1.0000
  H   H41       1.0  0.28132  0.48236  0.09254  1.0000
  H   H42       1.0  0.64062  0.32475  0.91500  1.0000
  S   S9        1.0  0.61253  0.24533  0.82821  1.0000
  H   H43       1.0  0.35949  0.25844  0.99799  1.0000
  S   S10       1.0  0.61012  0.47571  0.76015  1.0000
  H   H44       1.0  0.17465  0.38793  0.85565  1.0000
  H   H45       1.0  0.57753  0.45275  0.00159  1.0000
  H   H46       1.0  0.29446  0.43103  0.13703  1.0000
  H   H47       1.0  0.32875  0.28149  0.94075  1.0000
  H   H48       1.0  0.34422  0.35169  0.74360  1.0000
  C   C39       1.0  0.20158  0.37582  0.18734  1.0000
  N   N3        1.0  0.47796  0.28925  0.84350  1.0000
  H   H49       1.0  0.50759  0.31360  0.92303  1.0000
  S   S11       1.0  0.21958  0.29609  0.10027  1.0000
  C   C40       1.0  0.52925  0.40669  0.19033  1.0000
  H   H50       1.0  0.50081  0.38512  0.07268  1.0000
  H   H51       1.0  0.20659  0.42488  0.10219  1.0000
  Fe  Fe5       1.0  0.34443  0.41783  0.90136  1.0000
  H   H52       1.0  0.62238  0.30882  0.02368  1.0000
  H   H53       1.0  0.48576  0.31575  0.08649  1.0000
  H   H54       1.0  0.51265  0.30819  0.15790  1.0000
  H   H55       1.0  0.45642  0.36709  0.05700  1.0000
  H   H56       1.0  0.61949  0.23567  0.20152  1.0000
  S   S12       1.0  0.37654  0.38752  0.84538  1.0000
  N   N4        1.0  0.49053  0.35881  0.14401  1.0000
  C   C41       1.0  0.44117  0.24075  0.85241  1.0000
  H   H57       1.0  0.62597  0.34077  0.20752  1.0000
  C   C42       1.0  0.19032  0.39879  0.89613  1.0000
  C   C43       1.0  0.52379  0.41370  0.86985  1.0000
  Fe  Fe6       1.0  0.18772  0.27704  0.01344  1.0000
  H   H58       1.0  0.54667  0.39576  0.88672  1.0000
  C   C44       1.0  0.49872  0.46082  0.80980  1.0000
  S   S13       1.0  0.40060  0.33590  0.95329  1.0000
  Fe  Fe7       1.0  0.36736  0.37067  0.00096  1.0000
  H   H59       1.0  0.19231  0.44729  0.74517  1.0000
  H   H60       1.0  0.33153  0.35479  0.18841  1.0000
  C   C45       1.0  0.58228  0.42523  0.07872  1.0000
  S   S14       1.0  0.30805  0.46449  0.88248  1.0000
  S   S15       1.0  0.60098  0.28820  0.12243  1.0000
  H   H61       1.0  0.43389  0.43656  0.87749  1.0000
  H   H62       1.0  0.31085  0.26228  0.16836  1.0000
  C   C46       1.0  0.32793  0.34221  0.09768  1.0000
  H   H63       1.0  0.26201  0.37840  0.01022  1.0000
  C   C47       1.0  0.50770  0.29906  0.81598  1.0000
  C   C48       1.0  0.34988  0.29931  0.75517  1.0000
  H   H64       1.0  0.62283  0.30941  0.78916  1.0000
  H   H65       1.0  0.35847  0.24632  0.75428  1.0000
  C   C49       1.0  0.59723  0.39652  0.10803  1.0000
  C   C50       1.0  0.28024  0.41931  0.09465  1.0000
  H   H66       1.0  0.53217  0.28052  0.82335  1.0000
  S   S16       1.0  0.48385  0.38301  0.93299  1.0000
  C   C51       1.0  0.58893  0.43029  0.02436  1.0000
  S   S17       1.0  0.39224  0.41566  0.98068  1.0000
  H   H67       1.0  0.60020  0.24893  0.94172  1.0000
  H   H68       1.0  0.55459  0.43766  0.81867  1.0000
  H   H69       1.0  0.43628  0.33936  0.13297  1.0000
  C   C52       1.0  0.49351  0.29043  0.90768  1.0000
  H   H70       1.0  0.51823  0.32331  0.83387  1.0000
  H   H71       1.0  0.49687  0.30227  0.76814  1.0000
  H   H72       1.0  0.30219  0.41370  0.06968  1.0000
  C   C53       1.0  0.52828  0.43746  0.83155  1.0000
  H   H73       1.0  0.23069  0.47588  0.81786  1.0000
  H   H74       1.0  0.64672  0.34551  0.81911  1.0000
  H   H75       1.0  0.39323  0.47429  0.07959  1.0000
  C   C54       1.0  0.34996  0.48243  0.80854  1.0000
  Fe  Fe8       1.0  0.18375  0.23782  0.89990  1.0000
  N   N5        1.0  0.64105  0.33771  0.72732  1.0000
  C   C55       1.0  0.65614  0.46852  0.17857  1.0000
  H   H76       1.0  0.47741  0.47855  0.08747  1.0000
  H   H77       1.0  0.34858  0.47936  0.09749  1.0000
  C   C56       1.0  0.65025  0.31812  0.02472  1.0000
  C   C57       1.0  0.48242  0.48452  0.18010  1.0000
  H   H78       1.0  0.63312  0.48424  0.15371  1.0000
  H   H79       1.0  0.21911  0.30487  0.21799  1.0000
  C   C58       1.0  0.18807  0.43546  0.62067  1.0000
  S   S18       1.0  0.23922  0.46204  0.48232  1.0000
  C   C59       1.0  0.22423  0.24333  0.31111  1.0000
  H   H80       1.0  0.41075  0.32502  0.53449  1.0000
  C   C60       1.0  0.56236  0.37003  0.28860  1.0000
  C   C61       1.0  0.23745  0.26446  0.54063  1.0000
  H   H81       1.0  0.48345  0.30854  0.31941  1.0000
  H   H82       1.0  0.58654  0.33705  0.66671  1.0000
  C   C62       1.0  0.32990  0.35467  0.36403  1.0000
  C   C63       1.0  0.57153  0.40242  0.28615  1.0000
  C   C64       1.0  0.45215  0.38474  0.48314  1.0000
  H   H83       1.0  0.44140  0.28998  0.28248  1.0000
  C   C65       1.0  0.52758  0.25382  0.34451  1.0000
  C   C66       1.0  0.25385  0.24312  0.23141  1.0000
  H   H84       1.0  0.56290  0.41622  0.46627  1.0000
  H   H85       1.0  0.25308  0.24468  0.33988  1.0000
  H   H86       1.0  0.61267  0.38599  0.70824  1.0000
  C   C67       1.0  0.32496  0.28999  0.39456  1.0000
  C   C68       1.0  0.55423  0.42294  0.55310  1.0000
  H   H87       1.0  0.22125  0.27768  0.64261  1.0000
  H   H88       1.0  0.31444  0.30067  0.62002  1.0000
  C   C69       1.0  0.64188  0.31728  0.29059  1.0000
  Fe  Fe9       1.0  0.45411  0.24915  0.60933  1.0000
  Fe  Fe10      1.0  0.20575  0.41743  0.46102  1.0000
  C   C70       1.0  0.42706  0.42152  0.67408  1.0000
  Fe  Fe11      1.0  0.21545  0.34466  0.43269  1.0000
  H   H89       1.0  0.42659  0.40183  0.47069  1.0000
  H   H90       1.0  0.64753  0.34002  0.31576  1.0000
  C   C71       1.0  0.41787  0.34002  0.50112  1.0000
  H   H91       1.0  0.65249  0.37709  0.67765  1.0000
  H   H92       1.0  0.62541  0.32280  0.63670  1.0000
  S   S19       1.0  0.65704  0.28569  0.39477  1.0000
  H   H93       1.0  0.48669  0.27885  0.41272  1.0000
  H   H94       1.0  0.42541  0.32260  0.46729  1.0000
  H   H95       1.0  0.48712  0.42118  0.70440  1.0000
  C   C72       1.0  0.64138  0.37330  0.71653  1.0000
  S   S20       1.0  0.37219  0.43514  0.37405  1.0000
  C   C73       1.0  0.64503  0.28745  0.31900  1.0000
  Fe  Fe12      1.0  0.35140  0.45853  0.28739  1.0000
  H   H96       1.0  0.26340  0.24259  0.69921  1.0000
  H   H97       1.0  0.57517  0.35578  0.32680  1.0000
  C   C74       1.0  0.48428  0.34037  0.54311  1.0000
  H   H98       1.0  0.53967  0.25340  0.30570  1.0000
  S   S21       1.0  0.46183  0.25738  0.52076  1.0000
  H   H99       1.0  0.32315  0.26481  0.40582  1.0000
  H   H100      1.0  0.53929  0.43613  0.63444  1.0000
  S   S22       1.0  0.58759  0.39136  0.58360  1.0000
  H   H101      1.0  0.59120  0.41351  0.32249  1.0000
  C   C75       1.0  0.38654  0.26757  0.69613  1.0000
  S   S23       1.0  0.25711  0.30274  0.42266  1.0000
  H   H102      1.0  0.50981  0.35467  0.55292  1.0000
  C   C76       1.0  0.44118  0.38128  0.57880  1.0000
  C   C77       1.0  0.54634  0.42903  0.49349  1.0000
  N   N6        1.0  0.44871  0.36173  0.52769  1.0000
  C   C78       1.0  0.49215  0.46541  0.50243  1.0000
  S   S24       1.0  0.43475  0.29724  0.64579  1.0000
  H   H103      1.0  0.19260  0.40961  0.63138  1.0000
  H   H104      1.0  0.48422  0.47323  0.58968  1.0000
  H   H105      1.0  0.42187  0.43653  0.71092  1.0000
  H   H106      1.0  0.45645  0.37138  0.44273  1.0000
  H   H107      1.0  0.33113  0.37949  0.35118  1.0000
  C   C79       1.0  0.16333  0.24288  0.69450  1.0000
  C   C80       1.0  0.61445  0.32291  0.67667  1.0000
  H   H108      1.0  0.41093  0.24309  0.29067  1.0000
  H   H109      1.0  0.48179  0.28427  0.25269  1.0000
  H   H110      1.0  0.22084  0.28663  0.51983  1.0000
  C   C81       1.0  0.35642  0.29851  0.37602  1.0000
  S   S25       1.0  0.45397  0.42135  0.33950  1.0000
  H   H111      1.0  0.25257  0.29955  0.28648  1.0000
  H   H112      1.0  0.26315  0.29886  0.67677  1.0000
  H   H113      1.0  0.25780  0.38409  0.23620  1.0000
  C   C82       1.0  0.50179  0.46141  0.56278  1.0000
  C   C83       1.0  0.47279  0.25908  0.38295  1.0000
  C   C84       1.0  0.28592  0.24286  0.62098  1.0000
  H   H114      1.0  0.48795  0.32331  0.50633  1.0000
  C   C85       1.0  0.39714  0.41120  0.63007  1.0000
  C   C86       1.0  0.53277  0.44013  0.58802  1.0000
  H   H115      1.0  0.47887  0.23557  0.40665  1.0000
  C   C87       1.0  0.46385  0.41257  0.67070  1.0000
  H   H116      1.0  0.37861  0.27984  0.37349  1.0000
  H   H117      1.0  0.39190  0.35408  0.47761  1.0000
  C   C88       1.0  0.47094  0.39278  0.62397  1.0000
  H   H118      1.0  0.33177  0.47267  0.46648  1.0000
  H   H119      1.0  0.32757  0.46336  0.55824  1.0000
  Fe  Fe13      1.0  0.63373  0.37750  0.53734  1.0000
  C   C89       1.0  0.53647  0.35591  0.24219  1.0000
  N   N7        1.0  0.22111  0.25726  0.25328  1.0000
  H   H120      1.0  0.25132  0.25206  0.50753  1.0000
  N   N8        1.0  0.16844  0.47014  0.25779  1.0000
  S   S26       1.0  0.20207  0.38889  0.37664  1.0000
  H   H121      1.0  0.34036  0.48014  0.63128  1.0000
  H   H122      1.0  0.44206  0.26551  0.37519  1.0000
  C   C90       1.0  0.29622  0.31395  0.39900  1.0000
  C   C91       1.0  0.29872  0.34629  0.38356  1.0000
  N   N9        1.0  0.48571  0.25581  0.32807  1.0000
  H   H123      1.0  0.47638  0.40009  0.49962  1.0000
  H   H124      1.0  0.27675  0.36496  0.38658  1.0000
  C   C92       1.0  0.63771  0.25807  0.28674  1.0000
  C   C93       1.0  0.24398  0.29201  0.63425  1.0000
  H   H125      1.0  0.22953  0.31529  0.61452  1.0000
  S   S27       1.0  0.29160  0.47503  0.24578  1.0000
  H   H126      1.0  0.48484  0.32516  0.58124  1.0000
  C   C94       1.0  0.21811  0.42372  0.25034  1.0000
  C   C95       1.0  0.22413  0.29338  0.26093  1.0000
  H   H127      1.0  0.36851  0.41792  0.63305  1.0000
  H   H128      1.0  0.38679  0.34974  0.67671  1.0000
  C   C96       1.0  0.29142  0.29570  0.58114  1.0000
  S   S28       1.0  0.56363  0.24585  0.51510  1.0000
  S   S29       1.0  0.22250  0.37355  0.51724  1.0000
  C   C97       1.0  0.39637  0.29688  0.67717  1.0000
  H   H129      1.0  0.38683  0.47722  0.53772  1.0000
  H   H130      1.0  0.27702  0.31973  0.56546  1.0000
  H   H131      1.0  0.37962  0.38504  0.54948  1.0000
  C   C98       1.0  0.35922  0.33096  0.36126  1.0000
  H   H132      1.0  0.24703  0.44256  0.63421  1.0000
  H   H133      1.0  0.20363  0.30555  0.28433  1.0000
  S   S30       1.0  0.40065  0.34198  0.34391  1.0000
  C   C99       1.0  0.37949  0.32707  0.69179  1.0000
  C   C100      1.0  0.64066  0.47900  0.47377  1.0000
  H   H134      1.0  0.50906  0.45455  0.42201  1.0000
  C   C101      1.0  0.47268  0.28601  0.29436  1.0000
  H   H135      1.0  0.30440  0.28566  0.54544  1.0000
  N   N10       1.0  0.26501  0.27330  0.59520  1.0000
  C   C102      1.0  0.40393  0.39179  0.58263  1.0000
  H   H136      1.0  0.39890  0.24417  0.68384  1.0000
  C   C103      1.0  0.22855  0.39355  0.22576  1.0000
  S   S31       1.0  0.62793  0.38116  0.44107  1.0000
  H   H137      1.0  0.20487  0.25651  0.33549  1.0000
  Fe  Fe14      1.0  0.42422  0.46214  0.38227  1.0000
  H   H138      1.0  0.50006  0.38707  0.62365  1.0000
  H   H139      1.0  0.21726  0.24745  0.54917  1.0000
  C   C104      1.0  0.21866  0.45395  0.62238  1.0000
  H   H140      1.0  0.53878  0.27537  0.37243  1.0000
  Fe  Fe15      1.0  0.40029  0.39590  0.32623  1.0000
  H   H141      1.0  0.60904  0.29714  0.68372  1.0000
  H   H142      1.0  0.28122  0.24838  0.26188  1.0000
  C   C105      1.0  0.51539  0.45038  0.46823  1.0000
  Fe  Fe16      1.0  0.42694  0.44707  0.25637  1.0000
  H   H143      1.0  0.63327  0.45475  0.48177  1.0000
  H   H144      1.0  0.61326  0.24274  0.43856  1.0000
  H   H145      1.0  0.24039  0.43606  0.27993  1.0000
  H   H146      1.0  0.16364  0.47028  0.41275  1.0000
  C   C106      1.0  0.63006  0.31763  0.22943  1.0000
  H   H147      1.0  0.64538  0.26080  0.57403  1.0000
  C   C107      1.0  0.55501  0.42070  0.23712  1.0000
  C   C108      1.0  0.62609  0.25842  0.22605  1.0000
  C   C109      1.0  0.18017  0.43718  0.23619  1.0000
  H   H148      1.0  0.20929  0.46897  0.34064  1.0000
  H   H149      1.0  0.52990  0.33090  0.24654  1.0000
  S   S32       1.0  0.37609  0.41766  0.23905  1.0000
  H   H150      1.0  0.56171  0.44608  0.23558  1.0000
  C   C110      1.0  0.19867  0.48524  0.30277  1.0000
  C   C111      1.0  0.39228  0.69912  0.15843  1.0000
  C   C112      1.0  0.18894  0.67303  0.18523  1.0000
  C   C113      1.0  0.36152  0.53944  0.79770  1.0000
  C   C114      1.0  0.48715  0.58434  0.76540  1.0000
  S   S33       1.0  0.56978  0.55726  0.17418  1.0000
  H   H151      1.0  0.35537  0.63826  0.06301  1.0000
  S   S34       1.0  0.62989  0.57740  0.96329  1.0000
  Fe  Fe17      1.0  0.34773  0.66345  0.89938  1.0000
  H   H152      1.0  0.50312  0.59980  0.17404  1.0000
  H   H153      1.0  0.63745  0.59048  0.10260  1.0000
  C   C115      1.0  0.32091  0.52635  0.85884  1.0000
  H   H154      1.0  0.50206  0.55965  0.77442  1.0000
  S   S35       1.0  0.38592  0.56833  0.77217  1.0000
  S   S36       1.0  0.43467  0.64692  0.83409  1.0000
  S   S37       1.0  0.61595  0.71097  0.96497  1.0000
  H   H155      1.0  0.33869  0.65780  0.12303  1.0000
  C   C116      1.0  0.23706  0.58519  0.95537  1.0000
  C   C117      1.0  0.55322  0.59302  0.93756  1.0000
  H   H156      1.0  0.35275  0.52824  0.14971  1.0000
  H   H157      1.0  0.24082  0.49152  0.03537  1.0000
  H   H158      1.0  0.42095  0.70677  0.18002  1.0000
  H   H159      1.0  0.47203  0.70503  0.81413  1.0000
  C   C118      1.0  0.65868  0.69753  0.01158  1.0000
  C   C119      1.0  0.18504  0.67165  0.87938  1.0000
  H   H160      1.0  0.18035  0.68500  0.96601  1.0000
  N   N11       1.0  0.39417  0.67059  0.11760  1.0000
  H   H161      1.0  0.27903  0.72100  0.13857  1.0000
  H   H162      1.0  0.50515  0.73340  0.03120  1.0000
  C   C120      1.0  0.47163  0.70999  0.76956  1.0000
  S   S38       1.0  0.38857  0.61943  0.92250  1.0000
  S   S39       1.0  0.59306  0.49354  0.88952  1.0000
  H   H163      1.0  0.23526  0.51654  0.84803  1.0000
  H   H164      1.0  0.31975  0.52682  0.98931  1.0000
  Fe  Fe18      1.0  0.56503  0.50314  0.79586  1.0000
  H   H165      1.0  0.55325  0.73356  0.02712  1.0000
  H   H166      1.0  0.39113  0.70077  0.04349  1.0000
  C   C121      1.0  0.16402  0.53806  0.82165  1.0000
  C   C122      1.0  0.45971  0.59096  0.21726  1.0000
  H   H167      1.0  0.47099  0.57773  0.04600  1.0000
  H   H168      1.0  0.37480  0.63282  0.19750  1.0000
  H   H169      1.0  0.21695  0.66770  0.17502  1.0000
  H   H170      1.0  0.20448  0.49833  0.72107  1.0000
  C   C123      1.0  0.40245  0.62605  0.19061  1.0000
  H   H171      1.0  0.53136  0.69916  0.78076  1.0000
  C   C124      1.0  0.29328  0.58048  0.19448  1.0000
  C   C125      1.0  0.27545  0.61553  0.90842  1.0000
  S   S40       1.0  0.48410  0.66046  0.00037  1.0000
  N   N12       1.0  0.36630  0.52311  0.06535  1.0000
  H   H172      1.0  0.43758  0.69213  0.08653  1.0000
  Fe  Fe19      1.0  0.62036  0.54060  0.88832  1.0000
  H   H173      1.0  0.42160  0.51196  0.90627  1.0000
  C   C126      1.0  0.33834  0.54967  0.83496  1.0000
  C   C127      1.0  0.58886  0.60096  0.97032  1.0000
  S   S41       1.0  0.21677  0.54808  0.96027  1.0000
  H   H174      1.0  0.27658  0.71670  0.03330  1.0000
  C   C128      1.0  0.59189  0.62761  0.01053  1.0000
  H   H175      1.0  0.37172  0.56330  0.12939  1.0000
  C   C129      1.0  0.49151  0.49074  0.12768  1.0000
  C   C130      1.0  0.41679  0.64287  0.15033  1.0000
  Fe  Fe20      1.0  0.63689  0.52402  0.76953  1.0000
  N   N13       1.0  0.17979  0.50824  0.79477  1.0000
  C   C131      1.0  0.42214  0.52342  0.94888  1.0000
  H   H176      1.0  0.22444  0.60843  0.03299  1.0000
  H   H177      1.0  0.17890  0.72832  0.04799  1.0000
  H   H178      1.0  0.65279  0.56579  0.16518  1.0000
  H   H179      1.0  0.47393  0.64306  0.72174  1.0000
  C   C132      1.0  0.35534  0.66121  0.09069  1.0000
  C   C133      1.0  0.18868  0.51833  0.74052  1.0000
  Fe  Fe21      1.0  0.59317  0.72045  0.74581  1.0000
  C   C134      1.0  0.40990  0.68135  0.06977  1.0000
  C   C135      1.0  0.44971  0.56057  0.02742  1.0000
  H   H180      1.0  0.55069  0.57242  0.90648  1.0000
  H   H181      1.0  0.49329  0.60512  0.92111  1.0000
  H   H182      1.0  0.56233  0.66598  0.05109  1.0000
  C   C136      1.0  0.26728  0.56003  0.15998  1.0000
  C   C137      1.0  0.16647  0.66108  0.82381  1.0000
  C   C138      1.0  0.36644  0.50592  0.78294  1.0000
  H   H183      1.0  0.33889  0.68076  0.06248  1.0000
  C   C139      1.0  0.27729  0.64057  0.95120  1.0000
  C   C140      1.0  0.51869  0.51278  0.12671  1.0000
  C   C141      1.0  0.16541  0.67699  0.92288  1.0000
  C   C142      1.0  0.44934  0.54539  0.97317  1.0000
  H   H184      1.0  0.40203  0.52628  0.15213  1.0000
  H   H185      1.0  0.18050  0.49380  0.18582  1.0000
  S   S42       1.0  0.34217  0.65697  0.80277  1.0000
  H   H186      1.0  0.18226  0.65600  0.79074  1.0000
  C   C143      1.0  0.55959  0.64559  0.01956  1.0000
  C   C144      1.0  0.23808  0.61061  0.99770  1.0000
  C   C145      1.0  0.36451  0.48675  0.06626  1.0000
  H   H187      1.0  0.30396  0.53417  0.88898  1.0000
  C   C146      1.0  0.25817  0.63840  0.99552  1.0000
  H   H188      1.0  0.18353  0.55833  0.83005  1.0000
  H   H189      1.0  0.24803  0.56922  0.12079  1.0000
  H   H190      1.0  0.61923  0.63464  0.03458  1.0000
  H   H191      1.0  0.46763  0.64425  0.11675  1.0000
  H   H192      1.0  0.32983  0.56490  0.02911  1.0000
  C   C147      1.0  0.25508  0.58814  0.91023  1.0000
  C   C148      1.0  0.32730  0.49280  0.84676  1.0000
  C   C149      1.0  0.32910  0.53788  0.03396  1.0000
  H   H193      1.0  0.24448  0.51255  0.15174  1.0000
  H   H194      1.0  0.64006  0.71156  0.08954  1.0000
  Fe  Fe22      1.0  0.39100  0.68883  0.81687  1.0000
  C   C150      1.0  0.45396  0.63280  0.14565  1.0000
  C   C151      1.0  0.18355  0.72679  0.14248  1.0000
  C   C152      1.0  0.21529  0.49677  0.83599  1.0000
  Fe  Fe23      1.0  0.16215  0.55003  0.98780  1.0000
  H   H195      1.0  0.47007  0.55079  0.94975  1.0000
  H   H196      1.0  0.38404  0.49809  0.75344  1.0000
  C   C153      1.0  0.53687  0.52894  0.17808  1.0000
  C   C154      1.0  0.50513  0.70669  0.75059  1.0000
  H   H197      1.0  0.41345  0.66039  0.03903  1.0000
  H   H198      1.0  0.25303  0.56942  0.87602  1.0000
  H   H199      1.0  0.49075  0.71901  0.92654  1.0000
  H   H200      1.0  0.50653  0.60275  0.78970  1.0000
  C   C155      1.0  0.42300  0.55366  0.05783  1.0000
  H   H201      1.0  0.53798  0.72223  0.92376  1.0000
  S   S43       1.0  0.62733  0.68239  0.80511  1.0000
  S   S44       1.0  0.29457  0.62102  0.17597  1.0000
  C   C156      1.0  0.52076  0.61149  0.94589  1.0000
  Fe  Fe24      1.0  0.38627  0.61534  0.82639  1.0000
  C   C157      1.0  0.43777  0.72017  0.73109  1.0000
  H   H202      1.0  0.17631  0.64897  0.18455  1.0000
  Fe  Fe25      1.0  0.62517  0.71989  0.87712  1.0000
  H   H203      1.0  0.18126  0.67138  0.06958  1.0000
  S   S45       1.0  0.58881  0.55250  0.79713  1.0000
  C   C158      1.0  0.26532  0.52799  0.17745  1.0000
  S   S46       1.0  0.39266  0.69911  0.91109  1.0000
  H   H204      1.0  0.37477  0.49932  0.95819  1.0000
  Fe  Fe26      1.0  0.43311  0.65472  0.92758  1.0000
  H   H205      1.0  0.25946  0.65777  0.02877  1.0000
  H   H206      1.0  0.37853  0.69345  0.19361  1.0000
  H   H207      1.0  0.20660  0.53977  0.74870  1.0000
  H   H208      1.0  0.42494  0.56615  0.09953  1.0000
  H   H209      1.0  0.21476  0.67573  0.88874  1.0000
  H   H210      1.0  0.46228  0.58510  0.78465  1.0000
  H   H211      1.0  0.28919  0.61758  0.87321  1.0000
  H   H212      1.0  0.33413  0.57555  0.84586  1.0000
  C   C159      1.0  0.39540  0.51634  0.97898  1.0000
  C   C160      1.0  0.52402  0.63757  0.98744  1.0000
  H   H213      1.0  0.37595  0.72082  0.13565  1.0000
  S   S47       1.0  0.39665  0.72768  0.75622  1.0000
  S   S48       1.0  0.30248  0.67500  0.94800  1.0000
  H   H214      1.0  0.66135  0.55179  0.09485  1.0000
  C   C161      1.0  0.39516  0.53097  0.03465  1.0000
  C   C162      1.0  0.37379  0.53587  0.12681  1.0000
  C   C163      1.0  0.47491  0.60716  0.17869  1.0000
  H   H215      1.0  0.20996  0.48866  0.87735  1.0000
  N   N14       1.0  0.16450  0.69610  0.14299  1.0000
  H   H216      1.0  0.30667  0.53446  0.05711  1.0000
  H   H217      1.0  0.52523  0.51768  0.08576  1.0000
  S   S49       1.0  0.50483  0.49135  0.76379  1.0000
  C   C164      1.0  0.66092  0.57337  0.12555  1.0000
  C   C165      1.0  0.30112  0.50596  0.40289  1.0000
  H   H218      1.0  0.60253  0.57365  0.62222  1.0000
  H   H219      1.0  0.41088  0.73234  0.64223  1.0000
  C   C166      1.0  0.43866  0.57516  0.43833  1.0000
  C   C167      1.0  0.50147  0.67873  0.51575  1.0000
  H   H220      1.0  0.59173  0.50397  0.49645  1.0000
  C   C168      1.0  0.48956  0.65597  0.54830  1.0000
  H   H221      1.0  0.27415  0.72183  0.46544  1.0000
  Fe  Fe27      1.0  0.59799  0.59601  0.38464  1.0000
  C   C169      1.0  0.29093  0.64511  0.60279  1.0000
  S   S50       1.0  0.17888  0.59541  0.59897  1.0000
  H   H222      1.0  0.48625  0.66300  0.59163  1.0000
  H   H223      1.0  0.47186  0.58815  0.35483  1.0000
  H   H224      1.0  0.46980  0.72599  0.60851  1.0000
  S   S51       1.0  0.59340  0.57210  0.46576  1.0000
  H   H225      1.0  0.62974  0.72809  0.41162  1.0000
  H   H226      1.0  0.51488  0.68764  0.43445  1.0000
  S   S52       1.0  0.54985  0.61201  0.31087  1.0000
  S   S53       1.0  0.26117  0.65084  0.65112  1.0000
  H   H227      1.0  0.58387  0.62824  0.66225  1.0000
  H   H228      1.0  0.40262  0.49375  0.61017  1.0000
  H   H229      1.0  0.53083  0.56326  0.50653  1.0000
  H   H230      1.0  0.41984  0.57338  0.68308  1.0000
  C   C170      1.0  0.48900  0.57223  0.38978  1.0000
  C   C171      1.0  0.51017  0.58603  0.67884  1.0000
  C   C172      1.0  0.20884  0.49719  0.46385  1.0000
  C   C173      1.0  0.55538  0.55054  0.63767  1.0000
  C   C174      1.0  0.51244  0.71961  0.30854  1.0000
  S   S54       1.0  0.29664  0.70160  0.25934  1.0000
  S   S55       1.0  0.40091  0.48948  0.29969  1.0000
  H   H231      1.0  0.20406  0.58015  0.49001  1.0000
  C   C175      1.0  0.31743  0.56905  0.24593  1.0000
  H   H232      1.0  0.47602  0.57112  0.24262  1.0000
  S   S56       1.0  0.22320  0.72038  0.35236  1.0000
  C   C176      1.0  0.45037  0.70174  0.30497  1.0000
  C   C177      1.0  0.52276  0.55465  0.65861  1.0000
  H   H233      1.0  0.31357  0.57454  0.52371  1.0000
  H   H234      1.0  0.45184  0.63130  0.64735  1.0000
  C   C178      1.0  0.34920  0.54052  0.60911  1.0000
  C   C179      1.0  0.32733  0.48651  0.58517  1.0000
  C   C180      1.0  0.48864  0.69424  0.30726  1.0000
  H   H235      1.0  0.24822  0.53076  0.51222  1.0000
  H   H236      1.0  0.44321  0.56654  0.62503  1.0000
  H   H237      1.0  0.32075  0.55083  0.61261  1.0000
  H   H238      1.0  0.50249  0.63280  0.39344  1.0000
  C   C181      1.0  0.22034  0.52828  0.48506  1.0000
  N   N15       1.0  0.47923  0.58004  0.44663  1.0000
  H   H239      1.0  0.61824  0.67747  0.66037  1.0000
  C   C182      1.0  0.60763  0.64988  0.55343  1.0000
  H   H240      1.0  0.24826  0.65921  0.52635  1.0000
  H   H241      1.0  0.43148  0.55025  0.41926  1.0000
  C   C183      1.0  0.38592  0.49998  0.56555  1.0000
  N   N16       1.0  0.47603  0.59035  0.70207  1.0000
  S   S57       1.0  0.63204  0.57106  0.32595  1.0000
  H   H242      1.0  0.61277  0.62350  0.56532  1.0000
  H   H243      1.0  0.17342  0.52631  0.57499  1.0000
  H   H244      1.0  0.28013  0.58743  0.42544  1.0000
  H   H245      1.0  0.65176  0.49090  0.26121  1.0000
  C   C184      1.0  0.52826  0.52252  0.23099  1.0000
  H   H246      1.0  0.23632  0.50104  0.60677  1.0000
  C   C185      1.0  0.32670  0.52206  0.50559  1.0000
  C   C186      1.0  0.32121  0.49801  0.45927  1.0000
  H   H247      1.0  0.40091  0.51849  0.54827  1.0000
  H   H248      1.0  0.42984  0.62632  0.70613  1.0000
  Fe  Fe28      1.0  0.58651  0.59059  0.25286  1.0000
  S   S58       1.0  0.33246  0.70452  0.39859  1.0000
  C   C187      1.0  0.50152  0.55609  0.48940  1.0000
  H   H249      1.0  0.48366  0.54627  0.37470  1.0000
  N   N17       1.0  0.63970  0.66950  0.58317  1.0000
  C   C188      1.0  0.17603  0.50132  0.58913  1.0000
  C   C189      1.0  0.48193  0.62424  0.52534  1.0000
  H   H250      1.0  0.60204  0.65105  0.50515  1.0000
  H   H251      1.0  0.36455  0.56079  0.59795  1.0000
  H   H252      1.0  0.49422  0.49517  0.27272  1.0000
  H   H253      1.0  0.45549  0.54134  0.68916  1.0000
  N   N18       1.0  0.34689  0.51270  0.56544  1.0000
  S   S59       1.0  0.61398  0.63768  0.24968  1.0000
  Fe  Fe29      1.0  0.31107  0.64757  0.26190  1.0000
  H   H254      1.0  0.43223  0.68207  0.30392  1.0000
  C   C190      1.0  0.31145  0.55466  0.49154  1.0000
  H   H255      1.0  0.33957  0.63071  0.67058  1.0000
  C   C191      1.0  0.19515  0.55613  0.47307  1.0000
  C   C192      1.0  0.29171  0.56242  0.43487  1.0000
  H   H256      1.0  0.50741  0.70327  0.53399  1.0000
  H   H257      1.0  0.58112  0.65897  0.56586  1.0000
  H   H258      1.0  0.33475  0.52807  0.30225  1.0000
  C   C193      1.0  0.21261  0.48686  0.60701  1.0000
  C   C194      1.0  0.62614  0.53816  0.47026  1.0000
  S   S60       1.0  0.54624  0.70908  0.66882  1.0000
  H   H259      1.0  0.16252  0.52578  0.70750  1.0000
  C   C195      1.0  0.28635  0.53810  0.39071  1.0000
  H   H260      1.0  0.27065  0.54419  0.34702  1.0000
  C   C196      1.0  0.35315  0.63006  0.58662  1.0000
  C   C197      1.0  0.61737  0.50689  0.48280  1.0000
  H   H261      1.0  0.29724  0.49456  0.58192  1.0000
  Fe  Fe30      1.0  0.27656  0.69496  0.33950  1.0000
  C   C198      1.0  0.56627  0.60789  0.65957  1.0000
  H   H262      1.0  0.27433  0.71658  0.62719  1.0000
  C   C199      1.0  0.53363  0.61234  0.68032  1.0000
  S   S61       1.0  0.56060  0.71111  0.31348  1.0000
  H   H263      1.0  0.49962  0.66890  0.30797  1.0000
  H   H264      1.0  0.47223  0.60753  0.55174  1.0000
  Fe  Fe31      1.0  0.19950  0.64625  0.61296  1.0000
  H   H265      1.0  0.29119  0.65149  0.45994  1.0000
  C   C200      1.0  0.45736  0.62416  0.69358  1.0000
  C   C201      1.0  0.43714  0.72562  0.67283  1.0000
  H   H266      1.0  0.54273  0.53462  0.27099  1.0000
  C   C202      1.0  0.62929  0.70439  0.56698  1.0000
  H   H267      1.0  0.51939  0.57486  0.39335  1.0000
  C   C203      1.0  0.47042  0.72159  0.65349  1.0000
  H   H268      1.0  0.62806  0.70765  0.52008  1.0000
  H   H269      1.0  0.18869  0.50934  0.32012  1.0000
  H   H270      1.0  0.48917  0.55377  0.52740  1.0000
  H   H271      1.0  0.42971  0.57737  0.48010  1.0000
  H   H272      1.0  0.38226  0.62177  0.60346  1.0000
  S   S62       1.0  0.36973  0.65124  0.31700  1.0000
  H   H273      1.0  0.56472  0.52631  0.62303  1.0000
  C   C204      1.0  0.32896  0.63505  0.62448  1.0000
  S   S63       1.0  0.62590  0.64309  0.39136  1.0000
  S   S64       1.0  0.36949  0.62671  0.47944  1.0000
  C   C205      1.0  0.44763  0.56684  0.67328  1.0000
  Fe  Fe32      1.0  0.58078  0.65777  0.31324  1.0000
  C   C206      1.0  0.33963  0.63570  0.52708  1.0000
  C   C207      1.0  0.57689  0.57720  0.63755  1.0000
  H   H274      1.0  0.36434  0.53284  0.65378  1.0000
  H   H275      1.0  0.50837  0.53269  0.66038  1.0000
  H   H276      1.0  0.50365  0.53081  0.46989  1.0000
  Fe  Fe33      1.0  0.35390  0.70545  0.31792  1.0000
  H   H277      1.0  0.33700  0.58510  0.27330  1.0000
  C   C208      1.0  0.50450  0.71261  0.69254  1.0000
  C   C209      1.0  0.27741  0.65094  0.54328  1.0000
  H   H278      1.0  0.42085  0.59383  0.40899  1.0000
  C   C210      1.0  0.30186  0.64669  0.50565  1.0000
  S   S65       1.0  0.28627  0.64023  0.33780  1.0000
  Fe  Fe34      1.0  0.34353  0.64985  0.39348  1.0000
  C   C211      1.0  0.50582  0.66983  0.45997  1.0000
  C   C212      1.0  0.49854  0.63803  0.43674  1.0000
  H   H279      1.0  0.60145  0.71316  0.57529  1.0000
  C   C213      1.0  0.50079  0.50036  0.23198  1.0000
  C   C214      1.0  0.48662  0.61412  0.46910  1.0000
  C   C215      1.0  0.31639  0.53670  0.26208  1.0000
  H   H280      1.0  0.22281  0.49053  0.28462  1.0000
  H   H281      1.0  0.64945  0.64136  0.66060  1.0000
  H   H282      1.0  0.41165  0.58775  0.25320  1.0000
  C   C216      1.0  0.64396  0.66733  0.64683  1.0000
  H   H283      1.0  0.52778  0.63642  0.69872  1.0000
  H   H284      1.0  0.19387  0.68267  0.23106  1.0000
  H   H285      1.0  0.42516  0.73168  0.48653  1.0000
  H   H286      1.0  0.64976  0.72147  0.59279  1.0000
  C   C217      1.0  0.65922  0.54171  0.45269  1.0000
  H   H287      1.0  0.64276  0.72881  0.28713  1.0000
  H   H288      1.0  0.65675  0.61492  0.51287  1.0000
  C   C218      1.0  0.43575  0.73457  0.30256  1.0000
  H   H289      1.0  0.65010  0.69604  0.33714  1.0000
  C   C219      1.0  0.42353  0.60035  0.22321  1.0000
  Fe  Fe35      1.0  0.65699  0.61958  0.32793  1.0000
  C   C220      1.0  0.17237  0.49410  0.42981  1.0000
  H   H290      1.0  0.29674  0.48699  0.36860  1.0000
  S   S66       1.0  0.16488  0.66443  0.52681  1.0000
  C   C221      1.0  0.29067  0.51607  0.22756  1.0000
  S   S67       1.0  0.44899  0.48606  0.46955  1.0000
  S   S68       1.0  0.33011  0.88411  0.83061  1.0000
  C   C222      1.0  0.26374  0.93577  0.13390  1.0000
  S   S69       1.0  0.40751  0.93401  0.79809  1.0000
  H   H291      1.0  0.50210  0.74670  0.87586  1.0000
  H   H292      1.0  0.60359  0.87463  0.90619  1.0000
  H   H293      1.0  0.49507  0.78275  0.75810  1.0000
  C   C223      1.0  0.56112  0.88748  0.79998  1.0000
  H   H294      1.0  0.21428  0.81181  0.82674  1.0000
  H   H295      1.0  0.59802  0.84020  0.14017  1.0000
  H   H296      1.0  0.31374  0.81908  0.75842  1.0000
  C   C224      1.0  0.49088  0.80553  0.78234  1.0000
  C   C225      1.0  0.38203  0.93663  0.14124  1.0000
  H   H297      1.0  0.31626  0.83423  0.91618  1.0000
  C   C226      1.0  0.17718  0.97315  0.05043  1.0000
  S   S70       1.0  0.64681  0.83068  0.81753  1.0000
  H   H298      1.0  0.52927  0.90428  0.92228  1.0000
  C   C227      1.0  0.29191  0.73578  0.06039  1.0000
  N   N19       1.0  0.54730  0.87823  0.85073  1.0000
  C   C228      1.0  0.32818  0.78365  0.06940  1.0000
  Fe  Fe36      1.0  0.27628  0.97015  0.81970  1.0000
  C   C229      1.0  0.45118  0.84238  0.82818  1.0000
  H   H299      1.0  0.20276  0.92651  0.94009  1.0000
  C   C230      1.0  0.31091  0.76431  0.15398  1.0000
  C   C231      1.0  0.45009  0.91148  0.72335  1.0000
  H   H300      1.0  0.20591  0.93061  0.72527  1.0000
  S   S71       1.0  0.33185  0.96058  0.88339  1.0000
  H   H301      1.0  0.65888  0.85120  0.20885  1.0000
  H   H302      1.0  0.47380  0.91500  0.75961  1.0000
  H   H303      1.0  0.39847  0.83613  0.19760  1.0000
  C   C232      1.0  0.44364  0.77683  0.92374  1.0000
  N   N20       1.0  0.51409  0.76434  0.96527  1.0000
  H   H304      1.0  0.21142  0.86689  0.87137  1.0000
  C   C233      1.0  0.65012  0.86404  0.16834  1.0000
  C   C234      1.0  0.21558  0.77376  0.19628  1.0000
  S   S72       1.0  0.21049  0.77347  0.93315  1.0000
  C   C235      1.0  0.19262  0.82953  0.80548  1.0000
  H   H305      1.0  0.51444  0.92449  0.85318  1.0000
  C   C236      1.0  0.17534  0.85724  0.14949  1.0000
  H   H306      1.0  0.39360  0.81396  0.12885  1.0000
  C   C237      1.0  0.51543  0.85684  0.83121  1.0000
  H   H307      1.0  0.55224  0.80335  0.99333  1.0000
  H   H308      1.0  0.44531  0.85643  0.02140  1.0000
  C   C238      1.0  0.19112  0.93366  0.97708  1.0000
  C   C239      1.0  0.23183  0.83243  0.98771  1.0000
  C   C240      1.0  0.16447  0.76278  0.76823  1.0000
  S   S73       1.0  0.47624  0.97568  0.21729  1.0000
  Fe  Fe37      1.0  0.63881  0.77649  0.80780  1.0000
  H   H309      1.0  0.22634  0.95261  0.18783  1.0000
  H   H310      1.0  0.24590  0.91659  0.11235  1.0000
  H   H311      1.0  0.36992  0.91619  0.11145  1.0000
  C   C241      1.0  0.32821  0.84846  0.13113  1.0000
  C   C242      1.0  0.62648  0.89839  0.06487  1.0000
  S   S74       1.0  0.55714  0.87455  0.03780  1.0000
  H   H312      1.0  0.16310  0.90954  0.82503  1.0000
  C   C243      1.0  0.33961  0.81025  0.74375  1.0000
  H   H313      1.0  0.39762  0.79217  0.19485  1.0000
  C   C244      1.0  0.19992  0.86048  0.20438  1.0000
  H   H314      1.0  0.37697  0.97858  0.05476  1.0000
  H   H315      1.0  0.21129  0.77807  0.05219  1.0000
  H   H316      1.0  0.31052  0.76514  0.19961  1.0000
  S   S75       1.0  0.64300  0.74363  0.73036  1.0000
  C   C245      1.0  0.51975  0.82712  0.79859  1.0000
  C   C246      1.0  0.19111  0.86106  0.83131  1.0000
  C   C247      1.0  0.31061  0.75750  0.03580  1.0000
  C   C248      1.0  0.32216  0.96404  0.14785  1.0000
  C   C249      1.0  0.48008  0.86386  0.84550  1.0000
  C   C250      1.0  0.54378  0.78510  0.95684  1.0000
  H   H317      1.0  0.33691  0.84995  0.08961  1.0000
  C   C251      1.0  0.32746  0.78866  0.12904  1.0000
  H   H318      1.0  0.34153  0.80033  0.04787  1.0000
  H   H319      1.0  0.56211  0.92486  0.89487  1.0000
  C   C252      1.0  0.41059  0.79692  0.92155  1.0000
  C   C253      1.0  0.45668  0.81311  0.79723  1.0000
  C   C254      1.0  0.25258  0.95614  0.17649  1.0000
  H   H320      1.0  0.57007  0.77006  0.95453  1.0000
  H   H321      1.0  0.54581  0.82023  0.78610  1.0000
  H   H322      1.0  0.63805  0.82960  0.01133  1.0000
  C   C255      1.0  0.18888  0.73976  0.09052  1.0000
  H   H323      1.0  0.36335  0.82418  0.76925  1.0000
  H   H324      1.0  0.47371  0.88608  0.86929  1.0000
  H   H325      1.0  0.31037  0.75440  0.98985  1.0000
  C   C256      1.0  0.19681  0.74511  0.19520  1.0000
  H   H326      1.0  0.23549  0.80761  0.14543  1.0000
  H   H327      1.0  0.29685  0.85027  0.12114  1.0000
  H   H328      1.0  0.16862  0.88615  0.97596  1.0000
  C   C257      1.0  0.60378  0.87522  0.07802  1.0000
  H   H329      1.0  0.25501  0.95483  0.95798  1.0000
  H   H330      1.0  0.24966  0.87864  0.02973  1.0000
  C   C258      1.0  0.25543  0.85866  0.00064  1.0000
  H   H331      1.0  0.53194  0.76836  0.05941  1.0000
  S   S76       1.0  0.31387  0.89298  0.98758  1.0000
  C   C259      1.0  0.47780  0.81385  0.99765  1.0000
  Fe  Fe38      1.0  0.34875  0.93207  0.80894  1.0000
  H   H332      1.0  0.57337  0.86601  0.77839  1.0000
  C   C260      1.0  0.17190  0.91027  0.99746  1.0000
  H   H333      1.0  0.50299  0.82133  0.02830  1.0000
  C   C261      1.0  0.23948  0.80644  0.95038  1.0000
  H   H334      1.0  0.38565  0.84135  0.95422  1.0000
  Fe  Fe39      1.0  0.27430  0.89962  0.77229  1.0000
  C   C262      1.0  0.47845  0.78483  0.96185  1.0000
  S   S77       1.0  0.24517  0.87225  0.20867  1.0000
  H   H335      1.0  0.18480  0.86142  0.11071  1.0000
  H   H336      1.0  0.43444  0.79622  0.78469  1.0000
  C   C263      1.0  0.16688  0.82093  0.75277  1.0000
  C   C264      1.0  0.38517  0.81491  0.17100  1.0000
  H   H337      1.0  0.44114  0.75524  0.89493  1.0000
  N   N21       1.0  0.35801  0.96783  0.13121  1.0000
  S   S78       1.0  0.29460  0.94498  0.74362  1.0000
  C   C265      1.0  0.41119  0.82558  0.95651  1.0000
  C   C266      1.0  0.57844  0.85994  0.89163  1.0000
  H   H338      1.0  0.23025  0.78038  0.75387  1.0000
  H   H339      1.0  0.38438  0.79021  0.89233  1.0000
  H   H340      1.0  0.56965  0.85329  0.93106  1.0000
  H   H341      1.0  0.20793  0.83218  0.00694  1.0000
  H   H342      1.0  0.27620  0.78685  0.89647  1.0000
  H   H343      1.0  0.18718  0.76255  0.80898  1.0000
  C   C267      1.0  0.44475  0.83402  0.99442  1.0000
  H   H344      1.0  0.58397  0.90480  0.81295  1.0000
  C   C268      1.0  0.25242  0.97925  0.98005  1.0000
  C   C269      1.0  0.53765  0.90927  0.88143  1.0000
  S   S79       1.0  0.25221  0.92552  0.84355  1.0000
  Fe  Fe40      1.0  0.53923  0.92655  0.05801  1.0000
  H   H345      1.0  0.33774  0.87100  0.15748  1.0000
  C   C270      1.0  0.35048  0.97544  0.06848  1.0000
  C   C271      1.0  0.28576  0.85939  0.97461  1.0000
  C   C272      1.0  0.29305  0.83365  0.93673  1.0000
  Fe  Fe41      1.0  0.30941  0.91346  0.90018  1.0000
  C   C273      1.0  0.27573  0.98027  0.20538  1.0000
  N   N22       1.0  0.34375  0.81788  0.16271  1.0000
  S   S80       1.0  0.55965  0.94248  0.15159  1.0000
  H   H346      1.0  0.38602  0.92878  0.18697  1.0000
  H   H347      1.0  0.33646  0.95553  0.03951  1.0000
  C   C274      1.0  0.22090  0.78543  0.14475  1.0000
  C   C275      1.0  0.27038  0.80689  0.92555  1.0000
  H   H348      1.0  0.42436  0.84872  0.83895  1.0000
  C   C276      1.0  0.20728  0.76868  0.09209  1.0000
  H   H349      1.0  0.19504  0.97416  0.88772  1.0000
  C   C277      1.0  0.41368  0.91999  0.72969  1.0000
  H   H350      1.0  0.53415  0.79875  0.91571  1.0000
  C   C278      1.0  0.52659  0.74943  0.02337  1.0000
  H   H351      1.0  0.34615  0.78409  0.75596  1.0000
  S   S81       1.0  0.56029  0.97029  0.02466  1.0000
  C   C279      1.0  0.19422  0.96592  0.00274  1.0000
  H   H352      1.0  0.41047  0.93931  0.13376  1.0000
  Fe  Fe42      1.0  0.50273  0.96781  0.14192  1.0000
  C   C280      1.0  0.31016  0.98403  0.19179  1.0000
  H   H353      1.0  0.30573  0.92273  0.08770  1.0000
  S   S82       1.0  0.48034  0.94845  0.05061  1.0000
  C   C281      1.0  0.29810  0.93939  0.12018  1.0000
  H   H354      1.0  0.58798  0.83656  0.87182  1.0000
  H   H355      1.0  0.53821  0.89975  0.76641  1.0000
  H   H356      1.0  0.61691  0.91252  0.02586  1.0000
  S   S83       1.0  0.58633  0.75598  0.81876  1.0000
  C   C282      1.0  0.61594  0.85749  0.12914  1.0000
  H   H357      1.0  0.26884  0.97704  0.02576  1.0000
  H   H358      1.0  0.48574  0.90433  0.20037  1.0000
  C   C283      1.0  0.29315  0.73845  0.11967  1.0000
  H   H359      1.0  0.65577  0.77009  0.02324  1.0000
  C   C284      1.0  0.66085  0.90457  0.10357  1.0000
  N   N23       1.0  0.16946  0.78724  0.72668  1.0000
  C   C285      1.0  0.16377  0.88497  0.80546  1.0000
  C   C286      1.0  0.51077  0.73704  0.92064  1.0000
  H   H360      1.0  0.47514  0.97791  0.76597  1.0000
  H   H361      1.0  0.16456  0.73720  0.74924  1.0000
  H   H362      1.0  0.30488  0.82265  0.21838  1.0000
  C   C287      1.0  0.58832  0.95792  0.29646  1.0000
  C   C288      1.0  0.27259  0.74311  0.62335  1.0000
  C   C289      1.0  0.26657  0.74691  0.45157  1.0000
  C   C290      1.0  0.64969  0.88659  0.68068  1.0000
  H   H363      1.0  0.62747  0.94098  0.43850  1.0000
  H   H364      1.0  0.39271  0.81581  0.68190  1.0000
  C   C291      1.0  0.50250  0.79743  0.61666  1.0000
  C   C292      1.0  0.45582  0.89779  0.67055  1.0000
  H   H365      1.0  0.17314  0.77322  0.49642  1.0000
  H   H366      1.0  0.64406  0.91213  0.58116  1.0000
  H   H367      1.0  0.63820  0.78449  0.59637  1.0000
  H   H368      1.0  0.51611  0.77214  0.30742  1.0000
  N   N24       1.0  0.33371  0.81446  0.68013  1.0000
  C   C293      1.0  0.64612  0.80014  0.56629  1.0000
  H   H369      1.0  0.49527  0.77085  0.45506  1.0000
  C   C294      1.0  0.64073  0.75014  0.39715  1.0000
  H   H370      1.0  0.32628  0.85544  0.62297  1.0000
  H   H371      1.0  0.26538  0.83757  0.60497  1.0000
  C   C295      1.0  0.46688  0.79604  0.57870  1.0000
  H   H372      1.0  0.27649  0.90451  0.54062  1.0000
  C   C296      1.0  0.42231  0.80728  0.43006  1.0000
  C   C297      1.0  0.24799  0.81160  0.41505  1.0000
  H   H373      1.0  0.19032  0.94925  0.37519  1.0000
  S   S84       1.0  0.48742  0.95132  0.58462  1.0000
  H   H374      1.0  0.55413  0.92012  0.35019  1.0000
  H   H375      1.0  0.18219  0.92482  0.28290  1.0000
  C   C298      1.0  0.49782  0.75241  0.30652  1.0000
  H   H376      1.0  0.63795  0.87142  0.64090  1.0000
  H   H377      1.0  0.20771  0.85536  0.29695  1.0000
  C   C299      1.0  0.20697  0.78024  0.71388  1.0000
  S   S85       1.0  0.41406  0.86126  0.32675  1.0000
  C   C300      1.0  0.45946  0.75987  0.30296  1.0000
  H   H378      1.0  0.39291  0.95532  0.55697  1.0000
  H   H379      1.0  0.36482  0.89869  0.59259  1.0000
  H   H380      1.0  0.24089  0.83654  0.40059  1.0000
  S   S86       1.0  0.26157  0.90285  0.37861  1.0000
  S   S87       1.0  0.56567  0.95131  0.54307  1.0000
  H   H381      1.0  0.55694  0.77335  0.52279  1.0000
  H   H382      1.0  0.39370  0.74773  0.42177  1.0000
  H   H383      1.0  0.41298  0.93082  0.35078  1.0000
  C   C301      1.0  0.62472  0.94003  0.39042  1.0000
  C   C302      1.0  0.28532  0.77288  0.48413  1.0000
  H   H384      1.0  0.36562  0.79042  0.47140  1.0000
  H   H385      1.0  0.56233  0.78998  0.62648  1.0000
  H   H386      1.0  0.65111  0.94870  0.38317  1.0000
  C   C303      1.0  0.62087  0.82583  0.53996  1.0000
  Fe  Fe43      1.0  0.54798  0.93704  0.62238  1.0000
  N   N25       1.0  0.59098  0.96025  0.36018  1.0000
  C   C304      1.0  0.18856  0.91866  0.68768  1.0000
  C   C305      1.0  0.18841  0.85370  0.25452  1.0000
  S   S88       1.0  0.32050  0.84434  0.34975  1.0000
  H   H387      1.0  0.58351  0.93235  0.27862  1.0000
  S   S89       1.0  0.35314  0.90438  0.44122  1.0000
  C   C306      1.0  0.26865  0.81138  0.61208  1.0000
  H   H388      1.0  0.36357  0.98048  0.37987  1.0000
  H   H389      1.0  0.22203  0.87445  0.48685  1.0000
  C   C307      1.0  0.22918  0.78563  0.38250  1.0000
  Fe  Fe44      1.0  0.50460  0.96252  0.50378  1.0000
  C   C308      1.0  0.45636  0.88461  0.25879  1.0000
  C   C309      1.0  0.38856  0.90200  0.62937  1.0000
  Fe  Fe45      1.0  0.55632  0.89946  0.51026  1.0000
  C   C310      1.0  0.49627  0.77786  0.50013  1.0000
  H   H390      1.0  0.30737  0.76779  0.52283  1.0000
  C   C311      1.0  0.17579  0.87109  0.62219  1.0000
  C   C312      1.0  0.42179  0.75010  0.45205  1.0000
  C   C313      1.0  0.21799  0.89999  0.50092  1.0000
  C   C314      1.0  0.17626  0.94830  0.50830  1.0000
  C   C315      1.0  0.16537  0.96676  0.35965  1.0000
  C   C316      1.0  0.44392  0.94998  0.29464  1.0000
  S   S90       1.0  0.38800  0.74485  0.29837  1.0000
  C   C317      1.0  0.39302  0.79227  0.50414  1.0000
  C   C318      1.0  0.23914  0.79296  0.58184  1.0000
  C   C319      1.0  0.20667  0.96609  0.54097  1.0000
  H   H391      1.0  0.39260  0.81822  0.52149  1.0000
  C   C320      1.0  0.24312  0.94954  0.55132  1.0000
  H   H392      1.0  0.46146  0.85921  0.24546  1.0000
  H   H393      1.0  0.63689  0.94697  0.62856  1.0000
  Fe  Fe46      1.0  0.30782  0.86916  0.42973  1.0000
  H   H394      1.0  0.44414  0.80188  0.40500  1.0000
  H   H395      1.0  0.22564  0.78719  0.23723  1.0000
  S   S91       1.0  0.59943  0.87681  0.46420  1.0000
  H   H396      1.0  0.39479  0.80645  0.39754  1.0000
  H   H397      1.0  0.19257  0.73753  0.23607  1.0000
  H   H398      1.0  0.44307  0.80370  0.59666  1.0000
  C   C321      1.0  0.30135  0.79600  0.64863  1.0000
  Fe  Fe47      1.0  0.48374  0.89960  0.54864  1.0000
  H   H399      1.0  0.37558  0.77562  0.67199  1.0000
  H   H400      1.0  0.21892  0.74427  0.56272  1.0000
  H   H401      1.0  0.34580  0.84537  0.24364  1.0000
  H   H402      1.0  0.35482  0.92375  0.68633  1.0000
  H   H403      1.0  0.55899  0.94270  0.41687  1.0000
  C   C322      1.0  0.19863  0.88644  0.67069  1.0000
  H   H404      1.0  0.48407  0.89089  0.66616  1.0000
  H   H405      1.0  0.22058  0.97521  0.30837  1.0000
  C   C323      1.0  0.33561  0.82198  0.22120  1.0000
  N   N26       1.0  0.42553  0.78404  0.47759  1.0000
  C   C324      1.0  0.24854  0.91693  0.53168  1.0000
  S   S92       1.0  0.49605  0.91177  0.46395  1.0000
  C   C325      1.0  0.53483  0.78885  0.59678  1.0000
  C   C326      1.0  0.32913  0.85031  0.66974  1.0000
  H   H406      1.0  0.56447  0.97441  0.27259  1.0000
  H   H407      1.0  0.61434  0.96432  0.28465  1.0000
  H   H408      1.0  0.20434  0.98250  0.64961  1.0000
  C   C327      1.0  0.55720  0.94553  0.36978  1.0000
  C   C328      1.0  0.53173  0.77924  0.53852  1.0000
  H   H409      1.0  0.61707  0.76135  0.36322  1.0000
  H   H410      1.0  0.59338  0.82977  0.54914  1.0000
  S   S93       1.0  0.43278  0.87607  0.55792  1.0000
  C   C329      1.0  0.63093  0.84576  0.50044  1.0000
  S   S94       1.0  0.54343  0.88391  0.59289  1.0000
  C   C330      1.0  0.18207  0.91581  0.48871  1.0000
  C   C331      1.0  0.23928  0.75321  0.39996  1.0000
  H   H411      1.0  0.20823  0.79062  0.34246  1.0000
  H   H412      1.0  0.39296  0.77524  0.53940  1.0000
  S   S95       1.0  0.32168  0.91817  0.30248  1.0000
  C   C332      1.0  0.42503  0.89254  0.62386  1.0000
  Fe  Fe48      1.0  0.30740  0.93696  0.38574  1.0000
  C   C333      1.0  0.36789  0.80171  0.66109  1.0000
  H   H413      1.0  0.50502  0.80558  0.66164  1.0000
  H   H414      1.0  0.44257  0.74300  0.42569  1.0000
  H   H415      1.0  0.35005  0.80213  0.25078  1.0000
  H   H416      1.0  0.42495  0.83319  0.44753  1.0000
  C   C334      1.0  0.43494  0.89225  0.30006  1.0000
  H   H417      1.0  0.36316  0.80348  0.61294  1.0000
  C   C335      1.0  0.38295  0.91633  0.68214  1.0000
  C   C336      1.0  0.47026  0.91001  0.23359  1.0000
  Fe  Fe49      1.0  0.36280  0.88184  0.35657  1.0000
  H   H418      1.0  0.64860  0.80861  0.37190  1.0000
  H   H419      1.0  0.41962  0.97884  0.48305  1.0000
  C   C337      1.0  0.24118  0.75884  0.58721  1.0000
  H   H420      1.0  0.64717  0.76752  0.43557  1.0000
  H   H421      1.0  0.30441  0.86229  0.68318  1.0000
  Fe  Fe50      1.0  0.27907  0.88160  0.29938  1.0000
  H   H422      1.0  0.44828  0.78534  0.30102  1.0000
  C   C338      1.0  0.46345  0.94274  0.25115  1.0000
  H   H423      1.0  0.53079  0.96052  0.35030  1.0000
  H   H424      1.0  0.21528  0.80555  0.55283  1.0000
  S   S96       1.0  0.23887  0.86480  0.71109  1.0000
  H   H425      1.0  0.43977  0.97512  0.30952  1.0000
  S   S97       1.0  0.30344  0.83697  0.50110  1.0000
  H   H426      1.0  0.20945  0.75562  0.69192  1.0000
  C   C339      1.0  0.30223  0.76131  0.65374  1.0000
  C   C340      1.0  0.27646  0.80516  0.46533  1.0000
  H   H427      1.0  0.26767  0.96155  0.57527  1.0000
  H   H428      1.0  0.62557  0.90052  0.69376  1.0000
  H   H429      1.0  0.21234  0.79915  0.68499  1.0000
  C   C341      1.0  0.42893  0.92490  0.31818  1.0000
  S   S98       1.0  0.57293  0.95338  0.71530  1.0000
  H   H430      1.0  0.35366  0.86291  0.69575  1.0000
  H   H431      1.0  0.18325  0.84621  0.60887  1.0000
  C   C342      1.0  0.46269  0.78600  0.51914  1.0000
  H   H432      1.0  0.32610  0.74778  0.68071  1.0000
  H   H433      1.0  0.62337  0.91363  0.37580  1.0000
  C   C343      1.0  0.65826  0.92828  0.61809  1.0000
  C   C344      1.0  0.38624  0.98106  0.54635  1.0000
  H   H434      1.0  0.51740  0.16677  0.82620  1.0000
  H   H435      1.0  0.63854  0.05408  0.98802  1.0000
  H   H436      1.0  0.52104  0.01651  0.73921  1.0000
  C   C345      1.0  0.20253  0.21236  0.77524  1.0000
  N   N27       1.0  0.32456  0.22889  0.93089  1.0000
  Fe  Fe51      1.0  0.50259  0.99346  0.02323  1.0000
  H   H437      1.0  0.41120  0.19797  0.85775  1.0000
  H   H438      1.0  0.17032  0.12222  0.06901  1.0000
  H   H439      1.0  0.52814  0.10229  0.96001  1.0000
  H   H440      1.0  0.40394  0.11104  0.96654  1.0000
  H   H441      1.0  0.59839  0.11031  0.74837  1.0000
  S   S99       1.0  0.18200  0.22346  0.98930  1.0000
  C   C346      1.0  0.64133  0.19108  0.73688  1.0000
  H   H442      1.0  0.38033  0.12993  0.82138  1.0000
  S   S100      1.0  0.47147  0.02327  0.94750  1.0000
  H   H443      1.0  0.51794  0.03612  0.80636  1.0000
  H   H444      1.0  0.63149  0.17447  0.76537  1.0000
  C   C347      1.0  0.64383  0.02586  0.77200  1.0000
  H   H445      1.0  0.59816  0.10580  0.05043  1.0000
  S   S101      1.0  0.33846  0.11580  0.10661  1.0000
  S   S102      1.0  0.19250  0.06327  0.13624  1.0000
  S   S103      1.0  0.50865  0.16963  0.94530  1.0000
  H   H446      1.0  0.56124  0.21852  0.98774  1.0000
  H   H447      1.0  0.20631  0.07641  0.75094  1.0000
  C   C348      1.0  0.62763  0.09885  0.83625  1.0000
  Fe  Fe52      1.0  0.48315  0.23478  0.11768  1.0000
  C   C349      1.0  0.40689  0.16384  0.97259  1.0000
  C   C350      1.0  0.32699  0.21857  0.12303  1.0000
  H   H448      1.0  0.55761  0.19742  0.77888  1.0000
  H   H449      1.0  0.17297  0.14239  0.95515  1.0000
  H   H450      1.0  0.30827  0.01417  0.76814  1.0000
  H   H451      1.0  0.53338  0.05979  0.93523  1.0000
  H   H452      1.0  0.47863  0.06408  0.85108  1.0000
  N   N28       1.0  0.58544  0.08343  0.96385  1.0000
  C   C351      1.0  0.21522  0.19031  0.73590  1.0000
  C   C352      1.0  0.43203  0.09937  0.84033  1.0000
  Fe  Fe53      1.0  0.32686  0.08927  0.18029  1.0000
  C   C353      1.0  0.34951  0.13642  0.93734  1.0000
  C   C354      1.0  0.19265  0.99614  0.91670  1.0000
  H   H453      1.0  0.55479  0.11722  0.13542  1.0000
  C   C355      1.0  0.60794  0.05216  0.98261  1.0000
  H   H454      1.0  0.36398  0.01897  0.15870  1.0000
  C   C356      1.0  0.20066  0.10210  0.87935  1.0000
  S   S104      1.0  0.21717  0.20508  0.84969  1.0000
  H   H455      1.0  0.47600  0.09360  0.20338  1.0000
  H   H456      1.0  0.33503  0.11392  0.92663  1.0000
  C   C357      1.0  0.53667  0.19039  0.91043  1.0000
  S   S105      1.0  0.30383  0.05806  0.96455  1.0000
  C   C358      1.0  0.28986  0.03459  0.74808  1.0000
  C   C359      1.0  0.37998  0.99460  0.16467  1.0000
  C   C360      1.0  0.62414  0.09191  0.89188  1.0000
  C   C361      1.0  0.45944  0.20822  0.75525  1.0000
  H   H457      1.0  0.22802  0.02100  0.05631  1.0000
  C   C362      1.0  0.30834  0.23101  0.86719  1.0000
  C   C363      1.0  0.38978  0.21676  0.10587  1.0000
  C   C364      1.0  0.42506  0.03290  0.95317  1.0000
  C   C365      1.0  0.62114  0.99950  0.77111  1.0000
  C   C366      1.0  0.56025  0.10730  0.80361  1.0000
  C   C367      1.0  0.50430  0.03590  0.75900  1.0000
  S   S106      1.0  0.24093  0.01783  0.81043  1.0000
  C   C368      1.0  0.58245  0.23087  0.91626  1.0000
  C   C369      1.0  0.34688  0.19699  0.94262  1.0000
  H   H458      1.0  0.40614  0.99742  0.15006  1.0000
  H   H459      1.0  0.22871  0.04115  0.99114  1.0000
  H   H460      1.0  0.65893  0.20919  0.76565  1.0000
  H   H461      1.0  0.43905  0.03556  0.04722  1.0000
  C   C370      1.0  0.35893  0.04324  0.90651  1.0000
  C   C371      1.0  0.39614  0.03592  0.90252  1.0000
  C   C372      1.0  0.44139  0.05807  0.76472  1.0000
  H   H462      1.0  0.63814  0.15106  0.16487  1.0000
  H   H463      1.0  0.45554  0.05502  0.20618  1.0000
  H   H464      1.0  0.52835  0.10353  0.86614  1.0000
  S   S107      1.0  0.29161  0.05339  0.12122  1.0000
  C   C373      1.0  0.54625  0.07899  0.96732  1.0000
  C   C374      1.0  0.57588  0.10262  0.16587  1.0000
  H   H465      1.0  0.40272  0.21601  0.97644  1.0000
  S   S108      1.0  0.24680  0.11618  0.04801  1.0000
  C   C375      1.0  0.59570  0.10585  0.79188  1.0000
  Fe  Fe54      1.0  0.51960  0.19264  0.03533  1.0000
  H   H466      1.0  0.20362  0.01670  0.89796  1.0000
  H   H467      1.0  0.41184  0.20411  0.08856  1.0000
  N   N29       1.0  0.21286  0.99080  0.97811  1.0000
  H   H468      1.0  0.17661  0.14876  0.79303  1.0000
  H   H469      1.0  0.16946  0.16367  0.88957  1.0000
  C   C376      1.0  0.38448  0.09584  0.75027  1.0000
  Fe  Fe55      1.0  0.54830  0.18501  0.16544  1.0000
  C   C377      1.0  0.35570  0.20211  0.10065  1.0000
  C   C378      1.0  0.42819  0.20966  0.83406  1.0000
  H   H470      1.0  0.29900  0.16664  0.91094  1.0000
  H   H471      1.0  0.53565  0.11419  0.76938  1.0000
  C   C379      1.0  0.32905  0.16689  0.92881  1.0000
  C   C380      1.0  0.64409  0.04078  0.71993  1.0000
  H   H472      1.0  0.35118  0.17879  0.07732  1.0000
  C   C381      1.0  0.58713  0.07054  0.14988  1.0000
  C   C382      1.0  0.35058  0.04829  0.96107  1.0000
  H   H473      1.0  0.26630  0.99661  0.95818  1.0000
  H   H474      1.0  0.20374  0.07935  0.85225  1.0000
  H   H475      1.0  0.54481  0.07097  0.01093  1.0000
  H   H476      1.0  0.33653  0.04506  0.86724  1.0000
  C   C383      1.0  0.53564  0.18457  0.85127  1.0000
  S   S109      1.0  0.49141  0.17992  0.10487  1.0000
  H   H477      1.0  0.20495  0.22352  0.14327  1.0000
  C   C384      1.0  0.18081  0.23216  0.15999  1.0000
  H   H478      1.0  0.47018  0.00434  0.82703  1.0000
  H   H479      1.0  0.18447  0.03448  0.00686  1.0000
  H   H480      1.0  0.65532  0.09823  0.82738  1.0000
  S   S110      1.0  0.51945  0.01481  0.11371  1.0000
  H   H481      1.0  0.33238  0.99870  0.05874  1.0000
  N   N30       1.0  0.46376  0.02942  0.74632  1.0000
  H   H482      1.0  0.23493  0.16969  0.75170  1.0000
  H   H483      1.0  0.64981  0.08698  0.92478  1.0000
  C   C385      1.0  0.55644  0.10065  0.85936  1.0000
  H   H484      1.0  0.33078  0.23137  0.84298  1.0000
  C   C386      1.0  0.39744  0.11044  0.80534  1.0000
  H   H485      1.0  0.59929  0.03166  0.95036  1.0000
  H   H486      1.0  0.50799  0.05998  0.74166  1.0000
  C   C387      1.0  0.25590  0.04290  0.76386  1.0000
  C   C388      1.0  0.43746  0.19338  0.78572  1.0000
  H   H487      1.0  0.62214  0.98711  0.81095  1.0000
  H   H488      1.0  0.29128  0.20998  0.84907  1.0000
  C   C389      1.0  0.29346  0.23146  0.96139  1.0000
  C   C390      1.0  0.60011  0.11046  0.00536  1.0000
  C   C391      1.0  0.23273  0.07004  0.73919  1.0000
  H   H489      1.0  0.57483  0.06038  0.10720  1.0000
  C   C392      1.0  0.58157  0.22516  0.85748  1.0000
  S   S111      1.0  0.28303  0.20214  0.11326  1.0000
  H   H490      1.0  0.21696  0.09686  0.92449  1.0000
  C   C393      1.0  0.56017  0.21352  0.94254  1.0000
  C   C394      1.0  0.37955  0.04599  0.01190  1.0000
  C   C395      1.0  0.58837  0.09156  0.90477  1.0000
  S   S112      1.0  0.57748  0.19317  0.09522  1.0000
  C   C396      1.0  0.45339  0.07325  0.82082  1.0000
  C   C397      1.0  0.55807  0.20212  0.82449  1.0000
  C   C398      1.0  0.61451  0.05165  0.18894  1.0000
  H   H491      1.0  0.44191  0.11029  0.88363  1.0000
  H   H492      1.0  0.63016  0.11381  0.00728  1.0000
  H   H493      1.0  0.17764  0.99702  0.07247  1.0000
  C   C399      1.0  0.41675  0.03771  0.00796  1.0000
  H   H494      1.0  0.37324  0.05021  0.05415  1.0000
  C   C400      1.0  0.38832  0.13484  0.95955  1.0000
  H   H495      1.0  0.42406  0.15176  0.19949  1.0000
  C   C401      1.0  0.21345  0.02331  0.00952  1.0000
  S   S113      1.0  0.27721  0.12272  0.18974  1.0000
  H   H496      1.0  0.29640  0.19123  0.73545  1.0000
  Fe  Fe56      1.0  0.24252  0.08851  0.12540  1.0000
  S   S114      1.0  0.62745  0.01124  0.16951  1.0000
  C   C402      1.0  0.38664  0.19457  0.96453  1.0000
  H   H497      1.0  0.42789  0.16912  0.77195  1.0000
  H   H498      1.0  0.21533  0.12168  0.86450  1.0000
  H   H499      1.0  0.60489  0.04452  0.02576  1.0000
  H   H500      1.0  0.43719  0.16250  0.98930  1.0000
  H   H501      1.0  0.40227  0.03179  0.86014  1.0000
  Fe  Fe57      1.0  0.28637  0.14721  0.11201  1.0000
  H   H502      1.0  0.27547  0.21031  0.95188  1.0000
  Fe  Fe58      1.0  0.29833  0.08293  0.04833  1.0000
  H   H503      1.0  0.58418  0.13442  0.99212  1.0000
  H   H504      1.0  0.35712  0.10395  0.72367  1.0000
  H   H505      1.0  0.32679  0.00293  0.21610  1.0000
  H   H506      1.0  0.38869  0.98978  0.21217  1.0000
  Fe  Fe59      1.0  0.57558  0.98818  0.11809  1.0000
  C   C403      1.0  0.40603  0.07010  0.72991  1.0000
  C   C404      1.0  0.45962  0.00045  0.77911  1.0000
  H   H507      1.0  0.16771  0.12826  0.17776  1.0000
  H   H508      1.0  0.42949  0.99519  0.77172  1.0000
  H   H509      1.0  0.30433  0.23304  0.00945  1.0000
  H   H510      1.0  0.16326  0.08389  0.95296  1.0000
  H   H511      1.0  0.16210  0.16710  0.21653  1.0000
  H   H512      1.0  0.16234  0.00247  0.91348  1.0000
  S   S115      1.0  0.48379  0.01005  0.45888  1.0000
  C   C405      1.0  0.59438  0.99490  0.38200  1.0000
  H   H513      1.0  0.39714  0.01390  0.32642  1.0000
  H   H514      1.0  0.45135  0.04249  0.65593  1.0000
  S   S116      1.0  0.17680  0.12614  0.56879  1.0000
  C   C406      1.0  0.34063  0.18979  0.44232  1.0000
  H   H515      1.0  0.57439  0.17690  0.54370  1.0000
  C   C407      1.0  0.41406  0.19717  0.24499  1.0000
  H   H516      1.0  0.39998  0.10208  0.56328  1.0000
  C   C408      1.0  0.49242  0.09558  0.59296  1.0000
  H   H517      1.0  0.62224  0.21908  0.62411  1.0000
  C   C409      1.0  0.63794  0.15051  0.65854  1.0000
  C   C410      1.0  0.24289  0.08804  0.69705  1.0000
  C   C411      1.0  0.39234  0.02727  0.48935  1.0000
  H   H518      1.0  0.29235  0.17656  0.47051  1.0000
  C   C412      1.0  0.35338  0.03380  0.55892  1.0000
  C   C413      1.0  0.36879  0.10521  0.54734  1.0000
  C   C414      1.0  0.61416  0.21852  0.45580  1.0000
  C   C415      1.0  0.57491  0.04314  0.43716  1.0000
  C   C416      1.0  0.47424  0.12054  0.34223  1.0000
  C   C417      1.0  0.49195  0.20118  0.27259  1.0000
  H   H519      1.0  0.62922  0.13065  0.68199  1.0000
  H   H520      1.0  0.26664  0.04917  0.33732  1.0000
  H   H521      1.0  0.21918  0.04846  0.55507  1.0000
  H   H522      1.0  0.17085  0.08394  0.26940  1.0000
  C   C418      1.0  0.29997  0.05253  0.70595  1.0000
  N   N31       1.0  0.20146  0.00016  0.56420  1.0000
  C   C419      1.0  0.47725  0.04835  0.32107  1.0000
  Fe  Fe60      1.0  0.23670  0.12101  0.56087  1.0000
  H   H523      1.0  0.51864  0.01391  0.58207  1.0000
  H   H524      1.0  0.16362  0.13694  0.32950  1.0000
  C   C420      1.0  0.27615  0.07886  0.67971  1.0000
  S   S117      1.0  0.40092  0.20681  0.40315  1.0000
  N   N32       1.0  0.35528  0.08222  0.49739  1.0000
  H   H525      1.0  0.22496  0.10893  0.67814  1.0000
  H   H526      1.0  0.52224  0.20088  0.28226  1.0000
  H   H527      1.0  0.46049  0.07868  0.44726  1.0000
  C   C421      1.0  0.34961  0.00254  0.35849  1.0000
  C   C422      1.0  0.19427  0.99117  0.29259  1.0000
  H   H528      1.0  0.49674  0.04407  0.36438  1.0000
  H   H529      1.0  0.30247  0.06755  0.44463  1.0000
  C   C423      1.0  0.54698  0.14190  0.36831  1.0000
  H   H530      1.0  0.29925  0.08079  0.28057  1.0000
  C   C424      1.0  0.46464  0.07802  0.23154  1.0000
  H   H531      1.0  0.36128  0.13132  0.53492  1.0000
  C   C425      1.0  0.31365  0.08614  0.47924  1.0000
  C   C426      1.0  0.47427  0.10047  0.53437  1.0000
  C   C427      1.0  0.51898  0.15988  0.38924  1.0000
  C   C428      1.0  0.40131  0.99435  0.50464  1.0000
  H   H532      1.0  0.39401  0.05954  0.68733  1.0000
  H   H533      1.0  0.17022  0.98902  0.38904  1.0000
  S   S118      1.0  0.28941  0.98984  0.40058  1.0000
  H   H534      1.0  0.24762  0.99669  0.64140  1.0000
  H   H535      1.0  0.64918  0.18229  0.25270  1.0000
  C   C429      1.0  0.45159  0.02082  0.68301  1.0000
  C   C430      1.0  0.16543  0.13983  0.22038  1.0000
  H   H536      1.0  0.55232  0.99678  0.43393  1.0000
  H   H537      1.0  0.20993  0.02565  0.64816  1.0000
  S   S119      1.0  0.49342  0.12789  0.64571  1.0000
  C   C431      1.0  0.48875  0.04310  0.51011  1.0000
  H   H538      1.0  0.61864  0.04306  0.62808  1.0000
  S   S120      1.0  0.42347  0.20325  0.58081  1.0000
  H   H539      1.0  0.36092  0.07564  0.40902  1.0000
  C   C432      1.0  0.35565  0.19390  0.39429  1.0000
  C   C433      1.0  0.59151  0.11547  0.22160  1.0000
  S   S121      1.0  0.37213  0.06969  0.25451  1.0000
  C   C434      1.0  0.31303  0.01282  0.36234  1.0000
  H   H540      1.0  0.31443  0.23159  0.55046  1.0000
  H   H541      1.0  0.40479  0.03570  0.45620  1.0000
  C   C435      1.0  0.65232  0.21932  0.62964  1.0000
  C   C436      1.0  0.36951  0.09233  0.44763  1.0000
  C   C437      1.0  0.32446  0.18290  0.66571  1.0000
  H   H542      1.0  0.19730  0.01457  0.31928  1.0000
  C   C438      1.0  0.35018  0.04908  0.29875  1.0000
  H   H543      1.0  0.25288  0.01562  0.54730  1.0000
  H   H544      1.0  0.34584  0.19078  0.30069  1.0000
  H   H545      1.0  0.35696  0.19499  0.48586  1.0000
  H   H546      1.0  0.34783  0.18073  0.59067  1.0000
  C   C439      1.0  0.17465  0.21982  0.65520  1.0000
  H   H547      1.0  0.56208  0.10042  0.32022  1.0000
  C   C440      1.0  0.63071  0.06480  0.24421  1.0000
  H   H548      1.0  0.30332  0.11099  0.46199  1.0000
  S   S122      1.0  0.51137  0.22289  0.63897  1.0000
  H   H549      1.0  0.65426  0.19713  0.40917  1.0000
  S   S123      1.0  0.65964  0.05661  0.54699  1.0000
  C   C441      1.0  0.28160  0.23026  0.67392  1.0000
  H   H550      1.0  0.44968  0.05821  0.32865  1.0000
  H   H551      1.0  0.47201  0.02398  0.29901  1.0000
  H   H552      1.0  0.25369  0.21589  0.22513  1.0000
  H   H553      1.0  0.64574  0.06159  0.37793  1.0000
  C   C442      1.0  0.60076  0.06178  0.42111  1.0000
  C   C443      1.0  0.62457  0.04721  0.38790  1.0000
  H   H554      1.0  0.57498  0.15067  0.37693  1.0000
  C   C444      1.0  0.57207  0.01008  0.41868  1.0000
  H   H555      1.0  0.42331  0.01085  0.67154  1.0000
  H   H556      1.0  0.40046  0.09267  0.45898  1.0000
  H   H557      1.0  0.54804  0.04530  0.30945  1.0000
  H   H558      1.0  0.51810  0.02938  0.24485  1.0000
  H   H559      1.0  0.63102  0.10670  0.30399  1.0000
  H   H560      1.0  0.53918  0.23159  0.37020  1.0000
  C   C445      1.0  0.29501  0.04122  0.33456  1.0000
  H   H561      1.0  0.61786  0.13171  0.51842  1.0000
  H   H562      1.0  0.53828  0.06729  0.24223  1.0000
  H   H563      1.0  0.32582  0.04546  0.69290  1.0000
  C   C446      1.0  0.36859  0.02129  0.32817  1.0000
  C   C447      1.0  0.43678  0.17235  0.22564  1.0000
  H   H564      1.0  0.47071  0.00107  0.66934  1.0000
  S   S124      1.0  0.23688  0.16094  0.36375  1.0000
  C   C448      1.0  0.36251  0.00081  0.57384  1.0000
  S   S125      1.0  0.49151  0.18110  0.51489  1.0000
  C   C449      1.0  0.43000  0.22422  0.27771  1.0000
  H   H565      1.0  0.55725  0.05419  0.46480  1.0000
  S   S126      1.0  0.22088  0.10152  0.46860  1.0000
  C   C450      1.0  0.22218  0.02266  0.53787  1.0000
  H   H566      1.0  0.65186  0.05020  0.27437  1.0000
  Fe  Fe61      1.0  0.43599  0.20989  0.49410  1.0000
  C   C451      1.0  0.21654  0.00125  0.62841  1.0000
  H   H567      1.0  0.19326  0.13412  0.25104  1.0000
  C   C452      1.0  0.28284  0.17310  0.37690  1.0000
  S   S127      1.0  0.28773  0.09915  0.62374  1.0000
  H   H568      1.0  0.19309  0.99742  0.24687  1.0000
  S   S128      1.0  0.23773  0.17290  0.53514  1.0000
  H   H569      1.0  0.52534  0.18240  0.41479  1.0000
  H   H570      1.0  0.46675  0.19528  0.71789  1.0000
  C   C453      1.0  0.46953  0.22696  0.29300  1.0000
  C   C454      1.0  0.20136  0.19411  0.67593  1.0000
  H   H571      1.0  0.33472  0.04810  0.58116  1.0000
  C   C455      1.0  0.59170  0.21296  0.49386  1.0000
  H   H572      1.0  0.30038  0.08286  0.51562  1.0000
  H   H573      1.0  0.28189  0.17186  0.28561  1.0000
  H   H574      1.0  0.35637  0.10127  0.58471  1.0000
  H   H575      1.0  0.35841  0.11764  0.43339  1.0000
  H   H576      1.0  0.21161  0.02271  0.48955  1.0000
  C   C456      1.0  0.61701  0.15594  0.50116  1.0000
  C   C457      1.0  0.36727  0.04784  0.51503  1.0000
  C   C458      1.0  0.47367  0.07459  0.49273  1.0000
  C   C459      1.0  0.50666  0.03807  0.56857  1.0000
  C   C460      1.0  0.30405  0.17945  0.43358  1.0000
  C   C461      1.0  0.31339  0.05903  0.30204  1.0000
  C   C462      1.0  0.47566  0.17432  0.23956  1.0000
  C   C463      1.0  0.31045  0.22406  0.59168  1.0000
  H   H577      1.0  0.44543  0.11364  0.33254  1.0000
  C   C464      1.0  0.62002  0.03072  0.66792  1.0000
  H   H578      1.0  0.33854  0.15970  0.68208  1.0000
  H   H579      1.0  0.21115  0.17678  0.64598  1.0000
  N   N33       1.0  0.49299  0.07053  0.28647  1.0000
  C   C465      1.0  0.30062  0.20066  0.69560  1.0000
  C   C466      1.0  0.32954  0.19469  0.61408  1.0000
  C   C467      1.0  0.59239  0.18145  0.51538  1.0000
  Fe  Fe62      1.0  0.21725  0.15382  0.44365  1.0000
  H   H580      1.0  0.46051  0.16374  0.39066  1.0000
  C   C468      1.0  0.48261  0.14931  0.37588  1.0000
  H   H581      1.0  0.61166  0.16386  0.63474  1.0000
  H   H582      1.0  0.45978  0.12388  0.52110  1.0000
  C   C469      1.0  0.50931  0.06440  0.60965  1.0000
  H   H583      1.0  0.26734  0.99592  0.23911  1.0000
  C   C470      1.0  0.53899  0.11299  0.33488  1.0000
  C   C471      1.0  0.50231  0.10134  0.32093  1.0000
  C   C472      1.0  0.33434  0.18760  0.33789  1.0000
  H   H584      1.0  0.52458  0.06052  0.65417  1.0000
  C   C473      1.0  0.29811  0.17700  0.32929  1.0000
  Fe  Fe63      1.0  0.48131  0.17721  0.60365  1.0000
  C   C474      1.0  0.52592  0.05245  0.27027  1.0000
  Fe  Fe64      1.0  0.17705  0.17741  0.53788  1.0000
  C   C475      1.0  0.63754  0.19277  0.43956  1.0000
  S   S129      1.0  0.57780  0.15534  0.24218  1.0000
  C   C476      1.0  0.59714  0.00482  0.66731  1.0000
  H   H585      1.0  0.64067  0.00403  0.34304  1.0000
  H   H586      1.0  0.63973  0.23513  0.30895  1.0000
  C   C477      1.0  0.61880  0.09657  0.26091  1.0000
  H   H587      1.0  0.60320  0.08733  0.43596  1.0000
  C   C478      1.0  0.63964  0.16168  0.46324  1.0000
  C   C479      1.0  0.62149  0.01428  0.36840  1.0000
  H   H588      1.0  0.38377  0.19593  0.23342  1.0000
  H   H589      1.0  0.65208  0.13835  0.62573  1.0000
  Fe  Fe65      1.0  0.51658  0.22828  0.54759  1.0000
  H   H590      1.0  0.21771  0.21711  0.30601  1.0000
  H   H591      1.0  0.49351  0.15484  0.22520  1.0000
  H   H592      1.0  0.61562  0.20490  0.71200  1.0000
  H   H593      1.0  0.43879  0.09143  0.23958  1.0000
  H   H594      1.0  0.57854  0.99768  0.62717  1.0000
  H   H595      1.0  0.35083  0.99032  0.60633  1.0000
  C   C480      1.0  0.59851  0.98837  0.71823  1.0000
  Fe  Fe66      1.0  0.94640  0.39105  0.85049  1.0000
  C   C481      1.0  0.71211  0.33596  0.73951  1.0000
  H   H596      1.0  0.02814  0.35503  0.74699  1.0000
  H   H597      1.0  0.05274  0.27277  0.94004  1.0000
  C   C482      1.0  0.11825  0.48323  0.79508  1.0000
  C   C483      1.0  0.75030  0.28466  0.75840  1.0000
  H   H598      1.0  0.77886  0.39352  0.21545  1.0000
  H   H599      1.0  0.68447  0.44603  0.78286  1.0000
  C   C484      1.0  0.01825  0.46286  0.17450  1.0000
  C   C485      1.0  0.80056  0.28627  0.21875  1.0000
  H   H600      1.0  0.66543  0.29951  0.00121  1.0000
  C   C486      1.0  0.10892  0.42626  0.76409  1.0000
  S   S130      1.0  0.12136  0.24754  0.86897  1.0000
  H   H601      1.0  0.08094  0.27077  0.75233  1.0000
  H   H602      1.0  0.85848  0.25778  0.12952  1.0000
  H   H603      1.0  0.74460  0.36411  0.21873  1.0000
  Fe  Fe67      1.0  0.73272  0.25177  0.98706  1.0000
  H   H604      1.0  0.99391  0.24577  0.10108  1.0000
  H   H605      1.0  0.13232  0.48461  0.17506  1.0000
  C   C487      1.0  0.90065  0.35580  0.11423  1.0000
  C   C488      1.0  0.96382  0.26529  0.95350  1.0000
  C   C489      1.0  0.02182  0.30128  0.80447  1.0000
  H   H606      1.0  0.71852  0.40644  0.15737  1.0000
  C   C490      1.0  0.70496  0.42434  0.18218  1.0000
  C   C491      1.0  0.13499  0.36944  0.96705  1.0000
  C   C492      1.0  0.09649  0.45594  0.78716  1.0000
  C   C493      1.0  0.05825  0.25870  0.72287  1.0000
  H   H607      1.0  0.77246  0.33141  0.75297  1.0000
  C   C494      1.0  0.83771  0.38061  0.11612  1.0000
  C   C495      1.0  0.11515  0.25478  0.19387  1.0000
  C   C496      1.0  0.78473  0.29938  0.16391  1.0000
  C   C497      1.0  0.14299  0.42383  0.74761  1.0000
  N   N34       1.0  0.01195  0.30482  0.74025  1.0000
  H   H608      1.0  0.98904  0.35776  0.09265  1.0000
  H   H609      1.0  0.95124  0.33597  0.04925  1.0000
  H   H610      1.0  0.06691  0.41056  0.86665  1.0000
  H   H611      1.0  0.78765  0.32495  0.15666  1.0000
  C   C498      1.0  0.85625  0.24093  0.09037  1.0000
  C   C499      1.0  0.84346  0.33223  0.05502  1.0000
  S   S131      1.0  0.91313  0.44601  0.03146  1.0000
  H   H612      1.0  0.98791  0.38138  0.18575  1.0000
  Fe  Fe68      1.0  0.13175  0.29927  0.90274  1.0000
  H   H613      1.0  0.05056  0.41627  0.19122  1.0000
  H   H614      1.0  0.79437  0.37278  0.87646  1.0000
  H   H615      1.0  0.82033  0.39961  0.13272  1.0000
  Fe  Fe69      1.0  0.12026  0.23702  0.96037  1.0000
  H   H616      1.0  0.15246  0.40068  0.72925  1.0000
  H   H617      1.0  0.86620  0.25368  0.05702  1.0000
  H   H618      1.0  0.71206  0.36202  0.73325  1.0000
  C   C500      1.0  0.73846  0.42394  0.77717  1.0000
  H   H619      1.0  0.94502  0.32041  0.19963  1.0000
  H   H620      1.0  0.96631  0.34071  0.74530  1.0000
  S   S132      1.0  0.90117  0.42812  0.86406  1.0000
  C   C501      1.0  0.74733  0.31853  0.75095  1.0000
  H   H621      1.0  0.98836  0.32242  0.17778  1.0000
  H   H622      1.0  0.72066  0.24188  0.76190  1.0000
  H   H623      1.0  0.09229  0.40500  0.75994  1.0000
  S   S133      1.0  0.96296  0.37650  0.94414  1.0000
  C   C502      1.0  0.00621  0.48133  0.07532  1.0000
  C   C503      1.0  0.08728  0.40571  0.90730  1.0000
  H   H624      1.0  0.66753  0.31820  0.07043  1.0000
  S   S134      1.0  0.66997  0.42143  0.88639  1.0000
  C   C504      1.0  0.09180  0.42936  0.95347  1.0000
  H   H625      1.0  0.66735  0.44219  0.10295  1.0000
  H   H626      1.0  0.12429  0.42683  0.18383  1.0000
  H   H627      1.0  0.07028  0.45751  0.80074  1.0000
  H   H628      1.0  0.73954  0.38133  0.92073  1.0000
  H   H629      1.0  0.05797  0.40784  0.08990  1.0000
  C   C505      1.0  0.02916  0.26148  0.94872  1.0000
  C   C506      1.0  0.11275  0.23699  0.14133  1.0000
  H   H630      1.0  0.99140  0.46271  0.72560  1.0000
  H   H631      1.0  0.93055  0.48109  0.93921  1.0000
  S   S135      1.0  0.12561  0.28920  0.99226  1.0000
  H   H632      1.0  0.02919  0.44878  0.01595  1.0000
  C   C507      1.0  0.03803  0.43445  0.15888  1.0000
  Fe  Fe70      1.0  0.86264  0.38741  0.84080  1.0000
  C   C508      1.0  0.76646  0.27907  0.11814  1.0000
  C   C509      1.0  0.99802  0.46057  0.87149  1.0000
  S   S136      1.0  0.75075  0.29439  0.04808  1.0000
  H   H633      1.0  0.07522  0.45261  0.94816  1.0000
  C   C510      1.0  0.95717  0.32353  0.16156  1.0000
  H   H634      1.0  0.15921  0.38729  0.05364  1.0000
  H   H635      1.0  0.89883  0.31227  0.05594  1.0000
  C   C511      1.0  0.10881  0.37558  0.91434  1.0000
  C   C512      1.0  0.71805  0.26813  0.75497  1.0000
  H   H636      1.0  0.05220  0.29438  0.82191  1.0000
  Fe  Fe71      1.0  0.91438  0.41114  0.95544  1.0000
  H   H637      1.0  0.94613  0.38008  0.05712  1.0000
  H   H638      1.0  0.88777  0.39965  0.16602  1.0000
  H   H639      1.0  0.99535  0.44401  0.90444  1.0000
  H   H640      1.0  0.99196  0.30532  0.93053  1.0000
  H   H641      1.0  0.06494  0.32521  0.74127  1.0000
  H   H642      1.0  0.95053  0.30179  0.13166  1.0000
  C   C513      1.0  0.04199  0.42951  0.10188  1.0000
  C   C514      1.0  0.70834  0.43011  0.80357  1.0000
  C   C515      1.0  0.97164  0.31671  0.72290  1.0000
  C   C516      1.0  0.11712  0.42241  0.00687  1.0000
  H   H643      1.0  0.15484  0.44357  0.88890  1.0000
  H   H644      1.0  0.89331  0.47819  0.77113  1.0000
  H   H645      1.0  0.94702  0.40688  0.15380  1.0000
  H   H646      1.0  0.95324  0.29918  0.73510  1.0000
  C   C517      1.0  0.99192  0.44954  0.81311  1.0000
  H   H647      1.0  0.70060  0.36260  0.04961  1.0000
  C   C518      1.0  0.76269  0.24600  0.12780  1.0000
  S   S137      1.0  0.12273  0.45082  0.06586  1.0000
  H   H648      1.0  0.01603  0.32490  0.82781  1.0000
  S   S138      1.0  0.71901  0.25682  0.89055  1.0000
  S   S139      1.0  0.92094  0.28813  0.94902  1.0000
  H   H649      1.0  0.77764  0.27117  0.76706  1.0000
  C   C519      1.0  0.73937  0.39357  0.88108  1.0000
  H   H650      1.0  0.83551  0.47023  0.80100  1.0000
  C   C520      1.0  0.67546  0.44481  0.15017  1.0000
  C   C521      1.0  0.15411  0.48110  0.78159  1.0000
  C   C522      1.0  0.95783  0.35716  0.08068  1.0000
  H   H651      1.0  0.08966  0.26399  0.20650  1.0000
  H   H652      1.0  0.00582  0.28205  0.81757  1.0000
  C   C523      1.0  0.87688  0.38030  0.13511  1.0000
  C   C524      1.0  0.13867  0.39246  0.01344  1.0000
  H   H653      1.0  0.82579  0.23795  0.07162  1.0000
  S   S140      1.0  0.80931  0.40080  0.77456  1.0000
  C   C525      1.0  0.67863  0.31985  0.73626  1.0000
  C   C526      1.0  0.95660  0.38242  0.17359  1.0000
  C   C527      1.0  0.68272  0.28534  0.74450  1.0000
  H   H654      1.0  0.83027  0.31383  0.02351  1.0000
  H   H655      1.0  0.92725  0.23878  0.05915  1.0000
  H   H656      1.0  0.94740  0.38146  0.21492  1.0000
  S   S141      1.0  0.10357  0.34519  0.85825  1.0000
  C   C528      1.0  0.77050  0.38888  0.85625  1.0000
  H   H657      1.0  0.73731  0.43459  0.73571  1.0000
  H   H658      1.0  0.90041  0.40243  0.73655  1.0000
  C   C529      1.0  0.99546  0.47115  0.77069  1.0000
  H   H659      1.0  0.79070  0.35719  0.06082  1.0000
  H   H660      1.0  0.70049  0.34540  0.97824  1.0000
  S   S142      1.0  0.90698  0.35073  0.82136  1.0000
  Fe  Fe72      1.0  0.91921  0.33927  0.91636  1.0000
  C   C530      1.0  0.77012  0.40435  0.80456  1.0000
  C   C531      1.0  0.70857  0.41468  0.85520  1.0000
  S   S143      1.0  0.87185  0.37328  0.93369  1.0000
  C   C532      1.0  0.02591  0.45276  0.06021  1.0000
  N   N35       1.0  0.94228  0.35494  0.13255  1.0000
  S   S144      1.0  0.98074  0.40863  0.79302  1.0000
  C   C533      1.0  0.82105  0.35678  0.07589  1.0000
  C   C534      1.0  0.88266  0.33159  0.07393  1.0000
  C   C535      1.0  0.99460  0.27986  0.94283  1.0000
  C   C536      1.0  0.03411  0.33077  0.72570  1.0000
  H   H661      1.0  0.15343  0.34732  0.97188  1.0000
  H   H662      1.0  0.79846  0.46714  0.85955  1.0000
  C   C537      1.0  0.68417  0.36207  0.00342  1.0000
  H   H663      1.0  0.76595  0.48306  0.76034  1.0000
  H   H664      1.0  0.68323  0.38727  0.98700  1.0000
  C   C538      1.0  0.15348  0.41804  0.19772  1.0000
  H   H665      1.0  0.90843  0.23979  0.84213  1.0000
  H   H666      1.0  0.14316  0.37377  0.14432  1.0000
  C   C539      1.0  0.89822  0.48538  0.00446  1.0000
  S   S145      1.0  0.14436  0.41573  0.45808  1.0000
  H   H667      1.0  0.90805  0.36267  0.63002  1.0000
  H   H668      1.0  0.80020  0.41067  0.34159  1.0000
  C   C540      1.0  0.09169  0.37811  0.58144  1.0000
  H   H669      1.0  0.07852  0.46431  0.61262  1.0000
  Fe  Fe73      1.0  0.94880  0.28606  0.34784  1.0000
  H   H670      1.0  0.84492  0.42750  0.44508  1.0000
  C   C541      1.0  0.69611  0.45203  0.27142  1.0000
  C   C542      1.0  0.03615  0.41256  0.53507  1.0000
  S   S146      1.0  0.15499  0.33650  0.42753  1.0000
  Fe  Fe74      1.0  0.66234  0.33282  0.44735  1.0000
  H   H671      1.0  0.99306  0.25749  0.52839  1.0000
  H   H672      1.0  0.08700  0.45557  0.51294  1.0000
  H   H673      1.0  0.94359  0.38664  0.32951  1.0000
  H   H674      1.0  0.81944  0.48468  0.63203  1.0000
  H   H675      1.0  0.76589  0.44355  0.34619  1.0000
  N   N36       1.0  0.74663  0.40570  0.27985  1.0000
  H   H676      1.0  0.85029  0.33790  0.49114  1.0000
  H   H677      1.0  0.82010  0.25072  0.55838  1.0000
  C   C543      1.0  0.81370  0.33403  0.54836  1.0000
  H   H678      1.0  0.77393  0.46939  0.62643  1.0000
  C   C544      1.0  0.85830  0.41447  0.59143  1.0000
  C   C545      1.0  0.15034  0.26123  0.22981  1.0000
  H   H679      1.0  0.70804  0.37193  0.29535  1.0000
  H   H680      1.0  0.08169  0.30776  0.58835  1.0000
  Fe  Fe75      1.0  0.14220  0.38333  0.37811  1.0000
  H   H681      1.0  0.93110  0.39218  0.60037  1.0000
  C   C546      1.0  0.81034  0.32342  0.60199  1.0000
  C   C547      1.0  0.02723  0.30800  0.48713  1.0000
  C   C548      1.0  0.06688  0.35572  0.30051  1.0000
  C   C549      1.0  0.02862  0.36013  0.29963  1.0000
  H   H682      1.0  0.09508  0.36616  0.67029  1.0000
  C   C550      1.0  0.67213  0.48260  0.45140  1.0000
  C   C551      1.0  0.06997  0.39430  0.53222  1.0000
  S   S147      1.0  0.94077  0.33285  0.39918  1.0000
  C   C552      1.0  0.89505  0.41786  0.28975  1.0000
  S   S148      1.0  0.98356  0.43820  0.59495  1.0000
  H   H683      1.0  0.01965  0.42547  0.49736  1.0000
  C   C553      1.0  0.87769  0.30984  0.56612  1.0000
  C   C554      1.0  0.71609  0.42726  0.24415  1.0000
  H   H684      1.0  0.01712  0.30576  0.43888  1.0000
  H   H685      1.0  0.89472  0.42394  0.53401  1.0000
  C   C555      1.0  0.73117  0.38697  0.31995  1.0000
  C   C556      1.0  0.80064  0.42004  0.48732  1.0000
  H   H686      1.0  0.76527  0.28167  0.51468  1.0000
  H   H687      1.0  0.78860  0.44091  0.28677  1.0000
  C   C557      1.0  0.84744  0.32782  0.53098  1.0000
  H   H688      1.0  0.79071  0.34778  0.52067  1.0000
  C   C558      1.0  0.90690  0.47483  0.27946  1.0000
  S   S149      1.0  0.86269  0.38765  0.28458  1.0000
  C   C559      1.0  0.14422  0.48338  0.58798  1.0000
  N   N37       1.0  0.76787  0.23953  0.45578  1.0000
  C   C560      1.0  0.02403  0.41425  0.58702  1.0000
  C   C561      1.0  0.87646  0.40419  0.69744  1.0000
  C   C562      1.0  0.79165  0.41462  0.53988  1.0000
  Fe  Fe76      1.0  0.86730  0.27000  0.33199  1.0000
  C   C563      1.0  0.13571  0.46784  0.28364  1.0000
  H   H689      1.0  0.81509  0.30198  0.25375  1.0000
  C   C564      1.0  0.04204  0.24871  0.49102  1.0000
  H   H690      1.0  0.91669  0.45287  0.62171  1.0000
  C   C565      1.0  0.86633  0.42063  0.53722  1.0000
  Fe  Fe77      1.0  0.95423  0.47605  0.53018  1.0000
  Fe  Fe78      1.0  0.90843  0.30317  0.44507  1.0000
  Fe  Fe79      1.0  0.88674  0.34105  0.33108  1.0000
  H   H691      1.0  0.12875  0.43434  0.60214  1.0000
  C   C566      1.0  0.76493  0.38124  0.24483  1.0000
  C   C567      1.0  0.84106  0.30629  0.63829  1.0000
  H   H692      1.0  0.00255  0.30772  0.50650  1.0000
  C   C568      1.0  0.91897  0.38755  0.63762  1.0000
  H   H693      1.0  0.77858  0.42246  0.44772  1.0000
  S   S150      1.0  0.69971  0.44834  0.43421  1.0000
  H   H694      1.0  0.88377  0.46491  0.66433  1.0000
  S   S151      1.0  0.09301  0.38995  0.30138  1.0000
  S   S152      1.0  0.68791  0.40238  0.56504  1.0000
  H   H695      1.0  0.71396  0.26482  0.58648  1.0000
  C   C569      1.0  0.07862  0.37883  0.63232  1.0000
  C   C570      1.0  0.00852  0.24026  0.50508  1.0000
  S   S153      1.0  0.76803  0.33087  0.62405  1.0000
  H   H696      1.0  0.14329  0.26323  0.67861  1.0000
  C   C571      1.0  0.79988  0.25048  0.43488  1.0000
  H   H697      1.0  0.70308  0.45595  0.31822  1.0000
  C   C572      1.0  0.94500  0.46822  0.30641  1.0000
  S   S154      1.0  0.00368  0.26829  0.32729  1.0000
  H   H698      1.0  0.83866  0.29808  0.68004  1.0000
  S   S155      1.0  0.66392  0.32730  0.54155  1.0000
  S   S156      1.0  0.13618  0.35829  0.58217  1.0000
  C   C573      1.0  0.70379  0.24525  0.60663  1.0000
  H   H699      1.0  0.89796  0.28549  0.64787  1.0000
  C   C574      1.0  0.81993  0.41147  0.59130  1.0000
  C   C575      1.0  0.93335  0.41099  0.31467  1.0000
  S   S157      1.0  0.71720  0.35584  0.46519  1.0000
  H   H700      1.0  0.76259  0.41220  0.54056  1.0000
  C   C576      1.0  0.02721  0.30161  0.31336  1.0000
  C   C577      1.0  0.08494  0.32408  0.30555  1.0000
  S   S158      1.0  0.85326  0.31542  0.38130  1.0000
  S   S159      1.0  0.92392  0.46536  0.43816  1.0000
  C   C578      1.0  0.66534  0.24343  0.60087  1.0000
  H   H701      1.0  0.85245  0.45504  0.25129  1.0000
  Fe  Fe80      1.0  0.71762  0.35252  0.55932  1.0000
  N   N38       1.0  0.05675  0.28150  0.50862  1.0000
  H   H702      1.0  0.98743  0.43121  0.34584  1.0000
  H   H703      1.0  0.04402  0.28341  0.59330  1.0000
  H   H704      1.0  0.03792  0.33295  0.49777  1.0000
  H   H705      1.0  0.10996  0.46109  0.25090  1.0000
  H   H706      1.0  0.75316  0.36999  0.34686  1.0000
  C   C579      1.0  0.74763  0.26878  0.47653  1.0000
  S   S160      1.0  0.92006  0.25575  0.39825  1.0000
  C   C580      1.0  0.90515  0.44527  0.65771  1.0000
  H   H707      1.0  0.02772  0.33412  0.67780  1.0000
  H   H708      1.0  0.78762  0.36544  0.27315  1.0000
  H   H709      1.0  0.86354  0.37996  0.69126  1.0000
  H   H710      1.0  0.08283  0.28501  0.43684  1.0000
  C   C581      1.0  0.06828  0.28430  0.57313  1.0000
  S   S161      1.0  0.89702  0.29616  0.27698  1.0000
  H   H711      1.0  0.92881  0.44487  0.69733  1.0000
  C   C582      1.0  0.87465  0.29930  0.62021  1.0000
  H   H712      1.0  0.72216  0.26179  0.48956  1.0000
  C   C583      1.0  0.88206  0.44956  0.27043  1.0000
  H   H713      1.0  0.79011  0.26581  0.39558  1.0000
  H   H714      1.0  0.11455  0.27079  0.50383  1.0000
  H   H715      1.0  0.07936  0.27264  0.31704  1.0000
  H   H716      1.0  0.94316  0.38692  0.67650  1.0000
  C   C584      1.0  0.06508  0.29697  0.31166  1.0000
  C   C585      1.0  0.08966  0.28764  0.48531  1.0000
  H   H717      1.0  0.11446  0.32071  0.30572  1.0000
  C   C586      1.0  0.00880  0.33307  0.30626  1.0000
  H   H718      1.0  0.01478  0.38463  0.29633  1.0000
  H   H719      1.0  0.03563  0.39826  0.67527  1.0000
  H   H720      1.0  0.81100  0.40607  0.63006  1.0000
  N   N39       1.0  0.88893  0.41277  0.64519  1.0000
  C   C587      1.0  0.95835  0.43612  0.32283  1.0000
  H   H721      1.0  0.75570  0.47927  0.51935  1.0000
  S   S162      1.0  0.91951  0.30132  0.54316  1.0000
  H   H722      1.0  0.71955  0.40337  0.35116  1.0000
  H   H723      1.0  0.07929  0.39301  0.49211  1.0000
  H   H724      1.0  0.73791  0.28706  0.44170  1.0000
  C   C588      1.0  0.83794  0.42289  0.48595  1.0000
  H   H725      1.0  0.08910  0.26375  0.59088  1.0000
  Fe  Fe81      1.0  0.68356  0.40356  0.46922  1.0000
  H   H726      1.0  0.09883  0.31302  0.49661  1.0000
  H   H727      1.0  0.81855  0.26588  0.46801  1.0000
  C   C589      1.0  0.04499  0.39690  0.63511  1.0000
  H   H728      1.0  0.96381  0.26455  0.65881  1.0000
  H   H729      1.0  0.97942  0.33664  0.30664  1.0000
  C   C590      1.0  0.79832  0.25284  0.22769  1.0000
  C   C591      1.0  0.77636  0.42610  0.31504  1.0000
  H   H730      1.0  0.96242  0.32075  0.67512  1.0000
  H   H731      1.0  0.73182  0.24246  0.36879  1.0000
  H   H732      1.0  0.85582  0.42334  0.70859  1.0000
  Fe  Fe82      1.0  0.16067  0.36939  0.50734  1.0000
  C   C592      1.0  0.99297  0.25548  0.67131  1.0000
  C   C593      1.0  0.15143  0.44991  0.60391  1.0000
  H   H733      1.0  0.14178  0.44874  0.31738  1.0000
  C   C594      1.0  0.08776  0.48261  0.51085  1.0000
  H   H734      1.0  0.15097  0.27523  0.27001  1.0000
  C   C595      1.0  0.66661  0.47224  0.23908  1.0000
  C   C596      1.0  0.02076  0.27308  0.71125  1.0000
  S   S163      1.0  0.82252  0.23568  0.29371  1.0000
  H   H735      1.0  0.01548  0.46534  0.21909  1.0000
  H   H736      1.0  0.69289  0.63612  0.83756  1.0000
  C   C597      1.0  0.91699  0.62895  0.84995  1.0000
  C   C598      1.0  0.68191  0.59346  0.77993  1.0000
  H   H737      1.0  0.86915  0.58268  0.77346  1.0000
  H   H738      1.0  0.95642  0.58635  0.86614  1.0000
  H   H739      1.0  0.75842  0.56724  0.82280  1.0000
  Fe  Fe83      1.0  0.82184  0.66284  0.09444  1.0000
  H   H740      1.0  0.99431  0.49809  0.04059  1.0000
  N   N40       1.0  0.69745  0.58907  0.14063  1.0000
  C   C599      1.0  0.95983  0.71962  0.04270  1.0000
  H   H741      1.0  0.99056  0.55741  0.21491  1.0000
  C   C600      1.0  0.87484  0.49939  0.77772  1.0000
  H   H742      1.0  0.11314  0.67783  0.94609  1.0000
  C   C601      1.0  0.88451  0.53086  0.76940  1.0000
  C   C602      1.0  0.00194  0.61827  0.12751  1.0000
  C   C603      1.0  0.00949  0.49255  0.88781  1.0000
  H   H743      1.0  0.70888  0.57569  0.05703  1.0000
  H   H744      1.0  0.74666  0.66555  0.00888  1.0000
  H   H745      1.0  0.77003  0.60539  0.18935  1.0000
  C   C604      1.0  0.99848  0.71699  0.04504  1.0000
  C   C605      1.0  0.87403  0.54838  0.96124  1.0000
  C   C606      1.0  0.96818  0.54150  0.10409  1.0000
  H   H746      1.0  0.95305  0.56379  0.11915  1.0000
  C   C607      1.0  0.82918  0.55435  0.79950  1.0000
  C   C608      1.0  0.70611  0.59792  0.08544  1.0000
  H   H747      1.0  0.94943  0.70759  0.07479  1.0000
  C   C609      1.0  0.72913  0.56770  0.17398  1.0000
  S   S164      1.0  0.11664  0.59080  0.98134  1.0000
  Fe  Fe84      1.0  0.87441  0.69547  0.03657  1.0000
  H   H748      1.0  0.99219  0.55009  0.08897  1.0000
  C   C610      1.0  0.03778  0.61338  0.11625  1.0000
  H   H749      1.0  0.69981  0.52228  0.16823  1.0000
  C   C611      1.0  0.15541  0.67837  0.08537  1.0000
  H   H750      1.0  0.02683  0.62241  0.80980  1.0000
  H   H751      1.0  0.81808  0.49839  0.91209  1.0000
  C   C612      1.0  0.75581  0.50593  0.78088  1.0000
  S   S165      1.0  0.72907  0.67950  0.77872  1.0000
  H   H752      1.0  0.01556  0.66927  0.87182  1.0000
  Fe  Fe85      1.0  0.11762  0.50229  0.03604  1.0000
  H   H753      1.0  0.89396  0.68161  0.91726  1.0000
  C   C613      1.0  0.12866  0.70426  0.16065  1.0000
  H   H754      1.0  0.81282  0.69715  0.79552  1.0000
  S   S166      1.0  0.85491  0.61387  0.09838  1.0000
  H   H755      1.0  0.84689  0.69897  0.89448  1.0000
  Fe  Fe86      1.0  0.85791  0.62379  0.00720  1.0000
  C   C614      1.0  0.90428  0.65004  0.75262  1.0000
  N   N41       1.0  0.87131  0.67963  0.82414  1.0000
  H   H756      1.0  0.04061  0.60950  0.07186  1.0000
  C   C615      1.0  0.86147  0.55820  0.77959  1.0000
  H   H757      1.0  0.83337  0.68121  0.73812  1.0000
  H   H758      1.0  0.10670  0.50532  0.81349  1.0000
  H   H759      1.0  0.85528  0.65516  0.89243  1.0000
  C   C616      1.0  0.89823  0.52771  0.93566  1.0000
  H   H760      1.0  0.05104  0.69751  0.89911  1.0000
  H   H761      1.0  0.68354  0.61489  0.05972  1.0000
  H   H762      1.0  0.14178  0.65513  0.08752  1.0000
  H   H763      1.0  0.01536  0.50056  0.93321  1.0000
  H   H764      1.0  0.76899  0.49081  0.89717  1.0000
  C   C617      1.0  0.68635  0.57802  0.72765  1.0000
  H   H765      1.0  0.05449  0.70786  0.79629  1.0000
  H   H766      1.0  0.06868  0.61692  0.78376  1.0000
  Fe  Fe87      1.0  0.11323  0.57494  0.06966  1.0000
  S   S167      1.0  0.02963  0.55345  0.86543  1.0000
  C   C618      1.0  0.01394  0.73433  0.19738  1.0000
  H   H767      1.0  0.66702  0.63547  0.15310  1.0000
  N   N42       1.0  0.78498  0.51763  0.83091  1.0000
  C   C619      1.0  0.01239  0.73331  0.00485  1.0000
  C   C620      1.0  0.06983  0.61399  0.16235  1.0000
  N   N43       1.0  0.98130  0.51731  0.15103  1.0000
  H   H768      1.0  0.72985  0.50052  0.79419  1.0000
  C   C621      1.0  0.84221  0.49519  0.79650  1.0000
  H   H769      1.0  0.92966  0.49306  0.13286  1.0000
  C   C622      1.0  0.00550  0.53461  0.20140  1.0000
  H   H770      1.0  0.95560  0.49154  0.20692  1.0000
  H   H771      1.0  0.74454  0.54345  0.87345  1.0000
  C   C623      1.0  0.68882  0.68454  0.98888  1.0000
  H   H772      1.0  0.90807  0.53616  0.89966  1.0000
  S   S168      1.0  0.85857  0.58746  0.93353  1.0000
  C   C624      1.0  0.12778  0.65722  0.81074  1.0000
  H   H773      1.0  0.84283  0.55326  0.02787  1.0000
  H   H774      1.0  0.71633  0.63549  0.18211  1.0000
  H   H775      1.0  0.96771  0.58350  0.76690  1.0000
  H   H776      1.0  0.13496  0.69340  0.05232  1.0000
  S   S169      1.0  0.95379  0.62739  0.20092  1.0000
  H   H777      1.0  0.05687  0.65565  0.92413  1.0000
  C   C625      1.0  0.04657  0.67130  0.88538  1.0000
  C   C626      1.0  0.76912  0.54815  0.85591  1.0000
  Fe  Fe88      1.0  0.07606  0.55152  0.94716  1.0000
  C   C627      1.0  0.86678  0.67861  0.88472  1.0000
  S   S170      1.0  0.82108  0.67065  0.00077  1.0000
  H   H778      1.0  0.74743  0.52475  0.74681  1.0000
  H   H779      1.0  0.94794  0.53103  0.06600  1.0000
  H   H780      1.0  0.86420  0.49763  0.06612  1.0000
  C   C628      1.0  0.92935  0.62540  0.73760  1.0000
  H   H781      1.0  0.97744  0.61733  0.09184  1.0000
  H   H782      1.0  0.15876  0.53274  0.86433  1.0000
  S   S171      1.0  0.06903  0.53903  0.03516  1.0000
  S   S172      1.0  0.91114  0.64924  0.03548  1.0000
  C   C629      1.0  0.69847  0.69373  0.10949  1.0000
  Fe  Fe89      1.0  0.90585  0.64297  0.12639  1.0000
  C   C630      1.0  0.79311  0.49249  0.87675  1.0000
  H   H783      1.0  0.13717  0.54802  0.79346  1.0000
  C   C631      1.0  0.69708  0.62390  0.79767  1.0000
  S   S173      1.0  0.87278  0.69143  0.12991  1.0000
  C   C632      1.0  0.91061  0.49637  0.95762  1.0000
  S   S174      1.0  0.06097  0.73059  0.00952  1.0000
  C   C633      1.0  0.71705  0.63872  0.76354  1.0000
  H   H784      1.0  0.79033  0.55880  0.89258  1.0000
  C   C634      1.0  0.94191  0.60432  0.83444  1.0000
  S   S175      1.0  0.11465  0.60745  0.14916  1.0000
  C   C635      1.0  0.69216  0.61975  0.17524  1.0000
  C   C636      1.0  0.88566  0.71199  0.81774  1.0000
  H   H785      1.0  0.70219  0.69761  0.15610  1.0000
  C   C637      1.0  0.00215  0.48745  0.13334  1.0000
  C   C638      1.0  0.87405  0.50609  0.03012  1.0000
  C   C639      1.0  0.89737  0.65273  0.80928  1.0000
  H   H786      1.0  0.05638  0.67344  0.74675  1.0000
  H   H787      1.0  0.91351  0.62862  0.89405  1.0000
  C   C640      1.0  0.86209  0.53763  0.00867  1.0000
  H   H788      1.0  0.07092  0.60972  0.85821  1.0000
  Fe  Fe90      1.0  0.67738  0.70800  0.79522  1.0000
  H   H789      1.0  0.10968  0.72167  0.12985  1.0000
  H   H790      1.0  0.66608  0.58243  0.80624  1.0000
  C   C641      1.0  0.81912  0.52262  0.81020  1.0000
  H   H791      1.0  0.73269  0.61058  0.09310  1.0000
  H   H792      1.0  0.91467  0.71395  0.84556  1.0000
  H   H793      1.0  0.93040  0.52913  0.18053  1.0000
  C   C642      1.0  0.99814  0.62308  0.18484  1.0000
  C   C643      1.0  0.04737  0.68172  0.78698  1.0000
  S   S176      1.0  0.67008  0.51534  0.86091  1.0000
  C   C644      1.0  0.94775  0.50741  0.16857  1.0000
  H   H794      1.0  0.82177  0.65354  0.78745  1.0000
  C   C645      1.0  0.76499  0.58028  0.19664  1.0000
  S   S177      1.0  0.12186  0.51221  0.94640  1.0000
  C   C646      1.0  0.72573  0.53409  0.18443  1.0000
  C   C647      1.0  0.94816  0.60257  0.77848  1.0000
  H   H795      1.0  0.81331  0.57670  0.80813  1.0000
  C   C648      1.0  0.01340  0.51400  0.84544  1.0000
  N   N44       1.0  0.06522  0.66091  0.83755  1.0000
  H   H796      1.0  0.86764  0.73290  0.83090  1.0000
  C   C649      1.0  0.00540  0.50352  0.78669  1.0000
  C   C650      1.0  0.05750  0.62608  0.82153  1.0000
  C   C651      1.0  0.66335  0.70157  0.07193  1.0000
  S   S178      1.0  0.77246  0.67171  0.13506  1.0000
  H   H797      1.0  0.11463  0.64908  0.76685  1.0000
  H   H798      1.0  0.88660  0.71614  0.77200  1.0000
  C   C652      1.0  0.72885  0.68131  0.08687  1.0000
  C   C653      1.0  0.72384  0.67623  0.02658  1.0000
  H   H799      1.0  0.00853  0.51994  0.75381  1.0000
  H   H800      1.0  0.68507  0.68069  0.94227  1.0000
  C   C654      1.0  0.12675  0.67278  0.91061  1.0000
  H   H801      1.0  0.01611  0.68140  0.77557  1.0000
  H   H802      1.0  0.01763  0.70255  0.07835  1.0000
  C   C655      1.0  0.10648  0.66381  0.85334  1.0000
  C   C656      1.0  0.83336  0.67769  0.78442  1.0000
  H   H803      1.0  0.91021  0.53408  0.75594  1.0000
  H   H804      1.0  0.03154  0.54190  0.19043  1.0000
  H   H805      1.0  0.11312  0.68186  0.16119  1.0000
  H   H806      1.0  0.13323  0.71625  0.20469  1.0000
  S   S179      1.0  0.16139  0.53682  0.07786  1.0000
  C   C657      1.0  0.15726  0.49270  0.20827  1.0000
  H   H807      1.0  0.75850  0.73531  0.95702  1.0000
  C   C658      1.0  0.75610  0.51481  0.21702  1.0000
  H   H808      1.0  0.89061  0.66728  0.71955  1.0000
  H   H809      1.0  0.05835  0.49268  0.49357  1.0000
  H   H810      1.0  0.74319  0.50811  0.34230  1.0000
  H   H811      1.0  0.89617  0.49983  0.26864  1.0000
  C   C659      1.0  0.71347  0.62203  0.51439  1.0000
  H   H812      1.0  0.15039  0.72974  0.54569  1.0000
  S   S180      1.0  0.15682  0.66488  0.66329  1.0000
  H   H813      1.0  0.10397  0.48695  0.47810  1.0000
  H   H814      1.0  0.99268  0.64691  0.60736  1.0000
  C   C660      1.0  0.80527  0.56299  0.41267  1.0000
  H   H815      1.0  0.83313  0.56408  0.44057  1.0000
  S   S181      1.0  0.93976  0.59738  0.57002  1.0000
  S   S182      1.0  0.97253  0.50110  0.33517  1.0000
  C   C661      1.0  0.00555  0.62363  0.62521  1.0000
  C   C662      1.0  0.78314  0.59235  0.39731  1.0000
  C   C663      1.0  0.04704  0.70356  0.28160  1.0000
  H   H816      1.0  0.03313  0.58241  0.42076  1.0000
  C   C664      1.0  0.79112  0.56769  0.64820  1.0000
  Fe  Fe91      1.0  0.95213  0.50846  0.41669  1.0000
  C   C665      1.0  0.74447  0.64060  0.53544  1.0000
  H   H817      1.0  0.02736  0.62691  0.27500  1.0000
  H   H818      1.0  0.04995  0.62185  0.44480  1.0000
  Fe  Fe92      1.0  0.14141  0.61503  0.51641  1.0000
  C   C666      1.0  0.74201  0.66734  0.57373  1.0000
  H   H819      1.0  0.95182  0.62962  0.46263  1.0000
  H   H820      1.0  0.77430  0.56187  0.67749  1.0000
  H   H821      1.0  0.73781  0.63424  0.68570  1.0000
  S   S183      1.0  0.98519  0.51698  0.50830  1.0000
  H   H822      1.0  0.09687  0.49961  0.65570  1.0000
  C   C667      1.0  0.75442  0.53154  0.35783  1.0000
  C   C668      1.0  0.98681  0.65822  0.39373  1.0000
  C   C669      1.0  0.67572  0.65833  0.56805  1.0000
  S   S184      1.0  0.71834  0.62813  0.34627  1.0000
  H   H823      1.0  0.98501  0.54432  0.63479  1.0000
  H   H824      1.0  0.07264  0.54453  0.55141  1.0000
  S   S185      1.0  0.07775  0.72159  0.56491  1.0000
  H   H825      1.0  0.72029  0.54526  0.56063  1.0000
  Fe  Fe93      1.0  0.93496  0.54951  0.51935  1.0000
  H   H826      1.0  0.80730  0.61253  0.69708  1.0000
  C   C670      1.0  0.07684  0.72504  0.29375  1.0000
  H   H827      1.0  0.96756  0.70881  0.61407  1.0000
  N   N45       1.0  0.99011  0.62261  0.40623  1.0000
  H   H828      1.0  0.81372  0.51352  0.26673  1.0000
  S   S186      1.0  0.90517  0.54526  0.42488  1.0000
  H   H829      1.0  0.70574  0.51685  0.42440  1.0000
  C   C671      1.0  0.96029  0.70536  0.33206  1.0000
  C   C672      1.0  0.81878  0.55512  0.56594  1.0000
  H   H830      1.0  0.09092  0.61939  0.25537  1.0000
  N   N46       1.0  0.10899  0.71981  0.34490  1.0000
  H   H831      1.0  0.70487  0.55989  0.31323  1.0000
  C   C673      1.0  0.79504  0.56087  0.22959  1.0000
  Fe  Fe94      1.0  0.87876  0.50286  0.45196  1.0000
  H   H832      1.0  0.06031  0.64214  0.65738  1.0000
  C   C674      1.0  0.98039  0.61814  0.46260  1.0000
  H   H833      1.0  0.82182  0.57137  0.24761  1.0000
  C   C675      1.0  0.77385  0.50039  0.52985  1.0000
  H   H834      1.0  0.97189  0.60355  0.31775  1.0000
  C   C676      1.0  0.03928  0.56339  0.67051  1.0000
  H   H835      1.0  0.71560  0.60145  0.48415  1.0000
  C   C677      1.0  0.70832  0.67596  0.59017  1.0000
  C   C678      1.0  0.68164  0.51398  0.44182  1.0000
  S   S187      1.0  0.09479  0.63052  0.55872  1.0000
  H   H836      1.0  0.70867  0.58184  0.65215  1.0000
  Fe  Fe95      1.0  0.12046  0.67878  0.57626  1.0000
  H   H837      1.0  0.69251  0.70392  0.43865  1.0000
  H   H838      1.0  0.15585  0.68413  0.37319  1.0000
  H   H839      1.0  0.05214  0.54023  0.68869  1.0000
  C   C679      1.0  0.13086  0.68859  0.33602  1.0000
  H   H840      1.0  0.77037  0.63427  0.52179  1.0000
  C   C680      1.0  0.14718  0.52187  0.41759  1.0000
  H   H841      1.0  0.93494  0.61062  0.35652  1.0000
  H   H842      1.0  0.76363  0.51804  0.49404  1.0000
  C   C681      1.0  0.73273  0.52383  0.58806  1.0000
  H   H843      1.0  0.93438  0.62420  0.69404  1.0000
  C   C682      1.0  0.94342  0.73319  0.68076  1.0000
  C   C683      1.0  0.79392  0.54652  0.59970  1.0000
  H   H844      1.0  0.66752  0.68137  0.67262  1.0000
  C   C684      1.0  0.03027  0.62325  0.23081  1.0000
  C   C685      1.0  0.02934  0.60906  0.41047  1.0000
  C   C686      1.0  0.00794  0.68083  0.43398  1.0000
  C   C687      1.0  0.70678  0.59267  0.69397  1.0000
  H   H845      1.0  0.02133  0.73132  0.45499  1.0000
  C   C688      1.0  0.98477  0.59573  0.61645  1.0000
  C   C689      1.0  0.66348  0.71713  0.32444  1.0000
  H   H846      1.0  0.11700  0.54670  0.60270  1.0000
  C   C690      1.0  0.79090  0.53252  0.39306  1.0000
  S   S188      1.0  0.12532  0.58630  0.43258  1.0000
  H   H847      1.0  0.80257  0.49017  0.52807  1.0000
  H   H848      1.0  0.84940  0.62662  0.63531  1.0000
  C   C691      1.0  0.70352  0.72492  0.42088  1.0000
  C   C692      1.0  0.06094  0.59051  0.67425  1.0000
  H   H849      1.0  0.82374  0.54006  0.52932  1.0000
  H   H850      1.0  0.66653  0.56586  0.44432  1.0000
  H   H851      1.0  0.94183  0.71499  0.29240  1.0000
  H   H852      1.0  0.94523  0.65659  0.30938  1.0000
  C   C693      1.0  0.00132  0.56578  0.64035  1.0000
  H   H853      1.0  0.05406  0.50324  0.59963  1.0000
  C   C694      1.0  0.96515  0.60247  0.36104  1.0000
  C   C695      1.0  0.83840  0.58371  0.57890  1.0000
  H   H854      1.0  0.11858  0.51930  0.39274  1.0000
  C   C696      1.0  0.96269  0.67161  0.34237  1.0000
  H   H855      1.0  0.96833  0.57587  0.37176  1.0000
  H   H856      1.0  0.78997  0.50235  0.67729  1.0000
  H   H857      1.0  0.11382  0.66679  0.33173  1.0000
  H   H858      1.0  0.79424  0.61583  0.41307  1.0000
  H   H859      1.0  0.72857  0.52898  0.63268  1.0000
  N   N47       1.0  0.77295  0.51628  0.58743  1.0000
  C   C697      1.0  0.74652  0.59133  0.36245  1.0000
  H   H860      1.0  0.02870  0.73397  0.64835  1.0000
  H   H861      1.0  0.70800  0.69677  0.62041  1.0000
  H   H862      1.0  0.71516  0.50271  0.57100  1.0000
  H   H863      1.0  0.07815  0.69605  0.39728  1.0000
  H   H864      1.0  0.00050  0.62916  0.50030  1.0000
  H   H865      1.0  0.99330  0.69193  0.22629  1.0000
  S   S189      1.0  0.66680  0.54038  0.70425  1.0000
  C   C698      1.0  0.67961  0.63039  0.53078  1.0000
  C   C699      1.0  0.78978  0.49209  0.63285  1.0000
  H   H866      1.0  0.68793  0.70620  0.30825  1.0000
  C   C700      1.0  0.04382  0.62088  0.65334  1.0000
  C   C701      1.0  0.83407  0.60448  0.62573  1.0000
  S   S190      1.0  0.90582  0.50931  0.54722  1.0000
  S   S191      1.0  0.81765  0.49542  0.41324  1.0000
  S   S192      1.0  0.89885  0.71886  0.65127  1.0000
  H   H867      1.0  0.11908  0.71382  0.43733  1.0000
  H   H868      1.0  0.85729  0.58976  0.55255  1.0000
  H   H869      1.0  0.98057  0.59164  0.47224  1.0000
  C   C702      1.0  0.73241  0.56089  0.34210  1.0000
  C   C703      1.0  0.72305  0.62252  0.71273  1.0000
  H   H870      1.0  0.04747  0.68281  0.30848  1.0000
  C   C704      1.0  0.81041  0.59651  0.66031  1.0000
  C   C705      1.0  0.09526  0.71743  0.39854  1.0000
  C   C706      1.0  0.97233  0.72507  0.65240  1.0000
  H   H871      1.0  0.03791  0.61144  0.36902  1.0000
  H   H872      1.0  0.76612  0.68186  0.59035  1.0000
  H   H873      1.0  0.01383  0.51945  0.24088  1.0000
  C   C707      1.0  0.15845  0.55278  0.43989  1.0000
  H   H874      1.0  0.02676  0.67269  0.47429  1.0000
  N   N48       1.0  0.10507  0.49772  0.56837  1.0000
  C   C708      1.0  0.10237  0.53402  0.56181  1.0000
  H   H875      1.0  0.14173  0.68915  0.29614  1.0000
  C   C709      1.0  0.01596  0.70841  0.23441  1.0000
  S   S193      1.0  0.10985  0.58579  0.70009  1.0000
  H   H876      1.0  0.72841  0.71437  0.40550  1.0000
  H   H877      1.0  0.11450  0.54103  0.52563  1.0000
  C   C710      1.0  0.08288  0.49088  0.61089  1.0000
  C   C711      1.0  0.00507  0.71456  0.42338  1.0000
  H   H878      1.0  0.12782  0.49175  0.30372  1.0000
  C   C712      1.0  0.98154  0.72677  0.37231  1.0000
  Fe  Fe96      1.0  0.13379  0.61539  0.64241  1.0000
  C   C713      1.0  0.79056  0.52824  0.24005  1.0000
  H   H879      1.0  0.75268  0.48949  0.22541  1.0000
  H   H880      1.0  0.14979  0.51830  0.22267  1.0000
  H   H881      1.0  0.68868  0.61399  0.21909  1.0000
  C   C714      1.0  0.06611  0.61922  0.21963  1.0000
  H   H882      1.0  0.68442  0.86716  0.99634  1.0000
  S   S194      1.0  0.07023  0.89055  0.97088  1.0000
  C   C715      1.0  0.07446  0.95627  0.95911  1.0000
  C   C716      1.0  0.09170  0.92049  0.88351  1.0000
  H   H883      1.0  0.96868  0.96277  0.92065  1.0000
  C   C717      1.0  0.77471  0.75667  0.95289  1.0000
  H   H884      1.0  0.88392  0.80302  0.14319  1.0000
  H   H885      1.0  0.04705  0.93186  0.12973  1.0000
  C   C718      1.0  0.77016  0.83217  0.81733  1.0000
  H   H886      1.0  0.94953  0.92313  0.90309  1.0000
  C   C719      1.0  0.71693  0.85424  0.85471  1.0000
  S   S195      1.0  0.88650  0.74021  0.99495  1.0000
  C   C720      1.0  0.91337  0.83813  0.89212  1.0000
  H   H887      1.0  0.01962  0.89841  0.83994  1.0000
  C   C721      1.0  0.96984  0.93970  0.89366  1.0000
  C   C722      1.0  0.81742  0.96941  0.75281  1.0000
  H   H888      1.0  0.98925  0.78443  0.78844  1.0000
  S   S196      1.0  0.71308  0.89835  0.20732  1.0000
  H   H889      1.0  0.80708  0.82405  0.03343  1.0000
  S   S197      1.0  0.12208  0.80332  0.00012  1.0000
  C   C723      1.0  0.03791  0.94744  0.21381  1.0000
  C   C724      1.0  0.98470  0.76772  0.75078  1.0000
  H   H890      1.0  0.90178  0.95251  0.82220  1.0000
  H   H891      1.0  0.13897  0.90060  0.05783  1.0000
  S   S198      1.0  0.04160  0.80652  0.90074  1.0000
  N   N49       1.0  0.96163  0.94645  0.83053  1.0000
  H   H892      1.0  0.71871  0.74768  0.01976  1.0000
  N   N50       1.0  0.97783  0.86113  0.06626  1.0000
  C   C725      1.0  0.97089  0.85586  0.95623  1.0000
  C   C726      1.0  0.89301  0.82108  0.17792  1.0000
  S   S199      1.0  0.99200  0.96931  0.04644  1.0000
  C   C727      1.0  0.03049  0.94801  0.15303  1.0000
  C   C728      1.0  0.13779  0.87737  0.75380  1.0000
  H   H893      1.0  0.06533  0.95950  0.99943  1.0000
  C   C729      1.0  0.83035  0.95046  0.85334  1.0000
  H   H894      1.0  0.67760  0.92338  0.09421  1.0000
  H   H895      1.0  0.98963  0.73834  0.16134  1.0000
  H   H896      1.0  0.97418  0.89569  0.13737  1.0000
  H   H897      1.0  0.74727  0.84633  0.99180  1.0000
  H   H898      1.0  0.83236  0.79430  0.99720  1.0000
  C   C730      1.0  0.93498  0.73826  0.99979  1.0000
  Fe  Fe97      1.0  0.08711  0.84036  0.93860  1.0000
  H   H899      1.0  0.86982  0.82764  0.93367  1.0000
  S   S200      1.0  0.08042  0.83252  0.18800  1.0000
  S   S201      1.0  0.74744  0.97948  0.15056  1.0000
  C   C731      1.0  0.94975  0.84797  0.90026  1.0000
  C   C732      1.0  0.73977  0.79451  0.00580  1.0000
  C   C733      1.0  0.72856  0.82864  0.99892  1.0000
  H   H900      1.0  0.99751  0.76305  0.92889  1.0000
  H   H901      1.0  0.96191  0.84885  0.86304  1.0000
  C   C734      1.0  0.67616  0.78647  0.01656  1.0000
  S   S202      1.0  0.82429  0.96368  0.10183  1.0000
  C   C735      1.0  0.15528  0.91828  0.04380  1.0000
  C   C736      1.0  0.93113  0.90575  0.75084  1.0000
  H   H902      1.0  0.80705  0.94177  0.98251  1.0000
  C   C737      1.0  0.67225  0.88798  0.15598  1.0000
  N   N51       1.0  0.77780  0.78032  0.00334  1.0000
  Fe  Fe98      1.0  0.81941  0.91084  0.11830  1.0000
  C   C738      1.0  0.12691  0.84183  0.19456  1.0000
  H   H903      1.0  0.04200  0.77464  0.17653  1.0000
  C   C739      1.0  0.68610  0.92673  0.77776  1.0000
  H   H904      1.0  0.88167  0.92104  0.94230  1.0000
  H   H905      1.0  0.82498  0.75324  0.05864  1.0000
  H   H906      1.0  0.03382  0.85097  0.05238  1.0000
  H   H907      1.0  0.90602  0.84074  0.03203  1.0000
  C   C740      1.0  0.08035  0.98392  0.93030  1.0000
  H   H908      1.0  0.67121  0.90655  0.78685  1.0000
  H   H909      1.0  0.14383  0.95573  0.10496  1.0000
  C   C741      1.0  0.89791  0.83599  0.93998  1.0000
  H   H910      1.0  0.92754  0.76038  0.75275  1.0000
  C   C742      1.0  0.69226  0.84102  0.00111  1.0000
  Fe  Fe99      1.0  0.74933  0.92512  0.16367  1.0000
  Fe  Fe100     1.0  0.07862  0.76845  0.95740  1.0000
  H   H911      1.0  0.89743  0.83156  0.84871  1.0000
  C   C743      1.0  0.95610  0.85368  0.00615  1.0000
  S   S203      1.0  0.05487  0.78078  0.74016  1.0000
  H   H912      1.0  0.84260  0.89711  0.85879  1.0000
  C   C744      1.0  0.80812  0.93574  0.93659  1.0000
  C   C745      1.0  0.96214  0.91503  0.79614  1.0000
  Fe  Fe101     1.0  0.07533  0.79164  0.83561  1.0000
  C   C746      1.0  0.99498  0.89310  0.80619  1.0000
  H   H913      1.0  0.01944  0.95465  0.83392  1.0000
  H   H914      1.0  0.79653  0.77933  0.09686  1.0000
  H   H915      1.0  0.69103  0.79555  0.74813  1.0000
  C   C747      1.0  0.07992  0.92454  0.93560  1.0000
  H   H916      1.0  0.83442  0.88633  0.75420  1.0000
  H   H917      1.0  0.78039  0.74084  0.06315  1.0000
  H   H918      1.0  0.03174  0.87658  0.11474  1.0000
  C   C748      1.0  0.13874  0.84814  0.14458  1.0000
  S   S204      1.0  0.85690  0.86777  0.10025  1.0000
  C   C749      1.0  0.83551  0.91794  0.83052  1.0000
  H   H919      1.0  0.90539  0.92119  0.73855  1.0000
  H   H920      1.0  0.93008  0.88236  0.09731  1.0000
  C   C750      1.0  0.69389  0.83276  0.81667  1.0000
  H   H921      1.0  0.79359  0.81815  0.95475  1.0000
  C   C751      1.0  0.99087  0.96691  0.82014  1.0000
  H   H922      1.0  0.01579  0.89381  0.04470  1.0000
  H   H923      1.0  0.99857  0.92797  0.91042  1.0000
  H   H924      1.0  0.88978  0.90402  0.20495  1.0000
  C   C752      1.0  0.83100  0.91147  0.77063  1.0000
  S   S205      1.0  0.67745  0.74289  0.87133  1.0000
  C   C753      1.0  0.80363  0.80544  0.99682  1.0000
  H   H925      1.0  0.11937  0.84648  0.10221  1.0000
  H   H926      1.0  0.95392  0.82434  0.10714  1.0000
  C   C754      1.0  0.98152  0.83163  0.10224  1.0000
  H   H927      1.0  0.98602  0.97190  0.77300  1.0000
  H   H928      1.0  0.99542  0.81012  0.08277  1.0000
  C   C755      1.0  0.71888  0.97534  0.81662  1.0000
  H   H929      1.0  0.99898  0.86311  0.95937  1.0000
  H   H930      1.0  0.80291  0.74639  0.94829  1.0000
  S   S206      1.0  0.81768  0.83087  0.81664  1.0000
  C   C756      1.0  0.70878  0.81164  0.77847  1.0000
  H   H931      1.0  0.10529  0.94510  0.81335  1.0000
  C   C757      1.0  0.91890  0.84351  0.99617  1.0000
  Fe  Fe102     1.0  0.76180  0.96540  0.06494  1.0000
  C   C758      1.0  0.75532  0.85378  0.85532  1.0000
  C   C759      1.0  0.96607  0.85593  0.72809  1.0000
  H   H932      1.0  0.81683  0.90903  0.93514  1.0000
  H   H933      1.0  0.76034  0.76886  0.91136  1.0000
  C   C760      1.0  0.88382  0.85469  0.16812  1.0000
  H   H934      1.0  0.69563  0.94427  0.86758  1.0000
  H   H935      1.0  0.75774  0.79487  0.74896  1.0000
  H   H936      1.0  0.70533  0.87065  0.88432  1.0000
  H   H937      1.0  0.77879  0.93956  0.90962  1.0000
  C   C761      1.0  0.71239  0.77386  0.01468  1.0000
  C   C762      1.0  0.92511  0.96638  0.81538  1.0000
  Fe  Fe103     1.0  0.14978  0.78884  0.92725  1.0000
  C   C763      1.0  0.09687  0.94818  0.85412  1.0000
  Fe  Fe104     1.0  0.82011  0.80858  0.72900  1.0000
  H   H938      1.0  0.77333  0.87002  0.88499  1.0000
  C   C764      1.0  0.79553  0.76267  0.05776  1.0000
  C   C765      1.0  0.94877  0.75422  0.95915  1.0000
  C   C766      1.0  0.98738  0.75154  0.96146  1.0000
  H   H939      1.0  0.02244  0.84796  0.78036  1.0000
  H   H940      1.0  0.95376  0.91105  0.06605  1.0000
  H   H941      1.0  0.09573  0.89617  0.86490  1.0000
  C   C767      1.0  0.99686  0.86408  0.77245  1.0000
  C   C768      1.0  0.04338  0.75497  0.20642  1.0000
  C   C769      1.0  0.74672  0.81149  0.77857  1.0000
  C   C770      1.0  0.70010  0.94819  0.82476  1.0000
  C   C771      1.0  0.01635  0.87098  0.06914  1.0000
  S   S207      1.0  0.75818  0.91126  0.07470  1.0000
  H   H942      1.0  0.99874  0.83609  0.14732  1.0000
  C   C772      1.0  0.95800  0.88868  0.09272  1.0000
  H   H943      1.0  0.92957  0.76816  0.92527  1.0000
  C   C773      1.0  0.87308  0.94747  0.94918  1.0000
  S   S208      1.0  0.10895  0.75126  0.88904  1.0000
  N   N52       1.0  0.83390  0.95644  0.91674  1.0000
  S   S209      1.0  0.11818  0.82843  0.86879  1.0000
  H   H944      1.0  0.87664  0.95169  0.99716  1.0000
  C   C774      1.0  0.89589  0.87800  0.21287  1.0000
  C   C775      1.0  0.72448  0.98083  0.76180  1.0000
  C   C776      1.0  0.82168  0.93711  0.73177  1.0000
  C   C777      1.0  0.00217  0.96982  0.12256  1.0000
  C   C778      1.0  0.69096  0.93183  0.72098  1.0000
  C   C779      1.0  0.82169  0.97618  0.81258  1.0000
  H   H945      1.0  0.89333  0.96264  0.93577  1.0000
  Fe  Fe105     1.0  0.80967  0.97497  0.18775  1.0000
  C   C780      1.0  0.09071  0.97985  0.87714  1.0000
  H   H946      1.0  0.91822  0.97408  0.76919  1.0000
  H   H947      1.0  0.13726  0.76819  0.78082  1.0000
  C   C781      1.0  0.94970  0.75426  0.73034  1.0000
  S   S210      1.0  0.81051  0.92166  0.20777  1.0000
  H   H948      1.0  0.11713  0.89627  0.73300  1.0000
  C   C782      1.0  0.66611  0.81996  0.00974  1.0000
  C   C783      1.0  0.13941  0.84595  0.72731  1.0000
  C   C784      1.0  0.15792  0.94955  0.07023  1.0000
  C   C785      1.0  0.01291  0.76088  0.72052  1.0000
  H   H949      1.0  0.16137  0.94579  0.21794  1.0000
  H   H950      1.0  0.06236  0.88903  0.62364  1.0000
  C   C786      1.0  0.66639  0.84040  0.48818  1.0000
  C   C787      1.0  0.68178  0.79511  0.55439  1.0000
  H   H951      1.0  0.14731  0.95995  0.67037  1.0000
  H   H952      1.0  0.14399  0.79870  0.63695  1.0000
  H   H953      1.0  0.11166  0.78637  0.67770  1.0000
  N   N53       1.0  0.94476  0.81594  0.52800  1.0000
  H   H954      1.0  0.70063  0.87140  0.62012  1.0000
  Fe  Fe106     1.0  0.06676  0.97437  0.62472  1.0000
  C   C788      1.0  0.15189  0.84410  0.24953  1.0000
  C   C789      1.0  0.73391  0.90936  0.52047  1.0000
  C   C790      1.0  0.14624  0.77678  0.50749  1.0000
  S   S211      1.0  0.03667  0.88426  0.41151  1.0000
  C   C791      1.0  0.15535  0.93526  0.65668  1.0000
  H   H955      1.0  0.09589  0.76798  0.25842  1.0000
  C   C792      1.0  0.97629  0.83679  0.55404  1.0000
  H   H956      1.0  0.94461  0.79070  0.60687  1.0000
  H   H957      1.0  0.71729  0.96413  0.67360  1.0000
  H   H958      1.0  0.92707  0.88592  0.30156  1.0000
  C   C793      1.0  0.67309  0.80253  0.35471  1.0000
  Fe  Fe107     1.0  0.82801  0.82839  0.61005  1.0000
  C   C794      1.0  0.73759  0.94334  0.52300  1.0000
  C   C795      1.0  0.08775  0.80957  0.50225  1.0000
  S   S212      1.0  0.86951  0.81005  0.68979  1.0000
  H   H959      1.0  0.71946  0.81153  0.50621  1.0000
  S   S213      1.0  0.95591  0.82220  0.34391  1.0000
  H   H960      1.0  0.97447  0.79164  0.46806  1.0000
  H   H961      1.0  0.01562  0.90854  0.53652  1.0000
  H   H962      1.0  0.04519  0.78630  0.53147  1.0000
  C   C796      1.0  0.92602  0.80668  0.57349  1.0000
  C   C797      1.0  0.95971  0.78552  0.50188  1.0000
  C   C798      1.0  0.68974  0.76980  0.35326  1.0000
  C   C799      1.0  0.71146  0.95911  0.71486  1.0000
  Fe  Fe108     1.0  0.06336  0.85195  0.26814  1.0000
  N   N54       1.0  0.67444  0.74120  0.37377  1.0000
  H   H963      1.0  0.14328  0.83801  0.28815  1.0000
  H   H964      1.0  0.96184  0.87704  0.49188  1.0000
  H   H965      1.0  0.86095  0.96896  0.65567  1.0000
  H   H966      1.0  0.05969  0.93037  0.23687  1.0000
  H   H967      1.0  0.67400  0.85549  0.45699  1.0000
  H   H968      1.0  0.98627  0.94328  0.40804  1.0000
  H   H969      1.0  0.89127  0.81680  0.46442  1.0000
  C   C800      1.0  0.76592  0.88744  0.53482  1.0000
  N   N55       1.0  0.94123  0.98034  0.40710  1.0000
  H   H970      1.0  0.96780  0.83360  0.70174  1.0000
  H   H971      1.0  0.15826  0.90244  0.46552  1.0000
  H   H972      1.0  0.90978  0.87104  0.68143  1.0000
  H   H973      1.0  0.72443  0.87436  0.69629  1.0000
  S   S214      1.0  0.00786  0.87843  0.26809  1.0000
  H   H974      1.0  0.98016  0.77056  0.53510  1.0000
  H   H975      1.0  0.92623  0.83791  0.44349  1.0000
  C   C801      1.0  0.86434  0.91311  0.44167  1.0000
  S   S215      1.0  0.06009  0.81868  0.33816  1.0000
  H   H976      1.0  0.90348  0.85581  0.49903  1.0000
  C   C802      1.0  0.70958  0.88898  0.65776  1.0000
  H   H977      1.0  0.91626  0.82905  0.59625  1.0000
  S   S216      1.0  0.71269  0.76227  0.58513  1.0000
  H   H978      1.0  0.73587  0.74100  0.32653  1.0000
  Fe  Fe109     1.0  0.04068  0.91279  0.33456  1.0000
  H   H979      1.0  0.97970  0.75288  0.36382  1.0000
  H   H980      1.0  0.66291  0.86858  0.71477  1.0000
  C   C803      1.0  0.77332  0.95552  0.53973  1.0000
  C   C804      1.0  0.91368  0.81079  0.23303  1.0000
  S   S217      1.0  0.77954  0.83081  0.65205  1.0000
  H   H981      1.0  0.00377  0.80263  0.62229  1.0000
  H   H982      1.0  0.83304  0.94295  0.56406  1.0000
  H   H983      1.0  0.76289  0.86116  0.53266  1.0000
  S   S218      1.0  0.69733  0.97017  0.50326  1.0000
  C   C805      1.0  0.09591  0.75471  0.54002  1.0000
  C   C806      1.0  0.14075  0.78219  0.67139  1.0000
  C   C807      1.0  0.80542  0.93355  0.55224  1.0000
  C   C808      1.0  0.03457  0.84505  0.62873  1.0000
  S   S219      1.0  0.81663  0.77814  0.56936  1.0000
  H   H984      1.0  0.70623  0.90008  0.50785  1.0000
  H   H985      1.0  0.05517  0.83637  0.66691  1.0000
  Fe  Fe110     1.0  0.85488  0.75980  0.65257  1.0000
  H   H986      1.0  0.14880  0.74903  0.31931  1.0000
  H   H987      1.0  0.93689  0.76935  0.48051  1.0000
  H   H988      1.0  0.14036  0.95498  0.36629  1.0000
  C   C809      1.0  0.69208  0.81553  0.51594  1.0000
  C   C810      1.0  0.88906  0.92861  0.48746  1.0000
  H   H989      1.0  0.71359  0.74263  0.45787  1.0000
  H   H990      1.0  0.15841  0.74258  0.39544  1.0000
  C   C811      1.0  0.91444  0.95739  0.41791  1.0000
  Fe  Fe111     1.0  0.77118  0.77897  0.61829  1.0000
  C   C812      1.0  0.77259  0.96204  0.32003  1.0000
  H   H991      1.0  0.76032  0.78735  0.28901  1.0000
  Fe  Fe112     1.0  0.99486  0.98046  0.66621  1.0000
  C   C813      1.0  0.91696  0.86777  0.26752  1.0000
  C   C814      1.0  0.73610  0.79154  0.30781  1.0000
  S   S220      1.0  0.02559  0.96636  0.32017  1.0000
  H   H992      1.0  0.73851  0.96646  0.40803  1.0000
  C   C815      1.0  0.91527  0.83249  0.48175  1.0000
  S   S221      1.0  0.80879  0.75651  0.69843  1.0000
  C   C816      1.0  0.98110  0.86719  0.53028  1.0000
  H   H993      1.0  0.73050  0.90438  0.64674  1.0000
  S   S222      1.0  0.84191  0.87219  0.56768  1.0000
  H   H994      1.0  0.90097  0.79242  0.55465  1.0000
  C   C817      1.0  0.00441  0.82609  0.60337  1.0000
  C   C818      1.0  0.80175  0.89952  0.55031  1.0000
  H   H995      1.0  0.12070  0.77100  0.36382  1.0000
  H   H996      1.0  0.84524  0.89620  0.45087  1.0000
  H   H997      1.0  0.77629  0.98183  0.54183  1.0000
  H   H998      1.0  0.75220  0.94927  0.28473  1.0000
  C   C819      1.0  0.91377  0.95038  0.47598  1.0000
  H   H999      1.0  0.12550  0.87628  0.55287  1.0000
  C   C820      1.0  0.03846  0.87470  0.60467  1.0000
  H   H1000     1.0  0.70353  0.97061  0.34144  1.0000
  H   H1001     1.0  0.14742  0.95840  0.49871  1.0000
  C   C821      1.0  0.01746  0.96905  0.24443  1.0000
  S   S223      1.0  0.14106  0.83637  0.45984  1.0000
  C   C822      1.0  0.01189  0.88569  0.55548  1.0000
  H   H1002     1.0  0.93255  0.96153  0.51323  1.0000
  N   N56       1.0  0.67713  0.90927  0.67047  1.0000
  C   C823      1.0  0.92570  0.83420  0.27777  1.0000
  H   H1003     1.0  0.07824  0.74031  0.40663  1.0000
  H   H1004     1.0  0.81789  0.93192  0.68530  1.0000
  C   C824      1.0  0.72184  0.76519  0.32939  1.0000
  H   H1005     1.0  0.92119  0.78486  0.24046  1.0000
  H   H1006     1.0  0.94375  0.96298  0.31999  1.0000
  Fe  Fe113     1.0  0.00744  0.84814  0.34434  1.0000
  H   H1007     1.0  0.84594  0.90633  0.34856  1.0000
  H   H1008     1.0  0.88939  0.92357  0.53233  1.0000
  C   C825      1.0  0.86458  0.91901  0.38419  1.0000
  C   C826      1.0  0.13266  0.75168  0.53290  1.0000
  H   H1009     1.0  0.07059  0.83221  0.49130  1.0000
  C   C827      1.0  0.88900  0.94097  0.37215  1.0000
  C   C828      1.0  0.13510  0.74680  0.35590  1.0000
  C   C829      1.0  0.13315  0.92013  0.60731  1.0000
  S   S224      1.0  0.05126  0.95513  0.70234  1.0000
  C   C830      1.0  0.68773  0.82872  0.33324  1.0000
  C   C831      1.0  0.98029  0.96677  0.43123  1.0000
  H   H1010     1.0  0.11975  0.84220  0.68600  1.0000
  H   H1011     1.0  0.88752  0.94450  0.32658  1.0000
  S   S225      1.0  0.09303  0.94128  0.56602  1.0000
  H   H1012     1.0  0.78316  0.94377  0.35458  1.0000
  C   C832      1.0  0.07445  0.75062  0.25383  1.0000
  C   C833      1.0  0.07347  0.78377  0.52532  1.0000
  H   H1013     1.0  0.67448  0.85344  0.33431  1.0000
  C   C834      1.0  0.71903  0.82323  0.30961  1.0000
  S   S226      1.0  0.09645  0.88886  0.32817  1.0000
  C   C835      1.0  0.12416  0.80589  0.49324  1.0000
  H   H1014     1.0  0.00143  0.98402  0.42653  1.0000
  H   H1015     1.0  0.72984  0.84357  0.29210  1.0000
  S   S227      1.0  0.93904  0.96024  0.65556  1.0000
  Fe  Fe114     1.0  0.08995  0.85714  0.39855  1.0000
  H   H1016     1.0  0.79674  0.96763  0.30224  1.0000
  H   H1017     1.0  0.14296  0.75643  0.65394  1.0000
  H   H1018     1.0  0.13192  0.93162  0.26077  1.0000
  H   H1019     1.0  0.67817  0.94145  0.60031  1.0000
  C   C836      1.0  0.14316  0.88804  0.59043  1.0000
  H   H1020     1.0  0.80285  0.96986  0.44253  1.0000
  C   C837      1.0  0.72645  0.98351  0.37186  1.0000
  H   H1021     1.0  0.98593  0.96140  0.47809  1.0000
  C   C838      1.0  0.00683  0.73935  0.67170  1.0000
  C   C839      1.0  0.15886  0.94307  0.26326  1.0000
  C   C840      1.0  0.93335  0.87676  0.71722  1.0000
  N   N57       1.0  0.16051  0.97483  0.29746  1.0000
  H   H1022     1.0  0.00890  0.11724  0.83403  1.0000
  H   H1023     1.0  0.14717  0.06197  0.88490  1.0000
  S   S228      1.0  0.86952  0.05535  0.85204  1.0000
  C   C841      1.0  0.70714  0.07630  0.05525  1.0000
  C   C842      1.0  0.05546  0.15631  0.11125  1.0000
  H   H1024     1.0  0.68186  0.13590  0.76463  1.0000
  H   H1025     1.0  0.11679  0.09309  0.91095  1.0000
  H   H1026     1.0  0.66599  0.11641  0.19884  1.0000
  H   H1027     1.0  0.82838  0.18838  0.12194  1.0000
  S   S229      1.0  0.69510  0.18003  0.88145  1.0000
  C   C843      1.0  0.72810  0.09141  0.97119  1.0000
  S   S230      1.0  0.91084  0.03887  0.01752  1.0000
  H   H1028     1.0  0.81494  0.15773  0.92314  1.0000
  H   H1029     1.0  0.07551  0.00842  0.94815  1.0000
  H   H1030     1.0  0.87188  0.16708  0.15546  1.0000
  H   H1031     1.0  0.92544  0.98962  0.84246  1.0000
  C   C844      1.0  0.12008  0.05642  0.07587  1.0000
  S   S231      1.0  0.93417  0.10921  0.97728  1.0000
  Fe  Fe115     1.0  0.97025  0.02033  0.02179  1.0000
  C   C845      1.0  0.97082  0.12079  0.72217  1.0000
  C   C846      1.0  0.15055  0.07631  0.08712  1.0000
  C   C847      1.0  0.14548  0.22560  0.12466  1.0000
  H   H1032     1.0  0.84980  0.10294  0.93554  1.0000
  C   C848      1.0  0.66731  0.13947  0.17651  1.0000
  H   H1033     1.0  0.14338  0.21210  0.08340  1.0000
  C   C849      1.0  0.87535  0.18791  0.05197  1.0000
  H   H1034     1.0  0.69507  0.08301  0.09185  1.0000
  H   H1035     1.0  0.09287  0.08412  0.81640  1.0000
  S   S232      1.0  0.70300  0.14201  0.03774  1.0000
  C   C850      1.0  0.84106  0.09218  0.84322  1.0000
  C   C851      1.0  0.15165  0.13547  0.77747  1.0000
  H   H1036     1.0  0.73319  0.11007  0.94350  1.0000
  Fe  Fe116     1.0  0.66778  0.23065  0.88916  1.0000
  H   H1037     1.0  0.12761  0.15191  0.90734  1.0000
  C   C852      1.0  0.94085  0.15140  0.79100  1.0000
  C   C853      1.0  0.98980  0.99164  0.21410  1.0000
  H   H1038     1.0  0.99247  0.07760  0.81125  1.0000
  H   H1039     1.0  0.06264  0.05118  0.02897  1.0000
  Fe  Fe117     1.0  0.99209  0.08494  0.98517  1.0000
  C   C854      1.0  0.77883  0.23283  0.18253  1.0000
  C   C855      1.0  0.09128  0.15067  0.14800  1.0000
  H   H1040     1.0  0.03486  0.05232  0.20996  1.0000
  S   S233      1.0  0.78062  0.19435  0.82051  1.0000
  H   H1041     1.0  0.89313  0.16442  0.06149  1.0000
  H   H1042     1.0  0.99620  0.15043  0.09776  1.0000
  N   N58       1.0  0.95408  0.11812  0.77282  1.0000
  C   C856      1.0  0.92370  0.09490  0.75546  1.0000
  C   C857      1.0  0.98309  0.10336  0.82177  1.0000
  C   C858      1.0  0.10508  0.09965  0.79123  1.0000
  H   H1043     1.0  0.11444  0.15838  0.13233  1.0000
  Fe  Fe118     1.0  0.74754  0.20626  0.88803  1.0000
  H   H1044     1.0  0.92149  0.19149  0.21749  1.0000
  Fe  Fe119     1.0  0.93575  0.08498  0.06126  1.0000
  C   C859      1.0  0.91742  0.21419  0.13344  1.0000
  C   C860      1.0  0.74326  0.11374  0.21665  1.0000
  H   H1045     1.0  0.05242  0.16741  0.06936  1.0000
  C   C861      1.0  0.80543  0.13471  0.78024  1.0000
  H   H1046     1.0  0.86129  0.06868  0.09003  1.0000
  C   C862      1.0  0.82429  0.10330  0.78722  1.0000
  H   H1047     1.0  0.81780  0.00180  0.82554  1.0000
  H   H1048     1.0  0.82784  0.03076  0.13484  1.0000
  C   C863      1.0  0.00190  0.21391  0.97488  1.0000
  H   H1049     1.0  0.72375  0.09801  0.18865  1.0000
  S   S234      1.0  0.09354  0.01438  0.83775  1.0000
  H   H1050     1.0  0.88087  0.14318  0.77756  1.0000
  H   H1051     1.0  0.12294  0.03275  0.09583  1.0000
  C   C864      1.0  0.15752  0.14378  0.90849  1.0000
  C   C865      1.0  0.85010  0.04419  0.16215  1.0000
  H   H1052     1.0  0.94300  0.22020  0.97335  1.0000
  H   H1053     1.0  0.72832  0.99260  0.85261  1.0000
  H   H1054     1.0  0.70863  0.02451  0.06924  1.0000
  N   N59       1.0  0.87750  0.20877  0.10587  1.0000
  C   C866      1.0  0.95497  0.20775  0.82723  1.0000
  C   C867      1.0  0.83730  0.11168  0.89219  1.0000
  S   S235      1.0  0.92130  0.11077  0.14001  1.0000
  H   H1055     1.0  0.74813  0.23029  0.09282  1.0000
  C   C868      1.0  0.96671  0.17618  0.80976  1.0000
  H   H1056     1.0  0.10975  0.14079  0.00272  1.0000
  C   C869      1.0  0.71403  0.10062  0.02014  1.0000
  C   C870      1.0  0.09647  0.13467  0.20180  1.0000
  H   H1057     1.0  0.82716  0.08826  0.74924  1.0000
  C   C871      1.0  0.72956  0.03358  0.99447  1.0000
  C   C872      1.0  0.13239  0.13885  0.71911  1.0000
  H   H1058     1.0  0.79368  0.14369  0.73686  1.0000
  C   C873      1.0  0.08202  0.09745  0.01205  1.0000
  H   H1059     1.0  0.96025  0.00907  0.12964  1.0000
  C   C874      1.0  0.71503  0.04298  0.04264  1.0000
  Fe  Fe120     1.0  0.71122  0.18091  0.97889  1.0000
  S   S236      1.0  0.76613  0.20328  0.98548  1.0000
  H   H1060     1.0  0.99640  0.17114  0.81214  1.0000
  H   H1061     1.0  0.00443  0.18824  0.98617  1.0000
  H   H1062     1.0  0.71335  0.16724  0.76813  1.0000
  C   C875      1.0  0.98214  0.99202  0.15303  1.0000
  C   C876      1.0  0.91729  0.21554  0.82704  1.0000
  H   H1063     1.0  0.73837  0.00243  0.75539  1.0000
  N   N60       1.0  0.69387  0.16181  0.21396  1.0000
  H   H1064     1.0  0.13055  0.99266  0.18382  1.0000
  H   H1065     1.0  0.99153  0.99098  0.84467  1.0000
  S   S237      1.0  0.07682  0.20645  0.97828  1.0000
  H   H1066     1.0  0.88494  0.20031  0.01783  1.0000
  C   C877      1.0  0.11274  0.11711  0.02266  1.0000
  C   C878      1.0  0.14704  0.10653  0.06005  1.0000
  H   H1067     1.0  0.74650  0.05069  0.92031  1.0000
  H   H1068     1.0  0.91054  0.09115  0.79215  1.0000
  C   C879      1.0  0.08200  0.02291  0.19122  1.0000
  C   C880      1.0  0.69328  0.15196  0.73731  1.0000
  C   C881      1.0  0.81741  0.14261  0.88521  1.0000
  C   C882      1.0  0.02384  0.14652  0.12692  1.0000
  C   C883      1.0  0.85830  0.19208  0.14394  1.0000
  S   S238      1.0  0.03897  0.11125  0.96634  1.0000
  H   H1069     1.0  0.07248  0.02616  0.14456  1.0000
  H   H1070     1.0  0.99649  0.13485  0.73321  1.0000
  C   C884      1.0  0.02787  0.13101  0.17952  1.0000
  H   H1071     1.0  0.84425  0.00827  0.92244  1.0000
  C   C885      1.0  0.80222  0.15443  0.82928  1.0000
  S   S239      1.0  0.99527  0.06433  0.07232  1.0000
  C   C886      1.0  0.69419  0.19145  0.17995  1.0000
  C   C887      1.0  0.97363  0.20912  0.21462  1.0000
  C   C888      1.0  0.86890  0.06590  0.13676  1.0000
  H   H1072     1.0  0.70916  0.21161  0.20704  1.0000
  H   H1073     1.0  0.86189  0.19784  0.80948  1.0000
  H   H1074     1.0  0.84616  0.18113  0.03193  1.0000
  S   S240      1.0  0.97176  0.03914  0.93541  1.0000
  C   C889      1.0  0.13906  0.11523  0.81510  1.0000
  C   C890      1.0  0.93573  0.20384  0.19054  1.0000
  H   H1075     1.0  0.70810  0.18530  0.14336  1.0000
  Fe  Fe121     1.0  0.91393  0.06126  0.93447  1.0000
  H   H1076     1.0  0.97209  0.10284  0.86170  1.0000
  H   H1077     1.0  0.00311  0.12306  0.19105  1.0000
  Fe  Fe122     1.0  0.06705  0.00451  0.74372  1.0000
  H   H1078     1.0  0.93446  0.07002  0.74250  1.0000
  C   C891      1.0  0.89674  0.08452  0.17184  1.0000
  C   C892      1.0  0.73554  0.05779  0.95803  1.0000
  C   C893      1.0  0.14623  0.08652  0.90750  1.0000
  C   C894      1.0  0.90255  0.16029  0.79075  1.0000
  C   C895      1.0  0.08588  0.06692  0.03827  1.0000
  H   H1079     1.0  0.77756  0.20688  0.18892  1.0000
  H   H1080     1.0  0.67527  0.13300  0.13477  1.0000
  C   C896      1.0  0.89115  0.19187  0.80879  1.0000
  H   H1081     1.0  0.85804  0.20682  0.18487  1.0000
  C   C897      1.0  0.03309  0.22877  0.96623  1.0000
  C   C898      1.0  0.08590  0.10339  0.73293  1.0000
  H   H1082     1.0  0.81045  0.98945  0.72268  1.0000
  N   N61       1.0  0.16035  0.11178  0.87655  1.0000
  C   C899      1.0  0.96723  0.23210  0.96810  1.0000
  H   H1083     1.0  0.97543  0.22596  0.84277  1.0000
  S   S241      1.0  0.67906  0.22935  0.98646  1.0000
  C   C900      1.0  0.11475  0.00318  0.21407  1.0000
  H   H1084     1.0  0.13624  0.07835  0.20220  1.0000
  H   H1085     1.0  0.66523  0.20198  0.16024  1.0000
  S   S242      1.0  0.74011  0.99159  0.98030  1.0000
  H   H1086     1.0  0.08556  0.23229  0.11286  1.0000
  H   H1087     1.0  0.82620  0.99494  0.98034  1.0000
  C   C901      1.0  0.82454  0.99133  0.93275  1.0000
  H   H1088     1.0  0.79531  0.99971  0.91005  1.0000
  H   H1089     1.0  0.66231  0.03367  0.81258  1.0000
  C   C902      1.0  0.99451  0.22424  0.18263  1.0000
  H   H1090     1.0  0.02388  0.22811  0.20171  1.0000
  C   C903      1.0  0.06361  0.12499  0.21641  1.0000
  C   C904      1.0  0.93944  0.22995  0.10244  1.0000
  S   S243      1.0  0.67491  0.07148  0.71950  1.0000
  C   C905      1.0  0.97754  0.23438  0.12638  1.0000
  H   H1091     1.0  0.73779  0.18054  0.69208  1.0000
  H   H1092     1.0  0.06045  0.09083  0.71531  1.0000
  H   H1093     1.0  0.75567  0.19011  0.28225  1.0000
  H   H1094     1.0  0.85901  0.05776  0.49947  1.0000
  H   H1095     1.0  0.14431  0.99778  0.57211  1.0000
  H   H1096     1.0  0.90881  0.99643  0.32311  1.0000
  C   C906      1.0  0.79134  0.04386  0.37588  1.0000
  H   H1097     1.0  0.90242  0.07533  0.60894  1.0000
  S   S244      1.0  0.83721  0.01235  0.25449  1.0000
  H   H1098     1.0  0.75527  0.01888  0.26489  1.0000
  Fe  Fe123     1.0  0.69439  0.06905  0.63612  1.0000
  H   H1099     1.0  0.09711  0.13233  0.49313  1.0000
  C   C907      1.0  0.90515  0.08194  0.23255  1.0000
  C   C908      1.0  0.08392  0.08243  0.46600  1.0000
  H   H1100     1.0  0.95032  0.13315  0.68546  1.0000
  S   S245      1.0  0.72173  0.10953  0.60409  1.0000
  C   C909      1.0  0.00229  0.22523  0.64574  1.0000
  H   H1101     1.0  0.70933  0.13525  0.71212  1.0000
  H   H1102     1.0  0.04642  0.18836  0.63835  1.0000
  C   C910      1.0  0.03674  0.06068  0.50649  1.0000
  N   N62       1.0  0.66310  0.17265  0.69885  1.0000
  H   H1103     1.0  0.95439  0.03103  0.42718  1.0000
  C   C911      1.0  0.80956  0.22645  0.55444  1.0000
  C   C912      1.0  0.10440  0.01286  0.31103  1.0000
  S   S246      1.0  0.00895  0.99562  0.58561  1.0000
  C   C913      1.0  0.84441  0.01986  0.63538  1.0000
  H   H1104     1.0  0.72015  0.03477  0.30334  1.0000
  C   C914      1.0  0.80644  0.99508  0.43405  1.0000
  C   C915      1.0  0.79824  0.15108  0.28771  1.0000
  C   C916      1.0  0.78380  0.16354  0.55013  1.0000
  S   S247      1.0  0.73698  0.05723  0.50069  1.0000
  H   H1105     1.0  0.71369  0.00565  0.39133  1.0000
  Fe  Fe124     1.0  0.02697  0.04188  0.63552  1.0000
  C   C917      1.0  0.90675  0.99427  0.64080  1.0000
  H   H1106     1.0  0.98690  0.20158  0.25866  1.0000
  H   H1107     1.0  0.84929  0.99959  0.51397  1.0000
  N   N63       1.0  0.75512  0.99264  0.34185  1.0000
  C   C918      1.0  0.78432  0.01066  0.38345  1.0000
  H   H1108     1.0  0.06428  0.03373  0.44588  1.0000
  C   C919      1.0  0.05445  0.11649  0.53187  1.0000
  S   S248      1.0  0.08679  0.02200  0.66836  1.0000
  H   H1109     1.0  0.06065  0.17498  0.42270  1.0000
  S   S249      1.0  0.15645  0.16345  0.44352  1.0000
  H   H1110     1.0  0.11505  0.13186  0.32109  1.0000
  H   H1111     1.0  0.14848  0.01456  0.50459  1.0000
  C   C920      1.0  0.07984  0.11248  0.49601  1.0000
  H   H1112     1.0  0.71363  0.99772  0.25957  1.0000
  C   C921      1.0  0.03426  0.09000  0.53928  1.0000
  C   C922      1.0  0.06074  0.03778  0.22803  1.0000
  Fe  Fe125     1.0  0.69095  0.09380  0.51431  1.0000
  H   H1113     1.0  0.84491  0.21326  0.63832  1.0000
  S   S250      1.0  0.01117  0.09147  0.59606  1.0000
  H   H1114     1.0  0.12292  0.08034  0.27048  1.0000
  H   H1115     1.0  0.95752  0.00383  0.33772  1.0000
  C   C923      1.0  0.85633  0.05001  0.62356  1.0000
  H   H1116     1.0  0.82272  0.08586  0.41116  1.0000
  C   C924      1.0  0.09974  0.12261  0.69684  1.0000
  H   H1117     1.0  0.90126  0.10368  0.71742  1.0000
  C   C925      1.0  0.71646  0.19750  0.66729  1.0000
  S   S251      1.0  0.82524  0.08495  0.61246  1.0000
  H   H1118     1.0  0.75908  0.22361  0.64358  1.0000
  H   H1119     1.0  0.00157  0.16221  0.44674  1.0000
  C   C926      1.0  0.06083  0.22399  0.46164  1.0000
  H   H1120     1.0  0.90584  0.02325  0.41986  1.0000
  C   C927      1.0  0.81816  0.06044  0.41734  1.0000
  H   H1121     1.0  0.05523  0.04413  0.31651  1.0000
  C   C928      1.0  0.76899  0.18465  0.50402  1.0000
  H   H1122     1.0  0.77409  0.13895  0.54844  1.0000
  C   C929      1.0  0.13541  0.14201  0.29973  1.0000
  C   C930      1.0  0.74146  0.22475  0.40479  1.0000
  C   C931      1.0  0.99417  0.20942  0.48915  1.0000
  H   H1123     1.0  0.92651  0.09647  0.25981  1.0000
  H   H1124     1.0  0.97933  0.09618  0.70507  1.0000
  C   C932      1.0  0.82393  0.20521  0.60053  1.0000
  C   C933      1.0  0.91823  0.02417  0.62680  1.0000
  H   H1125     1.0  0.12954  0.16924  0.29800  1.0000
  C   C934      1.0  0.03932  0.21175  0.65848  1.0000
  H   H1126     1.0  0.96822  0.20373  0.49951  1.0000
  H   H1127     1.0  0.89383  0.05745  0.30471  1.0000
  C   C935      1.0  0.78199  0.21670  0.50438  1.0000
  H   H1128     1.0  0.83641  0.10863  0.28420  1.0000
  H   H1129     1.0  0.71536  0.21807  0.41638  1.0000
  C   C936      1.0  0.80768  0.11896  0.27063  1.0000
  H   H1130     1.0  0.06541  0.11218  0.25608  1.0000
  H   H1131     1.0  0.14299  0.15396  0.69095  1.0000
  C   C937      1.0  0.86978  0.99205  0.64482  1.0000
  C   C938      1.0  0.93535  0.01289  0.43593  1.0000
  S   S252      1.0  0.12020  0.07572  0.43011  1.0000
  C   C939      1.0  0.72921  0.22205  0.63902  1.0000
  H   H1132     1.0  0.02038  0.04053  0.51058  1.0000
  C   C940      1.0  0.06133  0.05694  0.46935  1.0000
  C   C941      1.0  0.83320  0.01187  0.47516  1.0000
  H   H1133     1.0  0.94624  0.02595  0.62149  1.0000
  C   C942      1.0  0.01279  0.18608  0.45918  1.0000
  C   C943      1.0  0.07216  0.03307  0.28785  1.0000
  C   C944      1.0  0.88680  0.05976  0.25788  1.0000
  H   H1134     1.0  0.05224  0.13939  0.55637  1.0000
  Fe  Fe126     1.0  0.70815  0.02112  0.53988  1.0000
  H   H1135     1.0  0.75496  0.20248  0.38698  1.0000
  H   H1136     1.0  0.82227  0.15717  0.63390  1.0000
  C   C945      1.0  0.73527  0.01199  0.29032  1.0000
  H   H1137     1.0  0.98062  0.21218  0.61562  1.0000
  H   H1138     1.0  0.11083  0.00981  0.35759  1.0000
  C   C946      1.0  0.89327  0.05217  0.61919  1.0000
  C   C947      1.0  0.81114  0.17374  0.59825  1.0000
  C   C948      1.0  0.83880  0.04457  0.46703  1.0000
  S   S253      1.0  0.00901  0.02824  0.71440  1.0000
  S   S254      1.0  0.74095  0.03106  0.63116  1.0000
  H   H1139     1.0  0.77655  0.05762  0.33835  1.0000
  Fe  Fe127     1.0  0.76584  0.07060  0.59263  1.0000
  C   C949      1.0  0.67882  0.17176  0.26564  1.0000
  H   H1140     1.0  0.15830  0.03877  0.57051  1.0000
  C   C950      1.0  0.73264  0.14653  0.23320  1.0000
  N   N64       1.0  0.13407  0.12715  0.24084  1.0000
  H   H1141     1.0  0.67902  0.15028  0.29322  1.0000
  H   H1142     1.0  0.74735  0.17516  0.46881  1.0000
  H   H1143     1.0  0.08698  0.22773  0.45046  1.0000
  C   C951      1.0  0.67752  0.19614  0.66504  1.0000
  C   C952      1.0  0.12643  0.99675  0.27456  1.0000
  S   S255      1.0  0.66961  0.12998  0.44324  1.0000
  H   H1144     1.0  0.81588  0.01804  0.63809  1.0000
  H   H1145     1.0  0.81986  0.16574  0.31431  1.0000
  H   H1146     1.0  0.97387  0.00841  0.23748  1.0000
  H   H1147     1.0  0.69497  0.19096  0.29354  1.0000
  H   H1148     1.0  0.94113  0.01157  0.48413  1.0000
  C   C953      1.0  0.76134  0.16476  0.26931  1.0000
  H   H1149     1.0  0.08516  0.12474  0.65151  1.0000
  C   C954      1.0  0.04609  0.19331  0.44566  1.0000
  C   C955      1.0  0.16141  0.01322  0.55224  1.0000
  C   C956      1.0  0.93743  0.98605  0.34427  1.0000
  C   C957      1.0  0.06723  0.22844  0.69705  1.0000
  C   C958      1.0  0.14128  0.09091  0.24599  1.0000
  Fe  Fe128     1.0  0.16142  0.11181  0.47355  1.0000
  C   C959      1.0  0.85960  0.04050  0.22258  1.0000
  H   H1150     1.0  0.81745  0.22899  0.42266  1.0000
  C   C960      1.0  0.78028  0.10035  0.23516  1.0000
  S   S256      1.0  0.15437  0.22205  0.58045  1.0000
  H   H1151     1.0  0.78790  0.07552  0.22104  1.0000
  H   H1152     1.0  0.09601  0.21777  0.70721  1.0000
