data_image0
_chemical_formula_structural       FeCSFeS2FeHSFeS2HFeHS2HC2H2CHC2HC6H5C2HNC2HCHSH12FeC2HCNH2C2H3CHSH2NCSCHC4H2CSFeC3SC2H7CHC2HFeS2Fe2SHC6H4CHCHC2FeS5C5H3CSNH2CH2CH4C3H5CH2CHC2H7C2H3CHCHC3NHC2H2C2H2C3HCHNCH2CH4CH3SFeS2FeS2FeSFeS3C3H2C3H2C6H8C3H6SNH2CH2C3H2CNH2CH2CHC6HCHCHFeHCHC4FeS2FeS2HSCFeHFeSCSC2H2CHC2SHSC6H4CSHCH3C3H5SH2FeHNC4H6C3FeCNC4H7FeC5HCH2FeC2HC2H2NHCH4SC2H2CH2FeS3FeSFeS2C6H9FeS2C4HCH4C2HCNC2H5CH5CHCH3CH3CH7C3SCH2CSNHCHC6HCHCH3CHNCHC2H4C3H4CNHFeS2FeS2FeSFeS3C3H2C3H2C6H7CH2NC6HC2H12CH2C4SC5H7CNCH4C4HCHCSCH7CHC3HCH2FeSFeS2FeHCS2FeS2FeHSFeH2S2HC3HC2H3C6H4C3HC4HCH2NHNH3FeHSHC4H6C2HSH3CH3SHCHC3H2CHC4H2CHC3SFeC3H3S2HC6H5FeSFeS2FeSFeS2C2H5CHCH2C2H3CHC5HCH12C2H3CH3C4H3NC2HCNC2HCHNHC5SHC2H6NCH2SFeS2FeS2FeSFeS3C4HC3NHC6H4C2H2NH3CH3C4H4CHC5H5C4H4CH4C2H3CH3CH2CHCH2CH2CH3CH3C3H2CFeS3FeSFeS2FeS2FeS2HCFeS3C2H4CHCHC6H5C2H2C2H2CFeHSH2C2H4CHCFeNHCH2C2HCHNH5C4NCHC2H5CHC2H2CFeS2C6H4CHFeS3FeSFeS2C3HCH4C3H3CNHC4H5NCH2CH2C3H2CH2CH2SHC2H2C3H3CHCH5SCFeS2FeS2FeSFeS3C3H2C3H2C6H6NC9H12CH2CHCH2CHC3HNC3H4C2H2CH3CHCH2
_chemical_formula_sum              "Fe64 C480 S128 H576 N32"
_cell_length_a       37.5926
_cell_length_b       37.8095
_cell_length_c       42.5096
_cell_angle_alpha    87.8104
_cell_angle_beta     82.4956
_cell_angle_gamma    89.1022

_space_group_name_H-M_alt    "P 1"
_space_group_IT_number       1

loop_
  _space_group_symop_operation_xyz
  'x, y, z'

loop_
  _atom_site_type_symbol
  _atom_site_label
  _atom_site_symmetry_multiplicity
  _atom_site_fract_x
  _atom_site_fract_y
  _atom_site_fract_z
  _atom_site_occupancy
  Fe  Fe1       1.0  0.33126  0.30142  0.07122  1.0000
  C   C1        1.0  0.25654  0.19415  0.07140  1.0000
  S   S1        1.0  0.32117  0.25589  0.10755  1.0000
  Fe  Fe2       1.0  0.32555  0.38028  0.05406  1.0000
  S   S2        1.0  0.36564  0.34793  0.07780  1.0000
  S   S3        1.0  0.28856  0.33442  0.05178  1.0000
  Fe  Fe3       1.0  0.19508  0.13577  0.28096  1.0000
  H   H1        1.0  0.43216  0.21891  0.12981  1.0000
  S   S4        1.0  0.21282  0.08360  0.25904  1.0000
  Fe  Fe4       1.0  0.19615  0.21524  0.26639  1.0000
  S   S5        1.0  0.17289  0.22747  0.31659  1.0000
  S   S6        1.0  0.20478  0.26160  0.23056  1.0000
  H   H2        1.0  0.42186  0.24115  0.16705  1.0000
  Fe  Fe5       1.0  0.13512  0.18283  0.31205  1.0000
  H   H3        1.0  0.46581  0.33618  0.10240  1.0000
  S   S7        1.0  0.23736  0.17715  0.28203  1.0000
  S   S8        1.0  0.15577  0.17327  0.26109  1.0000
  H   H4        1.0  0.44033  0.25359  0.07943  1.0000
  C   C2        1.0  0.20007  0.04245  0.27805  1.0000
  C   C3        1.0  0.17552  0.04046  0.30574  1.0000
  H   H5        1.0  0.37707  0.29843  0.14097  1.0000
  H   H6        1.0  0.16295  0.06433  0.31533  1.0000
  C   C4        1.0  0.40614  0.30415  0.14085  1.0000
  H   H7        1.0  0.23691  0.18259  0.09070  1.0000
  C   C5        1.0  0.04274  0.18387  0.27988  1.0000
  C   C6        1.0  0.34150  0.47601  0.02790  1.0000
  H   H8        1.0  0.06907  0.18005  0.26677  1.0000
  C   C7        1.0  0.28879  0.25813  0.14166  1.0000
  C   C8        1.0  0.28345  0.22829  0.16238  1.0000
  C   C9        1.0  0.25784  0.22898  0.18969  1.0000
  C   C10       1.0  0.23729  0.25957  0.19647  1.0000
  C   C11       1.0  0.24247  0.28933  0.17559  1.0000
  C   C12       1.0  0.26813  0.28867  0.14830  1.0000
  H   H9        1.0  0.29923  0.20451  0.15742  1.0000
  H   H10       1.0  0.25404  0.20587  0.20553  1.0000
  H   H11       1.0  0.22677  0.31314  0.18068  1.0000
  H   H12       1.0  0.27204  0.31187  0.13258  1.0000
  H   H13       1.0  0.42899  0.29980  0.07833  1.0000
  C   C13       1.0  0.27965  0.10118  0.31994  1.0000
  C   C14       1.0  0.49103  0.29139  0.03125  1.0000
  H   H14       1.0  0.41100  0.30691  0.16591  1.0000
  N   N1        1.0  0.24095  0.22342  0.05307  1.0000
  C   C15       1.0  0.27109  0.24059  0.03220  1.0000
  C   C16       1.0  0.22472  0.25009  0.07547  1.0000
  H   H15       1.0  0.27133  0.12880  0.32586  1.0000
  C   C17       1.0  0.48986  0.32813  0.02607  1.0000
  H   H16       1.0  0.09290  0.30870  0.21828  1.0000
  S   S9        1.0  0.17151  0.14215  0.33162  1.0000
  H   H17       1.0  0.38856  0.23717  0.14091  1.0000
  H   H18       1.0  0.28900  0.50335  0.09389  1.0000
  H   H19       1.0  0.03686  0.25544  0.28371  1.0000
  H   H20       1.0  0.12641  0.33286  0.29280  1.0000
  H   H21       1.0  0.29211  0.24972  0.04609  1.0000
  H   H22       1.0  0.13627  0.15984  0.04808  1.0000
  H   H23       1.0  0.24520  0.26182  0.08861  1.0000
  H   H24       1.0  0.11427  0.34251  0.23760  1.0000
  H   H25       1.0  0.28452  0.22191  0.01466  1.0000
  H   H26       1.0  0.09634  0.24116  0.28472  1.0000
  H   H27       1.0  0.27920  0.20332  0.08339  1.0000
  H   H28       1.0  0.18115  0.18526  0.07710  1.0000
  Fe  Fe6       1.0  0.21126  0.18611  0.33191  1.0000
  C   C18       1.0  0.41773  0.24177  0.14158  1.0000
  C   C19       1.0  0.30651  0.50495  0.07157  1.0000
  H   H29       1.0  0.13894  0.30387  0.22524  1.0000
  C   C20       1.0  0.10285  0.25660  0.26192  1.0000
  N   N2        1.0  0.09986  0.29530  0.26672  1.0000
  H   H30       1.0  0.07644  0.36320  0.27928  1.0000
  H   H31       1.0  0.30831  0.10230  0.30965  1.0000
  C   C21       1.0  0.12491  0.30398  0.28945  1.0000
  C   C22       1.0  0.06307  0.30723  0.27897  1.0000
  H   H32       1.0  0.26204  0.26450  0.01913  1.0000
  H   H33       1.0  0.11662  0.29091  0.31318  1.0000
  H   H34       1.0  0.41063  0.33044  0.12856  1.0000
  C   C23       1.0  0.31919  0.03201  0.32585  1.0000
  H   H35       1.0  0.08500  0.24799  0.24481  1.0000
  S   S10       1.0  0.45135  0.35049  0.01505  1.0000
  H   H36       1.0  0.13060  0.24856  0.25221  1.0000
  H   H37       1.0  0.39474  0.26793  0.08968  1.0000
  N   N3        1.0  0.42939  0.27598  0.12538  1.0000
  C   C24       1.0  0.03907  0.18699  0.31286  1.0000
  S   S11       1.0  0.07680  0.18818  0.33388  1.0000
  C   C25       1.0  0.11186  0.31347  0.23566  1.0000
  H   H38       1.0  0.15284  0.29492  0.28111  1.0000
  C   C26       1.0  0.49194  0.25947  0.13861  1.0000
  C   C27       1.0  0.21302  0.20947  0.03542  1.0000
  C   C28       1.0  0.03391  0.28355  0.28641  1.0000
  C   C29       1.0  0.42307  0.27431  0.09179  1.0000
  H   H39       1.0  0.48368  0.23379  0.14862  1.0000
  H   H40       1.0  0.21209  0.27219  0.06267  1.0000
  C   C30       1.0  0.31884  0.47366  0.05673  1.0000
  S   S12       1.0  0.30361  0.43231  0.07386  1.0000
  Fe  Fe7       1.0  0.39223  0.33765  0.02848  1.0000
  C   C31       1.0  0.48215  0.31669  0.11333  1.0000
  C   C32       1.0  0.46767  0.28401  0.12636  1.0000
  C   C33       1.0  0.18392  0.18974  0.05164  1.0000
  S   S13       1.0  0.36059  0.28857  0.02299  1.0000
  C   C34       1.0  0.15798  0.17522  0.03527  1.0000
  C   C35       1.0  0.05558  0.34365  0.28410  1.0000
  H   H41       1.0  0.26422  0.09292  0.30085  1.0000
  H   H42       1.0  0.20383  0.23856  0.09375  1.0000
  H   H43       1.0  0.26700  0.17247  0.05561  1.0000
  H   H44       1.0  0.33948  0.05220  0.32224  1.0000
  H   H45       1.0  0.25563  0.47571  0.01969  1.0000
  H   H46       1.0  0.46788  0.27583  0.02838  1.0000
  H   H47       1.0  0.28566  0.42182  0.01269  1.0000
  C   C36       1.0  0.02108  0.35551  0.29578  1.0000
  H   H48       1.0  0.35140  0.45218  0.01638  1.0000
  C   C37       1.0  0.35076  0.50935  0.01360  1.0000
  C   C38       1.0  0.28343  0.04016  0.33897  1.0000
  H   H49       1.0  0.23838  0.42046  0.00887  1.0000
  Fe  Fe8       1.0  0.30261  0.37654  0.54590  1.0000
  S   S14       1.0  0.34821  0.36455  0.50822  1.0000
  S   S15       1.0  0.27774  0.43046  0.55665  1.0000
  Fe  Fe9       1.0  0.36707  0.32667  0.54509  1.0000
  Fe  Fe10      1.0  0.31405  0.31908  0.49636  1.0000
  S   S16       1.0  0.29890  0.31315  0.44635  1.0000
  H   H50       1.0  0.16014  0.15247  0.46883  1.0000
  C   C39       1.0  0.25857  0.21983  0.39392  1.0000
  C   C40       1.0  0.27459  0.21337  0.42176  1.0000
  C   C41       1.0  0.28712  0.24148  0.43814  1.0000
  C   C42       1.0  0.28358  0.27648  0.42692  1.0000
  C   C43       1.0  0.26761  0.28289  0.39906  1.0000
  C   C44       1.0  0.25509  0.25480  0.38267  1.0000
  H   H51       1.0  0.27753  0.18644  0.43063  1.0000
  H   H52       1.0  0.30009  0.23602  0.45908  1.0000
  H   H53       1.0  0.26507  0.30980  0.38996  1.0000
  H   H54       1.0  0.33644  0.30113  0.64567  1.0000
  C   C45       1.0  0.47477  0.31548  0.51954  1.0000
  H   H55       1.0  0.45465  0.31361  0.50367  1.0000
  C   C46       1.0  0.30491  0.46846  0.55307  1.0000
  H   H56       1.0  0.17373  0.23583  0.39757  1.0000
  C   C47       1.0  0.34070  0.46709  0.53918  1.0000
  C   C48       1.0  0.27554  0.48650  0.47219  1.0000
  Fe  Fe11      1.0  0.29165  0.29791  0.56611  1.0000
  S   S17       1.0  0.33702  0.28007  0.53012  1.0000
  S   S18       1.0  0.25819  0.25554  0.59500  1.0000
  S   S19       1.0  0.41879  0.32712  0.56770  1.0000
  S   S20       1.0  0.32272  0.34136  0.58353  1.0000
  S   S21       1.0  0.26731  0.33425  0.53176  1.0000
  C   C49       1.0  0.24909  0.25725  0.63676  1.0000
  C   C50       1.0  0.47590  0.45298  0.53044  1.0000
  C   C51       1.0  0.16520  0.19193  0.43097  1.0000
  C   C52       1.0  0.36171  0.24517  0.61226  1.0000
  C   C53       1.0  0.25738  0.28709  0.65270  1.0000
  H   H57       1.0  0.43152  0.26904  0.60585  1.0000
  H   H58       1.0  0.16548  0.28307  0.54599  1.0000
  H   H59       1.0  0.26856  0.31014  0.63935  1.0000
  C   C54       1.0  0.46433  0.32193  0.55158  1.0000
  S   S22       1.0  0.24319  0.18341  0.37425  1.0000
  N   N4        1.0  0.19107  0.26331  0.50152  1.0000
  H   H60       1.0  0.35241  0.44221  0.53108  1.0000
  H   H61       1.0  0.38860  0.49688  0.52385  1.0000
  C   C55       1.0  0.50678  0.43176  0.52525  1.0000
  H   H62       1.0  0.34427  0.20599  0.66688  1.0000
  H   H63       1.0  0.23062  0.01531  0.35153  1.0000
  C   C56       1.0  0.16085  0.26381  0.52775  1.0000
  H   H64       1.0  0.24302  0.26021  0.36122  1.0000
  H   H65       1.0  0.29240  0.06980  0.39357  1.0000
  H   H66       1.0  0.45045  0.44119  0.54020  1.0000
  H   H67       1.0  0.50540  0.21913  0.66171  1.0000
  C   C57       1.0  0.25350  0.48152  0.44889  1.0000
  C   C58       1.0  0.40596  0.24314  0.64960  1.0000
  C   C59       1.0  0.36119  0.49811  0.53521  1.0000
  H   H68       1.0  0.15912  0.17389  0.41320  1.0000
  H   H69       1.0  0.13520  0.27125  0.51862  1.0000
  H   H70       1.0  0.28754  0.11531  0.38047  1.0000
  H   H71       1.0  0.21691  0.07447  0.34411  1.0000
  H   H72       1.0  0.24762  0.25145  0.49611  1.0000
  C   C60       1.0  0.51141  0.31129  0.50802  1.0000
  H   H73       1.0  0.22746  0.20455  0.64225  1.0000
  H   H74       1.0  0.33310  0.25009  0.60894  1.0000
  C   C61       1.0  0.47793  0.22574  0.65842  1.0000
  H   H75       1.0  0.45345  0.50546  0.52663  1.0000
  C   C62       1.0  0.19713  0.30044  0.48945  1.0000
  C   C63       1.0  0.23400  0.22772  0.65443  1.0000
  H   H76       1.0  0.15710  0.23777  0.54068  1.0000
  H   H77       1.0  0.37732  0.26198  0.59347  1.0000
  H   H78       1.0  0.17351  0.31153  0.47905  1.0000
  H   H79       1.0  0.28108  0.46458  0.48821  1.0000
  H   H80       1.0  0.48293  0.32914  0.59679  1.0000
  H   H81       1.0  0.22132  0.30256  0.47126  1.0000
  H   H82       1.0  0.18957  0.27674  0.43573  1.0000
  C   C64       1.0  0.36420  0.29214  0.64867  1.0000
  C   C65       1.0  0.18282  0.23914  0.47687  1.0000
  H   H83       1.0  0.17515  0.19249  0.50883  1.0000
  H   H84       1.0  0.20190  0.31824  0.50867  1.0000
  H   H85       1.0  0.38272  0.30759  0.63084  1.0000
  C   C66       1.0  0.28995  0.50100  0.56331  1.0000
  H   H86       1.0  0.23011  0.26763  0.53411  1.0000
  C   C67       1.0  0.22389  0.25081  0.51468  1.0000
  H   H87       1.0  0.24214  0.45569  0.44666  1.0000
  C   C68       1.0  0.43543  0.25363  0.62699  1.0000
  C   C69       1.0  0.18231  0.25034  0.44458  1.0000
  C   C70       1.0  0.17465  0.20310  0.48493  1.0000
  N   N5        1.0  0.36881  0.25350  0.64477  1.0000
  H   H88       1.0  0.22153  0.22340  0.52500  1.0000
  C   C71       1.0  0.16599  0.17994  0.46225  1.0000
  C   C72       1.0  0.17323  0.22703  0.42222  1.0000
  H   H89       1.0  0.22882  0.50572  0.41055  1.0000
  H   H90       1.0  0.22834  0.06349  0.38345  1.0000
  C   C73       1.0  0.49081  0.32418  0.57193  1.0000
  C   C74       1.0  0.50995  0.50413  0.50956  1.0000
  H   H91       1.0  0.36811  0.21698  0.60713  1.0000
  H   H92       1.0  0.32441  0.08951  0.36307  1.0000
  C   C75       1.0  0.47077  0.24489  0.63129  1.0000
  C   C76       1.0  0.23508  0.08072  0.36177  1.0000
  C   C77       1.0  0.29543  0.08821  0.37235  1.0000
  H   H93       1.0  0.26227  0.50222  0.57410  1.0000
  C   C78       1.0  0.47751  0.48912  0.52274  1.0000
  H   H94       1.0  0.31349  0.24148  0.66209  1.0000
  N   N6        1.0  0.27333  0.07675  0.34818  1.0000
  C   C79       1.0  0.24608  0.50975  0.42861  1.0000
  H   H95       1.0  0.22845  0.10839  0.36878  1.0000
  H   H96       1.0  0.20733  0.06085  0.67392  1.0000
  C   C80       1.0  0.34104  0.23526  0.66759  1.0000
  H   H97       1.0  0.50388  0.40372  0.53110  1.0000
  H   H98       1.0  0.49269  0.25330  0.61349  1.0000
  H   H99       1.0  0.36963  0.29978  0.67259  1.0000
  H   H100      1.0  0.33036  0.43397  0.96418  1.0000
  C   C81       1.0  0.21905  0.04383  0.69102  1.0000
  H   H101      1.0  0.18946  0.20392  0.96023  1.0000
  H   H102      1.0  0.21626  0.20488  0.70127  1.0000
  H   H103      1.0  0.23144  0.08725  0.71897  1.0000
  S   S23       1.0  0.28641  0.32188  0.96283  1.0000
  Fe  Fe12      1.0  0.17852  0.14149  0.80077  1.0000
  S   S24       1.0  0.15381  0.15787  0.84925  1.0000
  S   S25       1.0  0.16937  0.08838  0.77973  1.0000
  Fe  Fe13      1.0  0.20338  0.21681  0.78023  1.0000
  S   S26       1.0  0.18050  0.23830  0.82735  1.0000
  S   S27       1.0  0.22915  0.25927  0.74559  1.0000
  Fe  Fe14      1.0  0.20420  0.19004  0.84913  1.0000
  S   S28       1.0  0.23617  0.18924  0.89154  1.0000
  Fe  Fe15      1.0  0.13238  0.20490  0.82330  1.0000
  S   S29       1.0  0.07724  0.23107  0.83280  1.0000
  S   S30       1.0  0.23048  0.17019  0.80205  1.0000
  S   S31       1.0  0.15378  0.18680  0.77484  1.0000
  C   C82       1.0  0.20522  0.04277  0.81785  1.0000
  C   C83       1.0  0.18090  0.04645  0.79567  1.0000
  C   C84       1.0  0.23654  0.25747  0.70377  1.0000
  H   H104      1.0  0.21614  0.06611  0.82683  1.0000
  H   H105      1.0  0.14027  0.16857  0.98964  1.0000
  C   C85       1.0  0.04208  0.17781  0.80705  1.0000
  C   C86       1.0  0.03987  0.21177  0.81905  1.0000
  C   C87       1.0  0.12621  0.28695  0.77393  1.0000
  H   H106      1.0  0.06700  0.16291  0.80609  1.0000
  H   H107      1.0  0.15184  0.25411  0.72240  1.0000
  C   C88       1.0  0.25179  0.22688  0.90929  1.0000
  C   C89       1.0  0.27843  0.22243  0.92959  1.0000
  C   C90       1.0  0.29007  0.25131  0.94558  1.0000
  C   C91       1.0  0.27458  0.28486  0.94193  1.0000
  C   C92       1.0  0.24836  0.28940  0.92130  1.0000
  C   C93       1.0  0.23708  0.26065  0.90501  1.0000
  H   H108      1.0  0.29010  0.19643  0.93293  1.0000
  H   H109      1.0  0.31083  0.24755  0.96079  1.0000
  H   H110      1.0  0.23638  0.31526  0.91807  1.0000
  H   H111      1.0  0.21655  0.26448  0.88955  1.0000
  H   H112      1.0  0.04806  0.32745  0.73864  1.0000
  H   H113      1.0  0.13667  0.28490  0.69349  1.0000
  H   H114      1.0  0.14239  0.34653  0.73920  1.0000
  H   H115      1.0  0.36745  0.51090  0.99086  1.0000
  C   C94       1.0  0.27892  0.49562  0.94037  1.0000
  C   C95       1.0  0.25123  0.28711  0.68605  1.0000
  C   C96       1.0  0.30937  0.42368  0.95080  1.0000
  H   H116      1.0  0.09700  0.34739  0.75716  1.0000
  H   H117      1.0  0.17038  0.29681  0.71741  1.0000
  H   H118      1.0  0.28581  0.48469  0.91723  1.0000
  H   H119      1.0  0.12826  0.25797  0.77838  1.0000
  H   H120      1.0  0.21864  0.43044  0.95544  1.0000
  H   H121      1.0  0.15278  0.29803  0.77709  1.0000
  S   S32       1.0  0.35394  0.37320  0.00514  1.0000
  N   N7        1.0  0.27297  0.43429  0.96554  1.0000
  H   H122      1.0  0.24689  0.39301  0.94372  1.0000
  H   H123      1.0  0.25148  0.43358  0.92076  1.0000
  C   C97       1.0  0.07888  0.24178  0.73839  1.0000
  H   H124      1.0  0.26782  0.38573  0.99429  1.0000
  H   H125      1.0  0.39382  0.21569  0.69624  1.0000
  C   C98       1.0  0.16708  0.01588  0.78407  1.0000
  C   C99       1.0  0.22771  0.22780  0.68785  1.0000
  C   C100      1.0  0.26169  0.49023  0.99728  1.0000
  H   H126      1.0  0.10187  0.22486  0.74052  1.0000
  H   H127      1.0  0.25784  0.31028  0.69822  1.0000
  C   C101      1.0  0.18776  0.20009  0.98589  1.0000
  N   N8        1.0  0.11618  0.29584  0.74199  1.0000
  H   H128      1.0  0.45547  0.20085  0.70267  1.0000
  H   H129      1.0  0.23385  0.23042  0.98778  1.0000
  C   C102      1.0  0.14474  0.28233  0.71774  1.0000
  H   H130      1.0  0.04508  0.19667  0.73612  1.0000
  H   H131      1.0  0.10572  0.29675  0.79304  1.0000
  C   C103      1.0  0.11549  0.33505  0.73794  1.0000
  H   H132      1.0  0.31258  0.39433  0.95027  1.0000
  C   C104      1.0  0.44975  0.21545  0.68141  1.0000
  C   C105      1.0  0.04637  0.22532  0.73599  1.0000
  C   C106      1.0  0.08141  0.27916  0.73900  1.0000
  C   C107      1.0  0.27092  0.47329  0.96796  1.0000
  C   C108      1.0  0.04909  0.29899  0.73770  1.0000
  C   C109      1.0  0.23293  0.05883  0.71616  1.0000
  H   H133      1.0  0.10749  0.34351  0.71447  1.0000
  C   C110      1.0  0.24633  0.42243  0.94547  1.0000
  H   H134      1.0  0.31549  0.43350  0.92577  1.0000
  C   C111      1.0  0.26582  0.41491  0.99674  1.0000
  H   H135      1.0  0.14832  0.01856  0.76685  1.0000
  Fe  Fe16      1.0  0.31976  0.32496  0.00388  1.0000
  H   H136      1.0  0.34136  0.24376  0.69234  1.0000
  C   C112      1.0  0.24768  0.03721  0.73844  1.0000
  H   H137      1.0  0.25757  0.04908  0.75842  1.0000
  C   C113      1.0  0.16009  0.18015  0.00241  1.0000
  C   C114      1.0  0.21362  0.21492  0.00207  1.0000
  C   C115      1.0  0.41425  0.22408  0.67730  1.0000
  C   C116      1.0  0.01659  0.28218  0.73558  1.0000
  Fe  Fe17      1.0  0.31545  0.68486  0.08451  1.0000
  S   S33       1.0  0.29502  0.68559  0.13729  1.0000
  S   S34       1.0  0.36626  0.65430  0.06851  1.0000
  Fe  Fe18      1.0  0.15134  0.81052  0.30773  1.0000
  S   S35       1.0  0.16309  0.85591  0.27270  1.0000
  S   S36       1.0  0.09798  0.78171  0.31535  1.0000
  H   H138      1.0  0.21828  0.71464  0.10804  1.0000
  S   S37       1.0  0.24284  0.85818  0.29589  1.0000
  C   C117      1.0  0.17222  0.70815  0.18245  1.0000
  Fe  Fe19      1.0  0.18828  0.88146  0.31104  1.0000
  H   H139      1.0  0.49711  0.53325  0.04238  1.0000
  Fe  Fe20      1.0  0.21648  0.82818  0.26052  1.0000
  S   S38       1.0  0.23878  0.82525  0.20819  1.0000
  C   C118      1.0  0.50848  0.71997  0.03151  1.0000
  S   S39       1.0  0.20340  0.78100  0.29355  1.0000
  C   C119      1.0  0.18283  0.97611  0.30871  1.0000
  C   C120      1.0  0.20670  0.97796  0.28057  1.0000
  H   H140      1.0  0.09857  0.78881  0.18952  1.0000
  H   H141      1.0  0.21902  0.95400  0.27087  1.0000
  C   C121      1.0  0.16718  0.00746  0.32112  1.0000
  H   H142      1.0  0.19107  0.77458  0.11063  1.0000
  C   C122      1.0  0.05886  0.79912  0.30083  1.0000
  C   C123      1.0  0.06061  0.82689  0.27800  1.0000
  S   S40       1.0  0.17374  0.93573  0.33042  1.0000
  H   H143      1.0  0.08604  0.83909  0.26959  1.0000
  S   S41       1.0  0.33176  0.73340  0.05450  1.0000
  C   C124      1.0  0.27992  0.72475  0.15672  1.0000
  C   C125      1.0  0.27976  0.75752  0.14033  1.0000
  C   C126      1.0  0.26720  0.78801  0.15650  1.0000
  C   C127      1.0  0.25476  0.78612  0.18916  1.0000
  C   C128      1.0  0.25525  0.75340  0.20563  1.0000
  C   C129      1.0  0.26782  0.72289  0.18946  1.0000
  H   H144      1.0  0.28874  0.75935  0.11512  1.0000
  H   H145      1.0  0.26682  0.81321  0.14358  1.0000
  H   H146      1.0  0.24602  0.75160  0.23081  1.0000
  H   H147      1.0  0.26795  0.69766  0.20235  1.0000
  C   C130      1.0  0.47414  0.70764  0.04365  1.0000
  S   S42       1.0  0.28451  0.66146  0.04847  1.0000
  H   H148      1.0  0.30633  0.56225  0.06902  1.0000
  C   C131      1.0  0.26908  0.97767  0.33330  1.0000
  H   H149      1.0  0.44732  0.77254  0.09335  1.0000
  H   H150      1.0  0.20721  0.67259  0.15384  1.0000
  H   H151      1.0  0.49834  0.65226  0.10261  1.0000
  C   C132      1.0  0.20044  0.72209  0.12896  1.0000
  C   C133      1.0  0.19404  0.69835  0.15486  1.0000
  C   C134      1.0  0.31634  0.53835  0.05756  1.0000
  H   H152      1.0  0.16916  0.68868  0.20180  1.0000
  H   H153      1.0  0.44448  0.67321  0.07879  1.0000
  H   H154      1.0  0.39510  0.79644  0.11508  1.0000
  H   H155      1.0  0.08417  0.74366  0.19532  1.0000
  H   H156      1.0  0.15281  0.79275  0.15831  1.0000
  S   S43       1.0  0.43636  0.72453  0.02675  1.0000
  H   H157      1.0  0.15244  0.80824  0.21002  1.0000
  H   H158      1.0  0.44120  0.55686  0.06266  1.0000
  Fe  Fe21      1.0  0.30397  0.70854  0.01708  1.0000
  H   H159      1.0  0.02374  0.76218  0.32909  1.0000
  N   N9        1.0  0.13343  0.75413  0.21380  1.0000
  C   C135      1.0  0.12809  0.72635  0.23962  1.0000
  C   C136      1.0  0.15056  0.78458  0.22648  1.0000
  C   C137      1.0  0.09742  0.76538  0.20620  1.0000
  C   C138      1.0  0.15603  0.74240  0.18478  1.0000
  H   H160      1.0  0.44247  0.71472  0.18440  1.0000
  H   H161      1.0  0.39735  0.73737  0.09272  1.0000
  H   H162      1.0  0.15398  0.71832  0.24806  1.0000
  H   H163      1.0  0.11058  0.73598  0.26090  1.0000
  H   H164      1.0  0.11482  0.70264  0.23195  1.0000
  H   H165      1.0  0.17843  0.77776  0.23086  1.0000
  C   C139      1.0  0.51396  0.73930  0.13218  1.0000
  C   C140      1.0  0.33802  0.54062  0.02823  1.0000
  C   C141      1.0  0.32936  0.99775  0.31671  1.0000
  Fe  Fe22      1.0  0.38045  0.70129  0.03600  1.0000
  C   C142      1.0  0.47068  0.68282  0.06911  1.0000
  N   N10       1.0  0.39824  0.74718  0.14247  1.0000
  C   C143      1.0  0.37968  0.73251  0.17313  1.0000
  C   C144      1.0  0.38614  0.72696  0.11675  1.0000
  C   C145      1.0  0.43790  0.74505  0.13988  1.0000
  C   C146      1.0  0.45933  0.75983  0.11269  1.0000
  H   H166      1.0  0.07939  0.77317  0.22788  1.0000
  H   H167      1.0  0.38762  0.74650  0.19366  1.0000
  H   H168      1.0  0.34994  0.73528  0.17448  1.0000
  H   H169      1.0  0.38502  0.70362  0.17622  1.0000
  H   H170      1.0  0.39442  0.69865  0.11854  1.0000
  H   H171      1.0  0.35643  0.72783  0.11785  1.0000
  H   H172      1.0  0.13531  0.79296  0.24924  1.0000
  Fe  Fe23      1.0  0.33690  0.63545  0.02967  1.0000
  C   C147      1.0  0.16330  0.76597  0.15796  1.0000
  C   C148      1.0  0.45634  0.72721  0.16313  1.0000
  C   C149      1.0  0.50125  0.67099  0.08258  1.0000
  C   C150      1.0  0.49593  0.58782  0.02356  1.0000
  C   C151      1.0  0.18516  0.75586  0.13052  1.0000
  H   H173      1.0  0.51143  0.73916  0.01183  1.0000
  C   C152      1.0  0.38628  0.78460  0.13911  1.0000
  H   H174      1.0  0.39688  0.80120  0.15679  1.0000
  H   H175      1.0  0.35643  0.78716  0.14275  1.0000
  Fe  Fe24      1.0  0.22609  0.81253  0.33016  1.0000
  C   C153      1.0  0.49675  0.75718  0.10913  1.0000
  C   C154      1.0  0.02938  0.83859  0.26551  1.0000
  H   H176      1.0  0.51251  0.76783  0.08777  1.0000
  C   C155      1.0  0.49383  0.72441  0.15912  1.0000
  C   C156      1.0  0.43549  0.58266  0.05083  1.0000
  H   H177      1.0  0.44069  0.60390  0.06706  1.0000
  H   H178      1.0  0.40622  0.58306  0.04878  1.0000
  N   N11       1.0  0.45739  0.58781  0.01939  1.0000
  H   H179      1.0  0.50748  0.71005  0.17668  1.0000
  C   C157      1.0  0.51230  0.55703  0.03582  1.0000
  H   H180      1.0  0.44714  0.64424  0.01952  1.0000
  H   H181      1.0  0.03117  0.85966  0.24745  1.0000
  H   H182      1.0  0.35672  0.99221  0.30642  1.0000
  H   H183      1.0  0.25552  0.53946  0.02148  1.0000
  S   S44       1.0  0.34834  0.58172  0.00813  1.0000
  C   C158      1.0  0.02541  0.78375  0.31151  1.0000
  C   C159      1.0  0.30431  0.97065  0.32040  1.0000
  H   H184      1.0  0.31204  0.94417  0.31299  1.0000
  H   H185      1.0  0.45413  0.53195  0.01025  1.0000
  C   C160      1.0  0.21539  0.01106  0.26540  1.0000
  H   H186      1.0  0.23429  0.01237  0.24390  1.0000
  H   H187      1.0  0.24951  0.95657  0.33572  1.0000
  Fe  Fe25      1.0  0.35108  0.62488  0.54633  1.0000
  S   S45       1.0  0.36490  0.66217  0.50432  1.0000
  S   S46       1.0  0.37250  0.56910  0.53791  1.0000
  S   S47       1.0  0.33177  0.72694  0.54914  1.0000
  Fe  Fe26      1.0  0.31075  0.68710  0.51801  1.0000
  S   S48       1.0  0.26886  0.69279  0.48355  1.0000
  Fe  Fe27      1.0  0.38491  0.69787  0.53904  1.0000
  S   S49       1.0  0.43904  0.72431  0.52704  1.0000
  S   S50       1.0  0.29557  0.64731  0.55846  1.0000
  C   C161      1.0  0.27008  0.72127  0.44929  1.0000
  C   C162      1.0  0.29720  0.74609  0.44117  1.0000
  C   C163      1.0  0.29663  0.76871  0.41410  1.0000
  C   C164      1.0  0.26896  0.76689  0.39492  1.0000
  C   C165      1.0  0.24199  0.74181  0.40286  1.0000
  C   C166      1.0  0.24262  0.71911  0.42990  1.0000
  H   H188      1.0  0.31854  0.74799  0.45580  1.0000
  H   H189      1.0  0.31769  0.78793  0.40807  1.0000
  H   H190      1.0  0.22161  0.69985  0.43592  1.0000
  H   H191      1.0  0.25363  0.56388  0.41523  1.0000
  H   H192      1.0  0.44236  0.56627  0.56567  1.0000
  H   H193      1.0  0.43875  0.61482  0.52576  1.0000
  H   H194      1.0  0.10744  0.75935  0.38230  1.0000
  H   H195      1.0  0.06034  0.80530  0.38209  1.0000
  H   H196      1.0  0.29883  0.55689  0.56775  1.0000
  Fe  Fe28      1.0  0.32017  0.68560  0.58854  1.0000
  S   S51       1.0  0.29834  0.69415  0.64029  1.0000
  S   S52       1.0  0.37454  0.65914  0.58010  1.0000
  C   C167      1.0  0.27755  0.73299  0.65661  1.0000
  C   C168      1.0  0.27711  0.76507  0.63909  1.0000
  C   C169      1.0  0.31059  0.53201  0.55966  1.0000
  C   C170      1.0  0.39921  0.70885  0.65063  1.0000
  H   H197      1.0  0.19191  0.85425  0.48302  1.0000
  C   C171      1.0  0.37483  0.76884  0.66296  1.0000
  H   H198      1.0  0.28891  0.76641  0.61448  1.0000
  H   H199      1.0  0.15568  0.78191  0.48379  1.0000
  H   H200      1.0  0.24281  0.94616  0.65730  1.0000
  H   H201      1.0  0.16657  0.87830  0.45681  1.0000
  C   C172      1.0  0.47675  0.71150  0.54601  1.0000
  C   C173      1.0  0.47327  0.68985  0.57364  1.0000
  H   H202      1.0  0.44746  0.67927  0.58298  1.0000
  C   C174      1.0  0.33910  0.58050  0.45546  1.0000
  N   N12       1.0  0.29939  0.58390  0.45906  1.0000
  C   C175      1.0  0.28665  0.59628  0.49128  1.0000
  C   C176      1.0  0.29010  0.61193  0.43591  1.0000
  H   H203      1.0  0.29574  0.57877  0.51028  1.0000
  H   H204      1.0  0.29699  0.62303  0.49468  1.0000
  H   H205      1.0  0.35209  0.60652  0.45712  1.0000
  H   H206      1.0  0.50016  0.66598  0.61111  1.0000
  H   H207      1.0  0.30273  0.63770  0.43967  1.0000
  C   C177      1.0  0.46442  0.60762  0.53339  1.0000
  H   H208      1.0  0.15818  0.76668  0.41158  1.0000
  H   H209      1.0  0.38613  0.77622  0.59818  1.0000
  H   H210      1.0  0.35647  0.74041  0.61123  1.0000
  H   H211      1.0  0.26133  0.82024  0.63987  1.0000
  H   H212      1.0  0.26068  0.61742  0.43862  1.0000
  C   C178      1.0  0.28344  0.54905  0.45501  1.0000
  H   H213      1.0  0.41725  0.69311  0.63349  1.0000
  C   C179      1.0  0.38490  0.74903  0.60907  1.0000
  H   H214      1.0  0.25683  0.59798  0.49556  1.0000
  H   H215      1.0  0.20000  0.85484  0.41004  1.0000
  H   H216      1.0  0.20733  0.80860  0.40612  1.0000
  C   C180      1.0  0.49948  0.57147  0.56645  1.0000
  H   H217      1.0  0.22895  0.83112  0.43440  1.0000
  H   H218      1.0  0.20226  0.79383  0.48119  1.0000
  H   H219      1.0  0.30726  0.52212  0.49362  1.0000
  C   C181      1.0  0.17971  0.79003  0.46708  1.0000
  H   H220      1.0  0.51389  0.74075  0.51215  1.0000
  H   H221      1.0  0.18829  0.76723  0.45215  1.0000
  H   H222      1.0  0.43789  0.78720  0.62580  1.0000
  H   H223      1.0  0.51080  0.53217  0.50305  1.0000
  H   H224      1.0  0.22080  0.73986  0.38810  1.0000
  H   H225      1.0  0.34864  0.56303  0.47436  1.0000
  H   H226      1.0  0.06347  0.85924  0.41266  1.0000
  C   C182      1.0  0.43555  0.76000  0.63662  1.0000
  C   C183      1.0  0.49514  0.62616  0.52108  1.0000
  C   C184      1.0  0.46658  0.58030  0.55598  1.0000
  S   S53       1.0  0.26901  0.79715  0.36191  1.0000
  C   C185      1.0  0.20347  0.82962  0.42379  1.0000
  H   H227      1.0  0.34969  0.56942  0.43217  1.0000
  H   H228      1.0  0.14404  0.84921  0.48784  1.0000
  C   C186      1.0  0.26142  0.79554  0.65355  1.0000
  S   S54       1.0  0.17292  0.83765  0.34729  1.0000
  N   N13       1.0  0.17214  0.82242  0.44800  1.0000
  H   H229      1.0  0.40108  0.73205  0.59161  1.0000
  C   C187      1.0  0.16826  0.85237  0.46989  1.0000
  H   H230      1.0  0.11273  0.86800  0.44295  1.0000
  C   C188      1.0  0.14021  0.81738  0.43162  1.0000
  C   C189      1.0  0.13739  0.78681  0.41369  1.0000
  C   C190      1.0  0.11253  0.84343  0.43091  1.0000
  C   C191      1.0  0.10856  0.78241  0.39656  1.0000
  C   C192      1.0  0.08390  0.83878  0.41351  1.0000
  C   C193      1.0  0.08196  0.80839  0.39635  1.0000
  H   H231      1.0  0.45401  0.74319  0.62061  1.0000
  C   C194      1.0  0.34620  0.53067  0.54528  1.0000
  H   H232      1.0  0.37221  0.69663  0.65210  1.0000
  C   C195      1.0  0.50330  0.68210  0.58938  1.0000
  H   H233      1.0  0.49963  0.55039  0.58431  1.0000
  H   H234      1.0  0.49306  0.64809  0.50413  1.0000
  H   H235      1.0  0.29956  0.60488  0.41103  1.0000
  C   C196      1.0  0.51088  0.72406  0.53357  1.0000
  H   H236      1.0  0.34578  0.85502  0.67150  1.0000
  N   N14       1.0  0.39817  0.74686  0.64043  1.0000
  C   C197      1.0  0.26066  0.54315  0.43154  1.0000
  H   H237      1.0  0.40928  0.70516  0.67402  1.0000
  C   C198      1.0  0.25857  0.01183  0.34241  1.0000
  C   C199      1.0  0.37137  0.80584  0.65677  1.0000
  H   H238      1.0  0.14854  0.00619  0.34278  1.0000
  H   H239      1.0  0.44607  0.76018  0.65991  1.0000
  H   H240      1.0  0.38564  0.81849  0.63572  1.0000
  H   H241      1.0  0.20806  0.99669  0.66854  1.0000
  C   C200      1.0  0.29038  0.51966  0.47518  1.0000
  C   C201      1.0  0.32905  0.81213  0.70432  1.0000
  C   C202      1.0  0.24775  0.00040  0.73626  1.0000
  H   H242      1.0  0.19177  0.90487  0.70756  1.0000
  H   H243      1.0  0.27428  0.93089  0.73635  1.0000
  H   H244      1.0  0.28981  0.85918  0.00281  1.0000
  H   H245      1.0  0.14479  0.71649  0.82207  1.0000
  C   C203      1.0  0.11645  0.68419  0.95682  1.0000
  N   N15       1.0  0.23168  0.94523  0.70857  1.0000
  H   H246      1.0  0.41614  0.62000  0.00095  1.0000
  Fe  Fe29      1.0  0.14040  0.83091  0.80731  1.0000
  S   S55       1.0  0.16354  0.87450  0.77349  1.0000
  S   S56       1.0  0.08203  0.81790  0.82516  1.0000
  Fe  Fe30      1.0  0.21400  0.80531  0.82285  1.0000
  S   S57       1.0  0.24280  0.84649  0.79003  1.0000
  S   S58       1.0  0.24683  0.76397  0.84716  1.0000
  Fe  Fe31      1.0  0.19992  0.88448  0.81010  1.0000
  S   S59       1.0  0.21919  0.93618  0.82718  1.0000
  Fe  Fe32      1.0  0.20500  0.83336  0.75564  1.0000
  S   S60       1.0  0.22760  0.83338  0.70325  1.0000
  S   S61       1.0  0.17401  0.84413  0.84563  1.0000
  S   S62       1.0  0.17914  0.78901  0.78673  1.0000
  C   C204      1.0  0.20276  0.97827  0.81578  1.0000
  C   C205      1.0  0.27906  0.53249  0.94222  1.0000
  C   C206      1.0  0.17765  0.98192  0.79432  1.0000
  H   H247      1.0  0.09474  0.67626  0.97497  1.0000
  H   H248      1.0  0.16663  0.95866  0.78541  1.0000
  C   C207      1.0  0.21630  0.00879  0.82766  1.0000
  C   C208      1.0  0.04468  0.82560  0.80404  1.0000
  C   C209      1.0  0.04858  0.83953  0.77283  1.0000
  H   H249      1.0  0.18249  0.94499  0.68694  1.0000
  H   H250      1.0  0.07499  0.84607  0.76093  1.0000
  C   C210      1.0  0.25950  0.74858  0.95311  1.0000
  C   C211      1.0  0.28101  0.72957  0.93011  1.0000
  C   C212      1.0  0.27703  0.73490  0.89775  1.0000
  C   C213      1.0  0.25169  0.75932  0.88805  1.0000
  C   C214      1.0  0.23004  0.77819  0.91105  1.0000
  C   C215      1.0  0.23395  0.77282  0.94340  1.0000
  H   H251      1.0  0.30070  0.71078  0.93726  1.0000
  H   H252      1.0  0.29368  0.71993  0.88015  1.0000
  H   H253      1.0  0.20990  0.79643  0.90400  1.0000
  H   H254      1.0  0.21711  0.78751  0.96108  1.0000
  H   H255      1.0  0.24395  0.89608  0.73261  1.0000
  H   H256      1.0  0.12581  0.77699  0.89057  1.0000
  H   H257      1.0  0.32553  0.80492  0.99020  1.0000
  C   C216      1.0  0.14081  0.76215  0.87081  1.0000
  H   H258      1.0  0.31597  0.76438  0.73204  1.0000
  H   H259      1.0  0.23451  0.76069  0.72759  1.0000
  N   N16       1.0  0.26863  0.87986  0.89768  1.0000
  C   C217      1.0  0.22930  0.88339  0.90708  1.0000
  C   C218      1.0  0.28428  0.91577  0.89370  1.0000
  C   C219      1.0  0.27424  0.86343  0.86620  1.0000
  C   C220      1.0  0.28509  0.85931  0.92254  1.0000
  C   C221      1.0  0.28015  0.87029  0.95442  1.0000
  C   C222      1.0  0.30648  0.82837  0.91610  1.0000
  H   H260      1.0  0.17643  0.94325  0.72950  1.0000
  C   C223      1.0  0.32132  0.80954  0.94028  1.0000
  C   C224      1.0  0.31511  0.82051  0.97141  1.0000
  H   H261      1.0  0.22240  0.89964  0.92826  1.0000
  H   H262      1.0  0.21576  0.89665  0.88790  1.0000
  H   H263      1.0  0.21681  0.85705  0.91254  1.0000
  H   H264      1.0  0.27892  0.93094  0.91574  1.0000
  H   H265      1.0  0.27285  0.93185  0.87476  1.0000
  H   H266      1.0  0.31390  0.91435  0.88709  1.0000
  H   H267      1.0  0.26246  0.83651  0.86732  1.0000
  H   H268      1.0  0.26129  0.87928  0.84819  1.0000
  H   H269      1.0  0.30319  0.86159  0.85669  1.0000
  H   H270      1.0  0.26463  0.89374  0.96108  1.0000
  H   H271      1.0  0.31145  0.81749  0.89280  1.0000
  H   H272      1.0  0.22970  0.93112  0.75838  1.0000
  C   C225      1.0  0.23313  0.98413  0.71122  1.0000
  H   H273      1.0  0.18074  0.71032  0.84483  1.0000
  H   H274      1.0  0.14636  0.67730  0.84733  1.0000
  C   C226      1.0  0.29472  0.85092  0.97846  1.0000
  C   C227      1.0  0.15177  0.68168  0.96343  1.0000
  C   C228      1.0  0.13686  0.70834  0.90309  1.0000
  C   C229      1.0  0.17251  0.70494  0.91057  1.0000
  S   S63       1.0  0.26346  0.74313  0.99410  1.0000
  C   C230      1.0  0.35433  0.75450  0.69092  1.0000
  C   C231      1.0  0.21935  0.00706  0.68835  1.0000
  C   C232      1.0  0.15136  0.70629  0.84561  1.0000
  C   C233      1.0  0.24625  0.76212  0.70297  1.0000
  C   C234      1.0  0.33211  0.77604  0.71131  1.0000
  H   H275      1.0  0.27195  0.57668  0.97303  1.0000
  H   H276      1.0  0.35402  0.72654  0.69715  1.0000
  H   H277      1.0  0.13537  0.77564  0.84827  1.0000
  H   H278      1.0  0.31061  0.82830  0.71959  1.0000
  H   H279      1.0  0.07428  0.73985  0.88425  1.0000
  H   H280      1.0  0.16992  0.76503  0.87216  1.0000
  H   H281      1.0  0.08092  0.69918  0.92382  1.0000
  C   C235      1.0  0.45017  0.55845  0.99896  1.0000
  N   N17       1.0  0.12997  0.72462  0.87219  1.0000
  C   C236      1.0  0.19401  0.93423  0.70811  1.0000
  H   H282      1.0  0.19512  0.71306  0.89364  1.0000
  H   H283      1.0  0.08155  0.69627  0.86774  1.0000
  H   H284      1.0  0.28631  0.54903  0.92102  1.0000
  H   H285      1.0  0.20723  0.69053  0.94566  1.0000
  C   C237      1.0  0.10888  0.69741  0.92716  1.0000
  C   C238      1.0  0.26149  0.52712  0.99874  1.0000
  C   C239      1.0  0.09169  0.72383  0.86680  1.0000
  C   C240      1.0  0.24599  0.79423  0.68556  1.0000
  H   H286      1.0  0.08769  0.73584  0.84307  1.0000
  C   C241      1.0  0.17975  0.69199  0.94033  1.0000
  H   H287      1.0  0.46791  0.56006  0.97585  1.0000
  C   C242      1.0  0.24558  0.92514  0.73518  1.0000
  S   S64       1.0  0.35425  0.68105  0.99567  1.0000
  C   C243      1.0  0.26203  0.73173  0.68857  1.0000
  H   H288      1.0  0.26227  0.70706  0.70230  1.0000
  H   H289      1.0  0.15754  0.67201  0.98660  1.0000
  H   H290      1.0  0.23568  0.00623  0.84433  1.0000
  H   H291      1.0  0.46036  0.62680  0.98067  1.0000
  H   H292      1.0  0.42187  0.55904  0.99375  1.0000
  H   H293      1.0  0.25827  0.98542  0.75519  1.0000
  H   H294      1.0  0.33665  0.78543  0.93510  1.0000
  C   C244      1.0  0.34869  0.82703  0.67713  1.0000
  H   H295      1.0  0.50805  0.64293  0.00761  1.0000
  C   C245      1.0  0.27068  0.54817  0.97141  1.0000
  C   C246      1.0  0.44495  0.62118  0.00445  1.0000
  C   C247      1.0  0.25337  0.93456  0.67868  1.0000
  H   H296      1.0  0.28171  0.94307  0.67774  1.0000
  C   C248      1.0  0.01820  0.84459  0.75680  1.0000
  H   H297      1.0  0.02151  0.85508  0.73258  1.0000
  H   H298      1.0  0.25345  0.90523  0.67636  1.0000
  Fe  Fe33      1.0  0.64316  0.30557  0.05098  1.0000
  S   S65       1.0  0.59285  0.27280  0.05125  1.0000
  Fe  Fe34      1.0  0.70952  0.32058  0.08331  1.0000
  S   S66       1.0  0.72779  0.36351  0.04659  1.0000
  S   S67       1.0  0.74188  0.31734  0.12543  1.0000
  Fe  Fe35      1.0  0.67017  0.38132  0.05161  1.0000
  H   H299      1.0  0.70571  0.42174  0.09240  1.0000
  C   C249      1.0  0.86490  0.27684  0.13928  1.0000
  S   S68       1.0  0.65239  0.34074  0.09034  1.0000
  S   S69       1.0  0.69907  0.28134  0.04689  1.0000
  Fe  Fe36      1.0  0.81146  0.18144  0.25363  1.0000
  S   S70       1.0  0.78199  0.16535  0.30133  1.0000
  S   S71       1.0  0.78466  0.18220  0.20823  1.0000
  Fe  Fe37      1.0  0.88270  0.18799  0.28052  1.0000
  H   H300      1.0  0.67867  0.42350  0.17901  1.0000
  S   S72       1.0  0.94069  0.19799  0.25892  1.0000
  Fe  Fe38      1.0  0.82980  0.13105  0.30853  1.0000
  H   H301      1.0  0.76119  0.39189  0.13311  1.0000
  H   H302      1.0  0.86389  0.17999  0.18377  1.0000
  S   S73       1.0  0.85690  0.14286  0.25920  1.0000
  S   S74       1.0  0.83864  0.22725  0.27215  1.0000
  H   H303      1.0  0.54672  0.24797  0.14621  1.0000
  C   C250      1.0  0.87371  0.20432  0.19355  1.0000
  C   C251      1.0  0.81914  0.03535  0.28506  1.0000
  C   C252      1.0  0.90986  0.25605  0.18623  1.0000
  H   H304      1.0  0.81766  0.05956  0.27086  1.0000
  C   C253      1.0  0.97781  0.19156  0.28042  1.0000
  C   C254      1.0  0.97402  0.19334  0.31349  1.0000
  H   H305      1.0  0.87604  0.29742  0.15177  1.0000
  H   H306      1.0  0.72226  0.43428  0.18864  1.0000
  H   H307      1.0  0.91611  0.18226  0.14281  1.0000
  C   C255      1.0  0.75157  0.27944  0.14912  1.0000
  C   C256      1.0  0.74316  0.24515  0.14151  1.0000
  C   C257      1.0  0.75323  0.21576  0.16000  1.0000
  C   C258      1.0  0.77146  0.22026  0.18645  1.0000
  C   C259      1.0  0.77945  0.25461  0.19428  1.0000
  C   C260      1.0  0.76967  0.28396  0.17564  1.0000
  H   H308      1.0  0.72934  0.24120  0.12117  1.0000
  H   H309      1.0  0.74688  0.18933  0.15376  1.0000
  H   H310      1.0  0.79318  0.25858  0.21466  1.0000
  H   H311      1.0  0.77632  0.31033  0.18176  1.0000
  C   C261      1.0  0.66882  0.47673  0.05373  1.0000
  C   C262      1.0  0.70602  0.47791  0.04524  1.0000
  C   C263      1.0  0.85439  0.21582  0.12803  1.0000
  H   H312      1.0  0.94769  0.19721  0.32663  1.0000
  C   C264      1.0  0.92524  0.20632  0.15355  1.0000
  C   C265      1.0  0.82567  0.26324  0.10056  1.0000
  C   C266      1.0  0.55351  0.29448  0.04132  1.0000
  C   C267      1.0  0.83175  0.22725  0.10599  1.0000
  H   H313      1.0  0.88815  0.27186  0.19977  1.0000
  C   C268      1.0  0.84221  0.28795  0.11713  1.0000
  H   H314      1.0  0.84967  0.21874  0.20478  1.0000
  H   H315      1.0  0.94124  0.22232  0.13438  1.0000
  N   N18       1.0  0.71937  0.43195  0.13858  1.0000
  H   H316      1.0  0.52906  0.34918  0.10207  1.0000
  N   N19       1.0  0.89477  0.22731  0.16923  1.0000
  H   H317      1.0  0.76838  0.48664  0.11764  1.0000
  H   H318      1.0  0.83618  0.31585  0.11358  1.0000
  H   H319      1.0  0.94352  0.19685  0.17086  1.0000
  Fe  Fe39      1.0  0.81194  0.20900  0.32062  1.0000
  H   H320      1.0  0.81775  0.20808  0.09394  1.0000
  S   S75       1.0  0.82494  0.07791  0.33589  1.0000
  H   H321      1.0  0.52041  0.37616  0.02352  1.0000
  C   C269      1.0  0.71304  0.47061  0.13503  1.0000
  C   C270      1.0  0.55252  0.33110  0.03553  1.0000
  C   C271      1.0  0.96220  0.04767  0.26382  1.0000
  C   C272      1.0  0.74096  0.49491  0.12437  1.0000
  H   H322      1.0  0.88974  0.19531  0.21264  1.0000
  H   H323      1.0  0.52332  0.24628  0.04328  1.0000
  H   H324      1.0  0.71348  0.39084  0.17550  1.0000
  H   H325      1.0  0.97933  0.06644  0.24930  1.0000
  H   H326      1.0  0.80693  0.27203  0.08444  1.0000
  H   H327      1.0  0.89697  0.04559  0.32694  1.0000
  C   C273      1.0  0.64962  0.50852  0.05966  1.0000
  C   C274      1.0  0.99312  0.33152  0.30272  1.0000
  H   H328      1.0  0.62089  0.50781  0.06638  1.0000
  S   S76       1.0  0.64521  0.43626  0.05798  1.0000
  H   H329      1.0  0.57606  0.34670  0.03708  1.0000
  H   H330      1.0  0.92682  0.24526  0.20413  1.0000
  H   H331      1.0  0.65516  0.46813  0.14952  1.0000
  C   C275      1.0  0.87160  0.24024  0.14547  1.0000
  H   H332      1.0  0.85738  0.18759  0.13203  1.0000
  H   H333      1.0  0.92720  0.27391  0.16964  1.0000
  H   H334      1.0  0.57002  0.30515  0.12295  1.0000
  S   S77       1.0  0.85854  0.17389  0.33066  1.0000
  H   H335      1.0  0.76728  0.42806  0.10488  1.0000
  C   C276      1.0  0.75751  0.42113  0.13022  1.0000
  H   H336      1.0  0.77512  0.43353  0.14569  1.0000
  C   C277      1.0  0.67788  0.48498  0.14205  1.0000
  C   C278      1.0  0.52836  0.26731  0.13755  1.0000
  C   C279      1.0  0.82272  0.03692  0.31728  1.0000
  H   H337      1.0  0.66880  0.41764  0.12322  1.0000
  H   H338      1.0  0.70263  0.38392  0.11940  1.0000
  C   C280      1.0  0.52085  0.34778  0.02795  1.0000
  H   H339      1.0  0.72107  0.45374  0.04020  1.0000
  C   C281      1.0  0.70795  0.41971  0.17189  1.0000
  C   C282      1.0  0.69817  0.41304  0.11761  1.0000
  C   C283      1.0  0.91593  0.03598  0.30761  1.0000
  C   C284      1.0  0.54158  0.29964  0.12464  1.0000
  H   H340      1.0  0.96643  0.34068  0.31191  1.0000
  H   H341      1.0  0.97785  0.27682  0.30358  1.0000
  C   C285      1.0  0.93782  0.05987  0.28867  1.0000
  H   H342      1.0  0.93582  0.08792  0.29329  1.0000
  C   C286      1.0  0.52265  0.27467  0.03912  1.0000
  C   C287      1.0  0.99955  0.29563  0.29802  1.0000
  C   C288      1.0  0.51846  0.32440  0.11283  1.0000
  S   S78       1.0  0.65688  0.34727  0.01275  1.0000
  Fe  Fe40      1.0  0.71322  0.32561  0.01066  1.0000
  C   C289      1.0  0.00454  0.19139  0.32955  1.0000
  C   C290      1.0  0.01229  0.18670  0.26372  1.0000
  C   C291      1.0  0.72384  0.51058  0.04323  1.0000
  H   H343      1.0  0.75266  0.51129  0.03700  1.0000
  H   H344      1.0  0.01547  0.18516  0.23816  1.0000
  H   H345      1.0  0.01599  0.38343  0.29963  1.0000
  S   S79       1.0  0.67429  0.35500  0.51320  1.0000
  S   S80       1.0  0.76365  0.28965  0.49613  1.0000
  H   H346      1.0  0.72610  0.21541  0.51232  1.0000
  C   C292      1.0  0.76627  0.27736  0.45599  1.0000
  C   C293      1.0  0.73915  0.28629  0.43744  1.0000
  C   C294      1.0  0.74229  0.27626  0.40560  1.0000
  C   C295      1.0  0.77240  0.25708  0.39197  1.0000
  C   C296      1.0  0.79948  0.24796  0.41056  1.0000
  C   C297      1.0  0.79642  0.25815  0.44240  1.0000
  H   H347      1.0  0.71587  0.30112  0.44755  1.0000
  H   H348      1.0  0.72128  0.28356  0.39138  1.0000
  H   H349      1.0  0.82303  0.23364  0.40032  1.0000
  H   H350      1.0  0.81759  0.25125  0.45654  1.0000
  H   H351      1.0  0.69603  0.33962  0.64765  1.0000
  Fe  Fe41      1.0  0.63221  0.31783  0.53791  1.0000
  S   S81       1.0  0.58364  0.31004  0.51222  1.0000
  Fe  Fe42      1.0  0.67659  0.29951  0.59248  1.0000
  S   S82       1.0  0.72090  0.33541  0.57175  1.0000
  S   S83       1.0  0.67684  0.26824  0.63943  1.0000
  Fe  Fe43      1.0  0.67741  0.37458  0.56216  1.0000
  S   S84       1.0  0.67414  0.42965  0.58267  1.0000
  Fe  Fe44      1.0  0.71367  0.31230  0.52483  1.0000
  S   S85       1.0  0.63305  0.33976  0.58602  1.0000
  S   S86       1.0  0.67152  0.27397  0.54633  1.0000
  C   C298      1.0  0.68857  0.36727  0.65394  1.0000
  C   C299      1.0  0.74781  0.27868  0.64856  1.0000
  H   H352      1.0  0.69463  0.43613  0.64803  1.0000
  H   H353      1.0  0.76529  0.09483  0.42534  1.0000
  H   H354      1.0  0.75085  0.29336  0.62609  1.0000
  H   H355      1.0  0.55618  0.38693  0.54689  1.0000
  H   H356      1.0  0.77340  0.16915  0.50560  1.0000
  C   C300      1.0  0.67797  0.47207  0.56338  1.0000
  H   H357      1.0  0.67677  0.37936  0.63334  1.0000
  C   C301      1.0  0.68319  0.47663  0.53032  1.0000
  H   H358      1.0  0.73476  0.39792  0.61075  1.0000
  H   H359      1.0  0.68568  0.45373  0.51566  1.0000
  C   C302      1.0  0.70807  0.42397  0.66779  1.0000
  C   C303      1.0  0.53790  0.31366  0.52834  1.0000
  H   H360      1.0  0.67149  0.49888  0.60769  1.0000
  H   H361      1.0  0.54753  0.32178  0.57632  1.0000
  H   H362      1.0  0.69740  0.15044  0.38844  1.0000
  C   C304      1.0  0.71517  0.19021  0.43825  1.0000
  H   H363      1.0  0.60274  0.38664  0.53399  1.0000
  C   C305      1.0  0.71481  0.26338  0.66015  1.0000
  C   C306      1.0  0.54105  0.48315  0.50428  1.0000
  C   C307      1.0  0.78737  0.15136  0.38906  1.0000
  C   C308      1.0  0.57876  0.40438  0.53727  1.0000
  C   C309      1.0  0.77713  0.27477  0.66602  1.0000
  H   H364      1.0  0.78417  0.13663  0.45660  1.0000
  C   C310      1.0  0.70909  0.20802  0.46673  1.0000
  H   H365      1.0  0.81711  0.22525  0.58419  1.0000
  H   H366      1.0  0.75790  0.36085  0.62701  1.0000
  H   H367      1.0  0.72225  0.15913  0.65302  1.0000
  H   H368      1.0  0.83461  0.18551  0.62574  1.0000
  H   H369      1.0  0.58291  0.42332  0.55586  1.0000
  H   H370      1.0  0.79186  0.18018  0.38443  1.0000
  H   H371      1.0  0.73222  0.13993  0.35739  1.0000
  H   H372      1.0  0.75102  0.09085  0.38748  1.0000
  H   H373      1.0  0.74399  0.10731  0.67003  1.0000
  H   H374      1.0  0.71834  0.09940  0.42144  1.0000
  H   H375      1.0  0.68899  0.22897  0.46963  1.0000
  H   H376      1.0  0.76978  0.40545  0.63380  1.0000
  C   C311      1.0  0.80646  0.18680  0.62308  1.0000
  C   C312      1.0  0.76098  0.21396  0.59424  1.0000
  H   H377      1.0  0.59117  0.37893  0.47829  1.0000
  H   H378      1.0  0.84170  0.12663  0.64679  1.0000
  H   H379      1.0  0.61215  0.46284  0.51200  1.0000
  C   C313      1.0  0.79680  0.20988  0.59898  1.0000
  H   H380      1.0  0.80753  0.14132  0.40418  1.0000
  H   H381      1.0  0.69895  0.19863  0.42012  1.0000
  H   H382      1.0  0.78263  0.09626  0.64235  1.0000
  C   C314      1.0  0.54046  0.44626  0.51237  1.0000
  C   C315      1.0  0.74588  0.10578  0.40984  1.0000
  C   C316      1.0  0.73000  0.20039  0.49089  1.0000
  C   C317      1.0  0.72610  0.15518  0.37940  1.0000
  H   H383      1.0  0.75353  0.23248  0.57601  1.0000
  H   H384      1.0  0.62999  0.42432  0.49237  1.0000
  H   H385      1.0  0.73071  0.44157  0.67070  1.0000
  N   N20       1.0  0.74996  0.14446  0.40344  1.0000
  C   C318      1.0  0.77378  0.10690  0.66618  1.0000
  C   C319      1.0  0.52743  0.32002  0.56042  1.0000
  H   H386      1.0  0.56174  0.40958  0.46057  1.0000
  C   C320      1.0  0.76277  0.15614  0.45874  1.0000
  N   N21       1.0  0.57274  0.42316  0.50708  1.0000
  C   C321      1.0  0.60623  0.44251  0.49518  1.0000
  C   C322      1.0  0.75676  0.17447  0.48695  1.0000
  H   H387      1.0  0.60492  0.45536  0.47136  1.0000
  C   C323      1.0  0.74226  0.16354  0.43342  1.0000
  H   H388      1.0  0.80246  0.28690  0.65695  1.0000
  N   N22       1.0  0.72017  0.38719  0.66104  1.0000
  H   H389      1.0  0.79375  0.13821  0.36605  1.0000
  C   C324      1.0  0.56726  0.39663  0.48341  1.0000
  C   C325      1.0  0.73460  0.19510  0.61367  1.0000
  C   C326      1.0  0.74683  0.38786  0.63201  1.0000
  C   C327      1.0  0.78019  0.16686  0.64318  1.0000
  C   C328      1.0  0.74390  0.17210  0.63792  1.0000
  S   S87       1.0  0.77476  0.24573  0.35158  1.0000
  H   H390      1.0  0.00142  0.19376  0.35505  1.0000
  C   C329      1.0  0.82849  0.13724  0.66949  1.0000
  C   C330      1.0  0.67539  0.50214  0.58208  1.0000
  H   H391      1.0  0.70661  0.19939  0.61066  1.0000
  H   H392      1.0  0.54438  0.37890  0.49175  1.0000
  H   H393      1.0  0.72957  0.18365  0.37186  1.0000
  H   H394      1.0  0.84167  0.16239  0.67407  1.0000
  H   H395      1.0  0.51929  0.30628  0.48317  1.0000
  H   H396      1.0  0.56508  0.49635  0.49348  1.0000
  N   N23       1.0  0.78926  0.14235  0.66910  1.0000
  C   C331      1.0  0.68581  0.51100  0.51617  1.0000
  H   H397      1.0  0.66668  0.36671  0.67426  1.0000
  H   H398      1.0  0.95557  0.08768  0.76589  1.0000
  S   S88       1.0  0.74657  0.32276  0.96186  1.0000
  Fe  Fe45      1.0  0.82035  0.21152  0.75608  1.0000
  S   S89       1.0  0.77946  0.17621  0.78454  1.0000
  S   S90       1.0  0.81137  0.25214  0.71665  1.0000
  Fe  Fe46      1.0  0.88371  0.17632  0.78554  1.0000
  S   S91       1.0  0.84705  0.13881  0.81587  1.0000
  S   S92       1.0  0.94299  0.16188  0.78279  1.0000
  Fe  Fe47      1.0  0.81946  0.13196  0.77309  1.0000
  S   S93       1.0  0.80909  0.08022  0.75058  1.0000
  Fe  Fe48      1.0  0.81062  0.18627  0.82535  1.0000
  S   S94       1.0  0.78596  0.18856  0.87717  1.0000
  S   S95       1.0  0.85813  0.16669  0.74195  1.0000
  S   S96       1.0  0.84936  0.22461  0.79766  1.0000
  C   C332      1.0  0.81095  0.03922  0.77185  1.0000
  C   C333      1.0  0.64855  0.32616  0.93628  1.0000
  C   C334      1.0  0.81178  0.03753  0.80467  1.0000
  C   C335      1.0  0.88293  0.15067  0.89566  1.0000
  H   H399      1.0  0.81135  0.06167  0.81757  1.0000
  C   C336      1.0  0.97946  0.18201  0.79725  1.0000
  C   C337      1.0  0.65908  0.25046  0.92202  1.0000
  C   C338      1.0  0.97719  0.21606  0.80916  1.0000
  N   N24       1.0  0.90480  0.18325  0.89036  1.0000
  H   H400      1.0  0.95257  0.23124  0.80935  1.0000
  C   C339      1.0  0.75694  0.28507  0.93865  1.0000
  C   C340      1.0  0.75162  0.25061  0.95137  1.0000
  C   C341      1.0  0.76004  0.22144  0.93200  1.0000
  C   C342      1.0  0.77418  0.22635  0.89985  1.0000
  C   C343      1.0  0.77981  0.26077  0.88719  1.0000
  C   C344      1.0  0.77118  0.28996  0.90653  1.0000
  H   H401      1.0  0.74159  0.24639  0.97623  1.0000
  H   H402      1.0  0.75608  0.19487  0.94211  1.0000
  H   H403      1.0  0.79092  0.26493  0.86256  1.0000
  H   H404      1.0  0.77564  0.31653  0.89655  1.0000
  C   C345      1.0  0.66112  0.26052  0.97736  1.0000
  C   C346      1.0  0.74093  0.23990  0.70662  1.0000
  H   H405      1.0  0.73784  0.22543  0.72924  1.0000
  H   H406      1.0  0.00683  0.04760  0.77274  1.0000
  N   N25       1.0  0.63775  0.26192  0.95190  1.0000
  H   H407      1.0  0.59367  0.24096  0.98470  1.0000
  H   H408      1.0  0.78525  0.32940  0.75714  1.0000
  H   H409      1.0  0.85359  0.15639  0.89786  1.0000
  C   C347      1.0  0.60867  0.23583  0.96083  1.0000
  H   H410      1.0  0.88835  0.13580  0.91766  1.0000
  H   H411      1.0  0.95260  0.15614  0.90212  1.0000
  H   H412      1.0  0.89386  0.06421  0.77208  1.0000
  C   C348      1.0  0.77394  0.25526  0.69507  1.0000
  C   C349      1.0  0.92624  0.21693  0.93515  1.0000
  C   C350      1.0  0.71158  0.24394  0.68923  1.0000
  C   C351      1.0  0.58790  0.30872  0.95668  1.0000
  H   H413      1.0  0.00552  0.25721  0.82923  1.0000
  H   H414      1.0  0.68864  0.42470  0.68989  1.0000
  H   H415      1.0  0.78689  0.18187  0.70417  1.0000
  H   H416      1.0  0.94677  0.15538  0.86105  1.0000
  C   C352      1.0  0.89826  0.20547  0.91853  1.0000
  H   H417      1.0  0.72972  0.30305  0.74405  1.0000
  C   C353      1.0  0.62439  0.29870  0.94789  1.0000
  C   C354      1.0  0.78532  0.37178  0.72180  1.0000
  C   C355      1.0  0.91901  0.23915  0.96088  1.0000
  C   C356      1.0  0.88404  0.25064  0.97069  1.0000
  C   C357      1.0  0.74011  0.32678  0.73114  1.0000
  H   H418      1.0  0.99214  0.29765  0.73502  1.0000
  H   H419      1.0  0.90053  0.18856  0.84035  1.0000
  H   H420      1.0  0.67701  0.32099  0.93054  1.0000
  H   H421      1.0  0.86485  0.20939  0.86509  1.0000
  H   H422      1.0  0.96080  0.19525  0.87627  1.0000
  C   C358      1.0  0.97987  0.03708  0.77544  1.0000
  C   C359      1.0  0.95105  0.05976  0.77156  1.0000
  C   C360      1.0  0.89416  0.20348  0.86248  1.0000
  C   C361      1.0  0.01197  0.16301  0.79629  1.0000
  H   H423      1.0  0.80975  0.38324  0.72771  1.0000
  H   H424      1.0  0.90839  0.22919  0.85876  1.0000
  H   H425      1.0  0.84048  0.21008  0.91778  1.0000
  H   H426      1.0  0.61947  0.20833  0.96262  1.0000
  C   C362      1.0  0.77411  0.15644  0.70010  1.0000
  H   H427      1.0  0.65607  0.38185  0.92532  1.0000
  H   H428      1.0  0.59206  0.39749  0.94036  1.0000
  H   H429      1.0  0.82888  0.24910  0.96232  1.0000
  H   H430      1.0  0.66755  0.22215  0.92369  1.0000
  C   C363      1.0  0.63687  0.36128  0.93339  1.0000
  C   C364      1.0  0.94292  0.17210  0.88234  1.0000
  H   H431      1.0  0.58941  0.23624  0.94304  1.0000
  H   H432      1.0  0.78204  0.08742  0.68437  1.0000
  H   H433      1.0  0.54861  0.35102  0.96079  1.0000
  C   C365      1.0  0.85608  0.23982  0.95496  1.0000
  H   H434      1.0  0.95397  0.20943  0.92856  1.0000
  H   H435      1.0  0.68612  0.23215  0.69846  1.0000
  H   H436      1.0  0.94074  0.24783  0.97308  1.0000
  C   C366      1.0  0.86299  0.21749  0.92938  1.0000
  H   H437      1.0  0.56767  0.29013  0.96682  1.0000
  H   H438      1.0  0.77868  0.13795  0.72018  1.0000
  C   C367      1.0  0.77144  0.34165  0.73860  1.0000
  H   H439      1.0  0.88858  0.13260  0.87545  1.0000
  C   C368      1.0  0.91635  0.04653  0.77508  1.0000
  H   H440      1.0  0.67269  0.23360  0.98085  1.0000
  H   H441      1.0  0.83432  0.11815  0.68889  1.0000
  C   C369      1.0  0.60091  0.37014  0.94199  1.0000
  H   H442      1.0  0.68375  0.27922  0.97234  1.0000
  H   H443      1.0  0.64343  0.25393  0.90161  1.0000
  C   C370      1.0  0.57649  0.34392  0.95350  1.0000
  H   H444      1.0  0.74470  0.16124  0.70191  1.0000
  H   H445      1.0  0.68449  0.26539  0.91607  1.0000
  H   H446      1.0  0.98994  0.23238  0.73374  1.0000
  C   C371      1.0  0.00728  0.23079  0.82020  1.0000
  H   H447      1.0  0.64592  0.26804  0.00032  1.0000
  H   H448      1.0  0.87855  0.26819  0.99037  1.0000
  H   H449      1.0  0.69955  0.32750  0.70117  1.0000
  C   C372      1.0  0.72299  0.34126  0.70625  1.0000
  C   C373      1.0  0.76822  0.38677  0.69710  1.0000
  C   C374      1.0  0.73683  0.37163  0.68818  1.0000
  H   H450      1.0  0.01401  0.13669  0.78702  1.0000
  H   H451      1.0  0.78009  0.41005  0.68470  1.0000
  C   C375      1.0  0.01526  0.24543  0.73471  1.0000
  Fe  Fe49      1.0  0.70019  0.63608  0.05263  1.0000
  S   S97       1.0  0.67428  0.65834  0.09858  1.0000
  S   S98       1.0  0.72844  0.58252  0.04842  1.0000
  S   S99       1.0  0.65890  0.73016  0.05686  1.0000
  Fe  Fe50      1.0  0.70392  0.70874  0.08268  1.0000
  S   S100      1.0  0.73243  0.75104  0.10757  1.0000
  Fe  Fe51      1.0  0.63156  0.67817  0.06911  1.0000
  S   S101      1.0  0.57298  0.66903  0.08924  1.0000
  S   S102      1.0  0.73331  0.68479  0.03873  1.0000
  Fe  Fe52      1.0  0.82625  0.79791  0.26376  1.0000
  S   S103      1.0  0.79524  0.82826  0.30335  1.0000
  S   S104      1.0  0.79827  0.75469  0.23948  1.0000
  Fe  Fe53      1.0  0.89906  0.82856  0.27744  1.0000
  S   S105      1.0  0.87281  0.86042  0.31780  1.0000
  S   S106      1.0  0.95790  0.83807  0.25845  1.0000
  H   H452      1.0  0.73988  0.76110  0.29082  1.0000
  C   C376      1.0  0.56944  0.58641  0.03289  1.0000
  Fe  Fe54      1.0  0.83119  0.87431  0.28576  1.0000
  S   S107      1.0  0.81411  0.92988  0.27073  1.0000
  S   S108      1.0  0.86887  0.77900  0.29359  1.0000
  S   S109      1.0  0.85908  0.84484  0.24431  1.0000
  C   C377      1.0  0.99593  0.82323  0.27615  1.0000
  C   C378      1.0  0.99400  0.79597  0.29948  1.0000
  H   H453      1.0  0.75513  0.54927  0.11172  1.0000
  H   H454      1.0  0.96845  0.78380  0.30777  1.0000
  H   H455      1.0  0.72126  0.68282  0.30871  1.0000
  H   H456      1.0  0.96259  0.95159  0.22046  1.0000
  C   C379      1.0  0.81844  0.97056  0.28929  1.0000
  H   H457      1.0  0.75867  0.70205  0.28345  1.0000
  C   C380      1.0  0.91798  0.99985  0.30159  1.0000
  H   H458      1.0  0.96996  0.90945  0.23884  1.0000
  C   C381      1.0  0.75039  0.75129  0.14448  1.0000
  C   C382      1.0  0.74948  0.72163  0.16532  1.0000
  C   C383      1.0  0.76426  0.72324  0.19416  1.0000
  C   C384      1.0  0.78015  0.75442  0.20265  1.0000
  C   C385      1.0  0.78100  0.78409  0.18185  1.0000
  C   C386      1.0  0.76624  0.78247  0.15300  1.0000
  H   H459      1.0  0.73747  0.69745  0.15918  1.0000
  H   H460      1.0  0.76346  0.70008  0.20995  1.0000
  H   H461      1.0  0.79303  0.80828  0.18796  1.0000
  H   H462      1.0  0.76709  0.80563  0.13720  1.0000
  H   H463      1.0  0.64393  0.53161  0.14321  1.0000
  C   C387      1.0  0.70466  0.54234  0.04932  1.0000
  C   C388      1.0  0.66740  0.54121  0.05734  1.0000
  H   H464      1.0  0.69364  0.57238  0.12444  1.0000
  H   H465      1.0  0.98123  0.93770  0.30433  1.0000
  C   C389      1.0  0.53558  0.68355  0.07059  1.0000
  C   C390      1.0  0.78457  0.73664  0.33032  1.0000
  H   H466      1.0  0.79765  0.74449  0.30614  1.0000
  H   H467      1.0  0.80705  0.82127  0.03132  1.0000
  C   C391      1.0  0.71896  0.80598  0.02825  1.0000
  Fe  Fe55      1.0  0.83943  0.81176  0.33213  1.0000
  H   H468      1.0  0.57055  0.64054  0.01588  1.0000
  S   S110      1.0  0.65612  0.65305  0.02415  1.0000
  H   H469      1.0  0.99778  0.94517  0.24584  1.0000
  H   H470      1.0  0.56050  0.53266  0.04974  1.0000
  C   C392      1.0  0.74848  0.69403  0.30852  1.0000
  C   C393      1.0  0.96978  0.93844  0.24267  1.0000
  H   H471      1.0  0.65247  0.56545  0.06244  1.0000
  H   H472      1.0  0.90882  0.90728  0.25845  1.0000
  H   H473      1.0  0.79802  0.76225  0.01034  1.0000
  H   H474      1.0  0.77093  0.81430  0.06250  1.0000
  C   C394      1.0  0.90807  0.93551  0.26521  1.0000
  H   H475      1.0  0.90016  0.98246  0.31681  1.0000
  C   C395      1.0  0.54854  0.55641  0.04027  1.0000
  Fe  Fe56      1.0  0.68714  0.70369  0.01387  1.0000
  N   N26       1.0  0.94393  0.94801  0.27063  1.0000
  H   H476      1.0  0.59737  0.58614  0.03685  1.0000
  C   C396      1.0  0.53910  0.70785  0.04476  1.0000
  H   H477      1.0  0.54295  0.73610  0.12868  1.0000
  H   H478      1.0  0.71353  0.79427  0.05288  1.0000
  C   C397      1.0  0.55427  0.61703  0.02088  1.0000
  C   C398      1.0  0.72737  0.75370  0.31542  1.0000
  H   H479      1.0  0.70258  0.79069  0.01354  1.0000
  C   C399      1.0  0.95481  0.92849  0.29886  1.0000
  H   H480      1.0  0.95722  0.89948  0.29516  1.0000
  N   N27       1.0  0.74743  0.72439  0.32977  1.0000
  H   H481      1.0  0.56536  0.71775  0.03536  1.0000
  H   H482      1.0  0.88799  0.93694  0.28674  1.0000
  H   H483      1.0  0.76302  0.75494  0.04207  1.0000
  H   H484      1.0  0.70884  0.83375  0.02938  1.0000
  H   H485      1.0  0.76669  0.67244  0.31527  1.0000
  C   C400      1.0  0.69906  0.54437  0.12824  1.0000
  C   C401      1.0  0.67112  0.52131  0.13866  1.0000
  C   C402      1.0  0.82279  0.97206  0.32140  1.0000
  C   C403      1.0  0.76888  0.76646  0.01747  1.0000
  N   N28       1.0  0.75775  0.80418  0.01577  1.0000
  C   C404      1.0  0.82459  0.00513  0.33537  1.0000
  H   H486      1.0  0.89719  0.95150  0.24601  1.0000
  C   C405      1.0  0.94228  0.98646  0.27633  1.0000
  C   C406      1.0  0.81668  0.00234  0.27125  1.0000
  H   H487      1.0  0.69924  0.74618  0.31366  1.0000
  H   H488      1.0  0.72736  0.77824  0.32911  1.0000
  H   H489      1.0  0.82392  0.94781  0.33560  1.0000
  H   H490      1.0  0.93497  0.93164  0.32038  1.0000
  H   H491      1.0  0.98411  0.00398  0.23806  1.0000
  C   C407      1.0  0.73385  0.53121  0.12112  1.0000
  H   H492      1.0  0.77060  0.85278  0.03619  1.0000
  C   C408      1.0  0.77750  0.82406  0.03728  1.0000
  C   C409      1.0  0.51807  0.61798  0.01628  1.0000
  H   H493      1.0  0.81320  0.00143  0.24642  1.0000
  H   H494      1.0  0.80222  0.71617  0.33982  1.0000
  C   C410      1.0  0.96460  0.01154  0.25763  1.0000
  Fe  Fe57      1.0  0.69057  0.71612  0.52369  1.0000
  S   S111      1.0  0.69872  0.75954  0.48491  1.0000
  S   S112      1.0  0.64685  0.67636  0.52326  1.0000
  C   C411      1.0  0.73660  0.76489  0.45560  1.0000
  C   C412      1.0  0.76803  0.74484  0.45662  1.0000
  C   C413      1.0  0.79800  0.75106  0.43358  1.0000
  C   C414      1.0  0.79663  0.77674  0.40892  1.0000
  C   C415      1.0  0.76490  0.79618  0.40746  1.0000
  C   C416      1.0  0.73520  0.79052  0.43092  1.0000
  H   H495      1.0  0.76941  0.72477  0.47524  1.0000
  H   H496      1.0  0.82242  0.73582  0.43480  1.0000
  H   H497      1.0  0.76355  0.81617  0.38874  1.0000
  H   H498      1.0  0.71097  0.80613  0.42992  1.0000
  C   C417      1.0  0.54118  0.71544  0.54879  1.0000
  H   H499      1.0  0.56726  0.72559  0.53914  1.0000
  Fe  Fe58      1.0  0.68543  0.63635  0.54062  1.0000
  S   S113      1.0  0.66830  0.64572  0.59219  1.0000
  S   S114      1.0  0.68711  0.58368  0.51592  1.0000
  S   S115      1.0  0.67200  0.73131  0.57412  1.0000
  Fe  Fe59      1.0  0.71013  0.68856  0.58747  1.0000
  S   S116      1.0  0.75184  0.69380  0.62182  1.0000
  Fe  Fe60      1.0  0.63169  0.68771  0.57459  1.0000
  S   S117      1.0  0.57398  0.68594  0.59852  1.0000
  S   S118      1.0  0.73070  0.67540  0.53673  1.0000
  C   C418      1.0  0.75623  0.72688  0.64981  1.0000
  C   C419      1.0  0.70128  0.73061  0.37894  1.0000
  C   C420      1.0  0.53135  0.58994  0.55455  1.0000
  H   H500      1.0  0.62162  0.59501  0.56150  1.0000
  C   C421      1.0  0.57529  0.54317  0.56082  1.0000
  H   H501      1.0  0.73441  0.80828  0.52164  1.0000
  H   H502      1.0  0.54205  0.56777  0.61504  1.0000
  H   H503      1.0  0.75329  0.74943  0.53112  1.0000
  H   H504      1.0  0.79379  0.79495  0.49929  1.0000
  C   C422      1.0  0.79141  0.80335  0.57929  1.0000
  C   C423      1.0  0.67841  0.53646  0.56795  1.0000
  C   C424      1.0  0.68370  0.54106  0.53489  1.0000
  H   H505      1.0  0.77085  0.67115  0.36812  1.0000
  H   H506      1.0  0.67699  0.55932  0.58263  1.0000
  H   H507      1.0  0.69348  0.68444  0.44980  1.0000
  C   C425      1.0  0.53736  0.69494  0.57709  1.0000
  N   N29       1.0  0.56562  0.58074  0.56677  1.0000
  H   H508      1.0  0.85876  0.77744  0.62294  1.0000
  C   C426      1.0  0.77554  0.82942  0.60018  1.0000
  C   C427      1.0  0.78975  0.83658  0.62808  1.0000
  C   C428      1.0  0.83593  0.79239  0.61618  1.0000
  C   C429      1.0  0.81983  0.81813  0.63605  1.0000
  H   H509      1.0  0.72182  0.81076  0.56335  1.0000
  H   H510      1.0  0.75175  0.84418  0.59591  1.0000
  H   H511      1.0  0.77673  0.85574  0.64429  1.0000
  H   H512      1.0  0.82738  0.00608  0.36033  1.0000
  H   H513      1.0  0.82821  0.78258  0.52272  1.0000
  N   N30       1.0  0.77681  0.79439  0.54989  1.0000
  C   C430      1.0  0.80443  0.80027  0.52195  1.0000
  H   H514      1.0  0.58762  0.58195  0.61124  1.0000
  H   H515      1.0  0.81398  0.82808  0.52032  1.0000
  C   C431      1.0  0.76654  0.75662  0.55189  1.0000
  H   H516      1.0  0.83509  0.76439  0.57389  1.0000
  H   H517      1.0  0.60109  0.53565  0.56971  1.0000
  C   C432      1.0  0.68758  0.71982  0.40996  1.0000
  C   C433      1.0  0.74729  0.68501  0.37890  1.0000
  C   C434      1.0  0.73214  0.75538  0.65427  1.0000
  H   H518      1.0  0.70991  0.75768  0.64052  1.0000
  H   H519      1.0  0.78985  0.73831  0.55261  1.0000
  C   C435      1.0  0.56170  0.58608  0.60146  1.0000
  H   H520      1.0  0.57881  0.53845  0.53495  1.0000
  H   H521      1.0  0.82998  0.82308  0.65822  1.0000
  C   C436      1.0  0.73340  0.67453  0.40993  1.0000
  H   H522      1.0  0.74617  0.65326  0.42232  1.0000
  H   H523      1.0  0.75031  0.84434  0.54160  1.0000
  S   S119      1.0  0.83566  0.78452  0.38140  1.0000
  H   H524      1.0  0.55247  0.61360  0.60688  1.0000
  C   C437      1.0  0.82207  0.78508  0.58819  1.0000
  C   C438      1.0  0.59627  0.60246  0.55188  1.0000
  H   H525      1.0  0.60172  0.59920  0.52576  1.0000
  H   H526      1.0  0.74768  0.75068  0.57382  1.0000
  C   C439      1.0  0.52817  0.61767  0.53143  1.0000
  C   C440      1.0  0.74448  0.81555  0.54407  1.0000
  C   C441      1.0  0.70362  0.69192  0.42542  1.0000
  H   H527      1.0  0.66517  0.73399  0.42265  1.0000
  H   H528      1.0  0.78473  0.76000  0.34535  1.0000
  H   H529      1.0  0.59152  0.63096  0.55655  1.0000
  C   C442      1.0  0.78493  0.72440  0.66807  1.0000
  H   H530      1.0  0.68803  0.75296  0.36880  1.0000
  C   C443      1.0  0.73166  0.71338  0.36239  1.0000
  H   H531      1.0  0.80377  0.70251  0.66478  1.0000
  H   H532      1.0  0.55054  0.63396  0.52152  1.0000
  H   H533      1.0  0.55478  0.52456  0.57270  1.0000
  H   H534      1.0  0.69015  0.51433  0.49057  1.0000
  H   H535      1.0  0.88412  0.96135  0.82817  1.0000
  S   S120      1.0  0.68999  0.73616  0.96720  1.0000
  C   C444      1.0  0.91036  0.01063  0.78261  1.0000
  Fe  Fe61      1.0  0.81120  0.82207  0.75647  1.0000
  S   S121      1.0  0.78681  0.83441  0.80641  1.0000
  S   S122      1.0  0.77098  0.81290  0.72138  1.0000
  Fe  Fe62      1.0  0.88793  0.83466  0.77187  1.0000
  S   S123      1.0  0.86872  0.84662  0.82242  1.0000
  S   S124      1.0  0.94626  0.84307  0.75068  1.0000
  Fe  Fe63      1.0  0.83144  0.80084  0.82190  1.0000
  S   S125      1.0  0.82615  0.75959  0.86255  1.0000
  Fe  Fe64      1.0  0.82582  0.87932  0.80268  1.0000
  S   S126      1.0  0.81464  0.93198  0.82606  1.0000
  S   S127      1.0  0.85410  0.78572  0.77223  1.0000
  S   S128      1.0  0.84678  0.87009  0.75184  1.0000
  C   C445      1.0  0.98367  0.83587  0.77177  1.0000
  C   C446      1.0  0.97975  0.82233  0.80310  1.0000
  C   C447      1.0  0.73978  0.83440  0.96539  1.0000
  H   H536      1.0  0.95336  0.81550  0.81492  1.0000
  H   H537      1.0  0.90693  0.90441  0.77739  1.0000
  C   C448      1.0  0.81234  0.97451  0.77172  1.0000
  C   C449      1.0  0.81273  0.97283  0.80460  1.0000
  C   C450      1.0  0.78410  0.84601  0.91955  1.0000
  H   H538      1.0  0.81245  0.95035  0.75888  1.0000
  H   H539      1.0  0.64587  0.69513  0.87988  1.0000
  C   C451      1.0  0.72847  0.74278  0.93877  1.0000
  C   C452      1.0  0.76081  0.72466  0.94109  1.0000
  C   C453      1.0  0.79063  0.73058  0.91783  1.0000
  C   C454      1.0  0.78843  0.75453  0.89201  1.0000
  C   C455      1.0  0.75612  0.77264  0.88968  1.0000
  C   C456      1.0  0.72627  0.76666  0.91290  1.0000
  H   H540      1.0  0.76273  0.70570  0.96052  1.0000
  H   H541      1.0  0.81543  0.71620  0.91966  1.0000
  H   H542      1.0  0.75409  0.79116  0.87000  1.0000
  H   H543      1.0  0.70132  0.78067  0.91085  1.0000
  H   H544      1.0  0.81221  0.74806  0.70382  1.0000
  H   H545      1.0  0.79083  0.85581  0.89520  1.0000
  N   N31       1.0  0.73296  0.73479  0.79802  1.0000
  C   C457      1.0  0.71938  0.71666  0.77172  1.0000
  C   C458      1.0  0.71774  0.77127  0.79950  1.0000
  C   C459      1.0  0.77248  0.73787  0.79002  1.0000
  C   C460      1.0  0.72195  0.71512  0.82849  1.0000
  C   C461      1.0  0.74699  0.69874  0.84699  1.0000
  C   C462      1.0  0.68506  0.71239  0.84078  1.0000
  C   C463      1.0  0.73561  0.68180  0.87632  1.0000
  C   C464      1.0  0.67407  0.69583  0.87038  1.0000
  C   C465      1.0  0.69934  0.68084  0.88823  1.0000
  H   H546      1.0  0.68962  0.71543  0.77477  1.0000
  H   H547      1.0  0.72766  0.73063  0.74835  1.0000
  H   H548      1.0  0.72993  0.68902  0.77003  1.0000
  H   H549      1.0  0.68807  0.77186  0.80084  1.0000
  H   H550      1.0  0.72782  0.78784  0.77804  1.0000
  H   H551      1.0  0.72493  0.78473  0.82060  1.0000
  H   H552      1.0  0.78578  0.71155  0.78666  1.0000
  H   H553      1.0  0.77989  0.75348  0.76741  1.0000
  H   H554      1.0  0.78440  0.75152  0.80885  1.0000
  H   H555      1.0  0.77565  0.69961  0.83999  1.0000
  H   H556      1.0  0.66445  0.72368  0.82787  1.0000
  H   H557      1.0  0.75523  0.67053  0.89053  1.0000
  C   C466      1.0  0.93901  0.98670  0.78678  1.0000
  H   H558      1.0  0.69090  0.66903  0.91164  1.0000
  H   H559      1.0  0.90300  0.91875  0.83492  1.0000
  C   C467      1.0  0.76578  0.77878  0.69460  1.0000
  H   H560      1.0  0.92472  0.95778  0.84590  1.0000
  C   C468      1.0  0.91087  0.93327  0.77243  1.0000
  H   H561      1.0  0.71819  0.80309  0.67965  1.0000
  H   H562      1.0  0.98141  0.92660  0.77360  1.0000
  C   C469      1.0  0.91002  0.94664  0.82754  1.0000
  H   H563      1.0  0.82343  0.80572  0.97859  1.0000
  C   C470      1.0  0.78972  0.75014  0.69035  1.0000
  C   C471      1.0  0.74886  0.84807  0.93435  1.0000
  C   C472      1.0  0.76618  0.81863  0.98276  1.0000
  H   H564      1.0  0.95755  0.89864  0.80354  1.0000
  N   N32       1.0  0.93156  0.94902  0.79574  1.0000
  C   C473      1.0  0.96436  0.92682  0.79709  1.0000
  C   C474      1.0  0.01011  0.81717  0.81909  1.0000
  C   C475      1.0  0.97416  0.00103  0.78290  1.0000
  H   H565      1.0  0.92502  0.93649  0.74781  1.0000
  H   H566      1.0  0.88349  0.94485  0.77290  1.0000
  H   H567      1.0  0.72826  0.85951  0.92135  1.0000
  H   H568      1.0  0.83772  0.82810  0.92382  1.0000
  C   C476      1.0  0.80191  0.81735  0.96701  1.0000
  C   C477      1.0  0.81052  0.83049  0.93578  1.0000
  H   H569      1.0  0.99766  0.98500  0.78558  1.0000
  H   H570      1.0  0.00678  0.80639  0.84321  1.0000
  C   C478      1.0  0.73686  0.78105  0.67660  1.0000
  H   H571      1.0  0.81052  0.00868  0.73010  1.0000
  H   H572      1.0  0.98055  0.93562  0.81541  1.0000
  H   H573      1.0  0.81264  0.00337  0.84642  1.0000
  C   C479      1.0  0.81124  0.00760  0.75547  1.0000
  H   H574      1.0  0.88294  0.00177  0.78538  1.0000
  C   C480      1.0  0.81240  0.00445  0.82098  1.0000
  H   H575      1.0  0.71178  0.83592  0.97497  1.0000
  H   H576      1.0  0.75432  0.75063  0.00185  1.0000
