data_image0
_chemical_formula_structural       HSFeS2FeHFeSHSH2NCSH2SH3FeS2FeS2FeSFeS3FeSHSFeSFeH2C4H2C4H2C3H2C2H3C7H6C2H3C2SHCHCHCH4C6H4C2HNFeH2C2HC2FeH2C2SHCSCHCFeH4SC2S2CSNCH2C2H6CHCN2C9H14NC9H14NC7H8FeCH2SCHCH3C3HC5H3CHFeHC3H2S2C3H2CH2FeH4SH3CH4CSH2CHC3S2H3CHC2HFe2SCS2HFeCHCH2CSHCH2FeSHCHNH3CHC2H3SHCH2CFeH2CHSC3HCHC4FeCH3NCHC2HCH3SHCHS2HCNC9H7CH5CHCHCHSHCNCHCSCHC2HCH7CH3CHCHSHCHSFeCH2CH3C2HCH2C2HC4FeH3CH4C3H2C6HSC2HNSC7H3SCHC2H2CH5SCHC3H2CH2SHCH2SH3CHSNFeCHSH2SHFeH2C2NC8H3C3H3CHCH2C3HCH2C2SH2NH2NH5C7HCH5C3H3FeCSCSFeCHCSHSHSC2H2CH2SCHFeC3FeCH2CHNCHC6H4CHC4HSC2H2CSH2C2HNC3H3CSH4C3HSH2FeH3C4HSHC2HCHC2H6C2H2CHCNCFeH3CSH4CHFeNC9H14SHSHC2FeHSC2SC4FeCHCH2NHCS2NHCH2SH4SCHCH2FeHC3HC2HC2HC2FeC2HSHCH2C3HCH2C3H2SFe2C2FeCHCH2CSHCH3CHSHCFeS2H2SHCH2SH2C2H2CH2CH2FeSCSFeSFeCSCSC3H2SHNC7H5CHCH2CH5CHC2H2C6H7NC2HCNC3H9CNCHSHCSCH2C2HCSH4CH7C2HC2HCSHFeCNHCHCHCHSFeC2HC2HC3HCH4C4H3CH2CHC2HSCNHC4HC2H6FeCSH2SH2SHCH2FeS2FeS2FeSCS2FeS2FeS2FeSFeS2FeS2FeS2FeSFeS3FeS2FeS2Fe2S3C3HC2H4C6H4C6H4C6H4C7H4C6H4C6H4SFeC2H5FeCNHSHC2H6SH4CH3FeHCH3CNC9H15CNSCNH2C4SCHC2H2C2NHCSHCHC3H6C2H3C5HCH4C2SNC3H2CNHC3H5C3H3C2SH2C2HCHCH5CHCNCH2C4H5CH2CHC3H4CH2C2H2CH2CHCH2CH2CH3C3SC3SFeHC3H3C3H2CHCFeCFeHCSCH2C2HCH2CHSCSHCHCH4CHCFeH6NH2CH3C2SHCHFeS2HCH3CFeH4FeHCH2CHCHCHS2CHCHC4SHC3H10C3HCH2SH4NCHCNHC6HCHCHSCFeH2CHSC2SHC2FeHCH2CH2S2HSFeSC2H2FeS2FeCFeS3CS2HC3HFeSH2FeS2FeS2FeSFeSCSC6H3C7H4CH3FeHC6H4C4H2SH3SC2H2CFeCH2CSHC2HC2H5CSCFeH3SH2CNCFeH2CH6C2HC2H6C2HCHCSHCFeH3C2H3CHC2HCHNCH2CH2C3H3C2H5NC3HCH3C3HCHCH3CSCHC2H4SCNHN2HCHC2SCH4SCHC3H2CHCHCNHCHFeSHCH4FeSHFeS2FeSFeS3FeS2FeS2FeSFeS3C3H3CHCH2SHCH2C2NC2SCHFeHC6H4C5H3SCSHCHCH5CHC3HCHC10H7C5HCHC7H3NCHCSCHCHFeHCHC3H2CH2NH6CHC3HCHCNHSHSCH12CHCHCH5CNCH2C4H3FeH2CH4CHSH2CH3CH4CH2CHC2H2NC4H2CH5C2H2SFeH2CFeSFeSCH2NHSC6H2FeS2FeSHFeSFeS3FeS2FeS2FeH2S3FeS2FeSFeSFeS3C6H8SC8H2C2HSHCHCHSC7H4C6H5NH3C2H3SHFeHCH4C3H4CNC9H14NC4HC4H5CH2FeH4CNC9H14C3H3CH2FeH2C2HCHFe2C2H2CHCHSHSHC3NFeHC2SHCSC2HCFeH2SCHNHCSH2S2C5HCHC2HC2H2CH3FeHCNH4CHCHSCSH2CHC3H3CSCH3C2HC2H2CHCHC2HCSH2CHCH3CH2FeS2HC5S2H4SC6HCH2Fe2SH3FeH2SH2SC4HCHSHC2H3SC3FeHFeH2C2HC3H2CH2CH4CNHC3H3NHCHCHCHCH3CH3CHN2H2CH3CH3SC
_chemical_formula_sum              "H1152 S256 Fe128 N64 C960"
_cell_length_a       69.1372
_cell_length_b       69.0376
_cell_length_c       32.5576
_cell_angle_alpha    78.8366
_cell_angle_beta     77.6942
_cell_angle_gamma    76.3794

_space_group_name_H-M_alt    "P 1"
_space_group_IT_number       1

loop_
  _space_group_symop_operation_xyz
  'x, y, z'

loop_
  _atom_site_type_symbol
  _atom_site_label
  _atom_site_symmetry_multiplicity
  _atom_site_fract_x
  _atom_site_fract_y
  _atom_site_fract_z
  _atom_site_occupancy
  H   H1        1.0  0.26107  0.08283  0.40120  1.0000
  S   S1        1.0  0.30571  0.17102  0.09685  1.0000
  Fe  Fe1       1.0  0.25846  0.18670  0.18003  1.0000
  S   S2        1.0  0.28070  0.15791  0.19214  1.0000
  S   S3        1.0  0.23208  0.19376  0.23172  1.0000
  Fe  Fe2       1.0  0.30435  0.17598  0.16312  1.0000
  H   H2        1.0  0.21248  0.05038  0.35748  1.0000
  Fe  Fe3       1.0  0.28022  0.15506  0.12521  1.0000
  S   S4        1.0  0.28068  0.12439  0.11140  1.0000
  H   H3        1.0  0.32166  0.20514  0.49454  1.0000
  S   S5        1.0  0.25583  0.18252  0.11501  1.0000
  H   H4        1.0  0.31297  0.12893  0.14983  1.0000
  H   H5        1.0  0.04804  0.12912  0.27363  1.0000
  N   N1        1.0  0.99824  0.04966  0.18046  1.0000
  C   C1        1.0  0.30758  0.19193  0.29644  1.0000
  S   S6        1.0  0.28849  0.09763  0.50217  1.0000
  H   H6        1.0  0.25281  0.12961  0.35271  1.0000
  H   H7        1.0  0.32339  0.05706  0.35584  1.0000
  S   S7        1.0  0.27013  0.02403  0.25384  1.0000
  H   H8        1.0  0.08532  0.05547  0.42132  1.0000
  H   H9        1.0  0.01249  0.17684  0.29234  1.0000
  H   H10       1.0  0.00053  0.05988  0.51254  1.0000
  Fe  Fe4       1.0  0.18537  0.11089  0.35507  1.0000
  S   S8        1.0  0.16396  0.12736  0.40502  1.0000
  S   S9        1.0  0.18830  0.11996  0.28463  1.0000
  Fe  Fe5       1.0  0.20394  0.07761  0.41936  1.0000
  S   S10       1.0  0.18391  0.09070  0.47496  1.0000
  S   S11       1.0  0.22954  0.05154  0.43053  1.0000
  Fe  Fe6       1.0  0.15936  0.09640  0.43643  1.0000
  S   S12       1.0  0.12810  0.09160  0.46628  1.0000
  Fe  Fe7       1.0  0.19046  0.12017  0.43885  1.0000
  S   S13       1.0  0.20093  0.14135  0.46941  1.0000
  S   S14       1.0  0.17881  0.08047  0.38349  1.0000
  S   S15       1.0  0.21232  0.10669  0.38577  1.0000
  Fe  Fe8       1.0  0.03792  0.04049  0.37772  1.0000
  S   S16       1.0  0.06004  0.06097  0.36201  1.0000
  H   H11       1.0  0.00908  0.13960  0.23112  1.0000
  S   S17       1.0  0.08267  0.03546  0.28379  1.0000
  Fe  Fe9       1.0  0.08356  0.03297  0.35295  1.0000
  S   S18       1.0  0.11382  0.02586  0.37365  1.0000
  Fe  Fe10      1.0  0.05728  0.06172  0.29443  1.0000
  H   H12       1.0  0.25335  0.12721  0.24304  1.0000
  H   H13       1.0  0.25326  0.11544  0.19847  1.0000
  C   C2        1.0  0.11687  0.04189  0.40650  1.0000
  C   C3        1.0  0.12347  0.07106  0.44826  1.0000
  C   C4        1.0  0.13963  0.05620  0.43353  1.0000
  C   C5        1.0  0.13636  0.04170  0.41248  1.0000
  H   H14       1.0  0.15470  0.05593  0.43810  1.0000
  H   H15       1.0  0.14903  0.03068  0.39976  1.0000
  C   C6        1.0  0.25823  0.02972  0.30429  1.0000
  C   C7        1.0  0.26971  0.02720  0.33616  1.0000
  C   C8        1.0  0.26060  0.03308  0.37566  1.0000
  C   C9        1.0  0.24006  0.04187  0.38311  1.0000
  H   H16       1.0  0.09116  0.08163  0.45717  1.0000
  H   H17       1.0  0.25172  0.99171  0.18830  1.0000
  C   C10       1.0  0.02113  0.10786  0.39023  1.0000
  C   C11       1.0  0.04088  0.09033  0.12302  1.0000
  C   C12       1.0  0.23747  0.03760  0.31234  1.0000
  H   H18       1.0  0.27702  0.16887  0.37587  1.0000
  H   H19       1.0  0.22852  0.03939  0.28783  1.0000
  C   C13       1.0  0.10377  0.07038  0.44512  1.0000
  C   C14       1.0  0.10048  0.05577  0.42420  1.0000
  H   H20       1.0  0.27625  0.05300  0.44438  1.0000
  H   H21       1.0  0.23075  0.14761  0.34040  1.0000
  H   H22       1.0  0.01379  0.06658  0.20682  1.0000
  C   C15       1.0  0.22842  0.04393  0.35163  1.0000
  C   C16       1.0  0.26409  0.11010  0.49449  1.0000
  C   C17       1.0  0.25754  0.13081  0.49561  1.0000
  C   C18       1.0  0.23778  0.14034  0.48970  1.0000
  C   C19       1.0  0.22491  0.12928  0.48109  1.0000
  C   C20       1.0  0.23159  0.10861  0.47994  1.0000
  C   C21       1.0  0.25099  0.09898  0.48733  1.0000
  H   H23       1.0  0.26758  0.13939  0.50171  1.0000
  H   H24       1.0  0.23264  0.15631  0.49094  1.0000
  H   H25       1.0  0.22180  0.09988  0.47373  1.0000
  H   H26       1.0  0.25590  0.08295  0.48680  1.0000
  H   H27       1.0  0.04532  0.15389  0.28557  1.0000
  H   H28       1.0  0.28570  0.02096  0.33042  1.0000
  C   C22       1.0  0.03734  0.10847  0.13906  1.0000
  C   C23       1.0  0.04780  0.01147  0.16332  1.0000
  H   H29       1.0  0.31024  0.10694  0.32029  1.0000
  H   H30       1.0  0.01535  0.05256  0.09315  1.0000
  H   H31       1.0  0.27476  0.01891  0.47495  1.0000
  C   C24       1.0  0.04176  0.02984  0.09483  1.0000
  C   C25       1.0  0.31905  0.03103  0.48547  1.0000
  S   S19       1.0  0.01537  0.04059  0.43868  1.0000
  H   H32       1.0  0.06202  0.05863  0.20313  1.0000
  C   C26       1.0  0.30284  0.08635  0.12867  1.0000
  H   H33       1.0  0.25985  0.15652  0.41502  1.0000
  C   C27       1.0  0.30065  0.10680  0.13080  1.0000
  H   H34       1.0  0.01823  0.11734  0.26484  1.0000
  C   C28       1.0  0.05037  0.07248  0.14562  1.0000
  H   H35       1.0  0.02584  0.01916  0.21699  1.0000
  H   H36       1.0  0.29370  0.00345  0.50355  1.0000
  H   H37       1.0  0.01951  0.00039  0.40918  1.0000
  H   H38       1.0  0.05360  0.05851  0.13293  1.0000
  C   C29       1.0  0.21887  0.17401  0.24535  1.0000
  C   C30       1.0  0.22125  0.16032  0.21721  1.0000
  C   C31       1.0  0.21120  0.14413  0.22883  1.0000
  C   C32       1.0  0.19937  0.14118  0.26920  1.0000
  C   C33       1.0  0.19713  0.15474  0.29756  1.0000
  C   C34       1.0  0.20657  0.17137  0.28530  1.0000
  H   H39       1.0  0.23064  0.16231  0.18625  1.0000
  H   H40       1.0  0.21292  0.13370  0.20680  1.0000
  H   H41       1.0  0.18794  0.15254  0.32877  1.0000
  H   H42       1.0  0.20469  0.18196  0.30712  1.0000
  C   C35       1.0  0.00919  0.13291  0.26509  1.0000
  C   C36       1.0  0.28479  0.04085  0.52273  1.0000
  H   H43       1.0  0.02677  0.09192  0.39969  1.0000
  N   N2        1.0  0.29733  0.03424  0.48295  1.0000
  Fe  Fe11      1.0  0.05851  0.01719  0.30535  1.0000
  H   H44       1.0  0.01867  0.00442  0.29832  1.0000
  H   H45       1.0  0.19912  0.20157  0.42419  1.0000
  C   C37       1.0  0.02321  0.11616  0.34719  1.0000
  C   C38       1.0  0.00620  0.16632  0.27951  1.0000
  H   H46       1.0  0.04653  0.03288  0.06068  1.0000
  C   C39       1.0  0.05380  0.01507  0.11938  1.0000
  C   C40       1.0  0.21101  0.20061  0.39646  1.0000
  Fe  Fe12      1.0  0.31206  0.11644  0.47717  1.0000
  H   H47       1.0  0.00909  0.11317  0.45448  1.0000
  H   H48       1.0  0.29580  0.06475  0.44960  1.0000
  C   C41       1.0  0.28644  0.09522  0.36479  1.0000
  C   C42       1.0  0.24015  0.18034  0.35553  1.0000
  S   S20       1.0  0.03276  0.08980  0.07576  1.0000
  H   H49       1.0  0.27632  0.14493  0.30447  1.0000
  C   C43       1.0  0.29255  0.05010  0.44673  1.0000
  S   S21       1.0  0.06177  0.01222  0.37373  1.0000
  C   C44       1.0  0.99810  0.06322  0.44657  1.0000
  H   H50       1.0  0.26964  0.03139  0.39982  1.0000
  C   C45       1.0  0.31881  0.07223  0.14424  1.0000
  Fe  Fe13      1.0  0.32359  0.15311  0.41858  1.0000
  H   H51       1.0  0.06784  0.00645  0.10440  1.0000
  H   H52       1.0  0.26834  0.04292  0.52248  1.0000
  H   H53       1.0  0.99225  0.01157  0.45948  1.0000
  H   H54       1.0  0.27654  0.11659  0.21041  1.0000
  S   S22       1.0  0.00074  0.14362  0.03182  1.0000
  C   C46       1.0  0.02374  0.04118  0.11412  1.0000
  C   C47       1.0  0.00560  0.14874  0.36650  1.0000
  S   S23       1.0  0.05730  0.09121  0.25106  1.0000
  S   S24       1.0  0.28416  0.22396  0.03909  1.0000
  C   C48       1.0  0.01543  0.98705  0.40358  1.0000
  S   S25       1.0  0.03261  0.04381  0.31063  1.0000
  N   N3        1.0  0.01721  0.14513  0.28797  1.0000
  C   C49       1.0  0.01741  0.03822  0.15902  1.0000
  H   H55       1.0  0.22874  0.22908  0.30524  1.0000
  H   H56       1.0  0.29210  0.08139  0.11534  1.0000
  C   C50       1.0  0.01118  0.11982  0.42124  1.0000
  C   C51       1.0  0.00345  0.14020  0.40944  1.0000
  H   H57       1.0  0.32335  0.21617  0.39832  1.0000
  H   H58       1.0  0.23571  0.14120  0.39366  1.0000
  H   H59       1.0  0.24738  0.08105  0.34020  1.0000
  H   H60       1.0  0.25311  0.19812  0.29691  1.0000
  H   H61       1.0  0.31248  0.23221  0.13803  1.0000
  H   H62       1.0  0.28711  0.05560  0.52758  1.0000
  C   C52       1.0  0.31209  0.18866  0.25395  1.0000
  H   H63       1.0  0.00691  0.17189  0.24481  1.0000
  C   C53       1.0  0.02151  0.98932  0.29077  1.0000
  N   N4        1.0  0.25423  0.16074  0.35097  1.0000
  N   N5        1.0  0.13996  0.11034  0.57099  1.0000
  C   C54       1.0  0.12718  0.12024  0.60686  1.0000
  C   C55       1.0  0.13664  0.12382  0.53050  1.0000
  C   C56       1.0  0.13285  0.09162  0.57098  1.0000
  C   C57       1.0  0.16148  0.10663  0.57540  1.0000
  C   C58       1.0  0.17112  0.12305  0.57193  1.0000
  C   C59       1.0  0.17340  0.08691  0.58368  1.0000
  C   C60       1.0  0.19153  0.11994  0.57493  1.0000
  C   C61       1.0  0.19385  0.08400  0.58636  1.0000
  C   C62       1.0  0.20293  0.10048  0.58168  1.0000
  H   H64       1.0  0.13069  0.13513  0.60715  1.0000
  H   H65       1.0  0.11081  0.12295  0.60516  1.0000
  H   H66       1.0  0.12949  0.11078  0.63795  1.0000
  H   H67       1.0  0.13907  0.13924  0.52957  1.0000
  H   H68       1.0  0.12098  0.12563  0.52453  1.0000
  H   H69       1.0  0.14697  0.11760  0.50291  1.0000
  H   H70       1.0  0.11705  0.09488  0.56490  1.0000
  H   H71       1.0  0.14226  0.08321  0.54521  1.0000
  H   H72       1.0  0.13303  0.08145  0.60195  1.0000
  H   H73       1.0  0.16312  0.13848  0.56593  1.0000
  H   H74       1.0  0.16747  0.07345  0.58709  1.0000
  H   H75       1.0  0.19874  0.13274  0.57047  1.0000
  H   H76       1.0  0.20282  0.06886  0.59131  1.0000
  H   H77       1.0  0.21890  0.09820  0.58265  1.0000
  N   N6        1.0  0.12333  0.08621  0.29453  1.0000
  C   C63       1.0  0.10453  0.07839  0.30000  1.0000
  C   C64       1.0  0.14054  0.06868  0.29363  1.0000
  C   C65       1.0  0.12207  0.09577  0.33236  1.0000
  C   C66       1.0  0.12658  0.10094  0.25541  1.0000
  C   C67       1.0  0.14363  0.11017  0.24640  1.0000
  C   C68       1.0  0.11326  0.10653  0.22532  1.0000
  C   C69       1.0  0.14705  0.12425  0.20995  1.0000
  C   C70       1.0  0.11689  0.12057  0.18878  1.0000
  C   C71       1.0  0.13371  0.12944  0.18115  1.0000
  H   H78       1.0  0.10254  0.06741  0.32972  1.0000
  H   H79       1.0  0.09081  0.09069  0.30206  1.0000
  H   H80       1.0  0.10476  0.07020  0.27355  1.0000
  H   H81       1.0  0.15505  0.07290  0.29397  1.0000
  H   H82       1.0  0.14247  0.06153  0.26476  1.0000
  H   H83       1.0  0.13819  0.05684  0.32177  1.0000
  H   H84       1.0  0.11883  0.08533  0.36235  1.0000
  H   H85       1.0  0.13642  0.10015  0.33342  1.0000
  H   H86       1.0  0.10985  0.10952  0.33334  1.0000
  H   H87       1.0  0.15448  0.10658  0.26761  1.0000
  H   H88       1.0  0.09993  0.10026  0.22912  1.0000
  H   H89       1.0  0.16017  0.13115  0.20420  1.0000
  H   H90       1.0  0.10656  0.12455  0.16622  1.0000
  H   H91       1.0  0.13644  0.14034  0.15285  1.0000
  N   N7        1.0  0.26131  0.09480  0.25426  1.0000
  C   C72       1.0  0.27402  0.07853  0.23102  1.0000
  C   C73       1.0  0.24019  0.09160  0.26455  1.0000
  C   C74       1.0  0.26114  0.11436  0.22562  1.0000
  C   C75       1.0  0.26984  0.09473  0.29238  1.0000
  C   C76       1.0  0.26076  0.08737  0.33412  1.0000
  C   C77       1.0  0.28825  0.10128  0.28835  1.0000
  C   C78       1.0  0.26878  0.08796  0.36968  1.0000
  H   H92       1.0  0.30354  0.19846  0.23105  1.0000
  H   H93       1.0  0.00600  0.04555  0.24327  1.0000
  H   H94       1.0  0.27456  0.06362  0.25155  1.0000
  H   H95       1.0  0.26817  0.07775  0.20215  1.0000
  H   H96       1.0  0.28989  0.08058  0.22056  1.0000
  H   H97       1.0  0.23925  0.07615  0.28118  1.0000
  H   H98       1.0  0.23346  0.09335  0.23553  1.0000
  H   H99       1.0  0.23024  0.10265  0.28465  1.0000
  Fe  Fe14      1.0  0.28145  0.19896  0.09361  1.0000
  C   C79       1.0  0.05524  0.07257  0.18529  1.0000
  H   H100      1.0  0.20150  0.23138  0.36836  1.0000
  H   H101      1.0  0.25683  0.16378  0.28312  1.0000
  S   S26       1.0  0.28224  0.20540  0.15806  1.0000
  C   C80       1.0  0.26662  0.16006  0.30777  1.0000
  H   H102      1.0  0.03041  0.12237  0.12131  1.0000
  C   C81       1.0  0.01523  0.13681  0.33387  1.0000
  H   H103      1.0  0.04068  0.12284  0.18940  1.0000
  H   H104      1.0  0.29749  0.18637  0.00562  1.0000
  H   H105      1.0  0.99342  0.13158  0.27975  1.0000
  C   C82       1.0  0.22476  0.18242  0.39195  1.0000
  C   C83       1.0  0.31832  0.17903  0.32638  1.0000
  C   C84       1.0  0.26813  0.15681  0.38180  1.0000
  H   H106      1.0  0.27717  0.17067  0.30021  1.0000
  C   C85       1.0  0.03883  0.14464  0.26971  1.0000
  C   C86       1.0  0.00169  0.05762  0.21703  1.0000
  C   C87       1.0  0.29627  0.10168  0.32413  1.0000
  C   C88       1.0  0.05156  0.09071  0.20136  1.0000
  C   C89       1.0  0.24168  0.19799  0.32523  1.0000
  H   H107      1.0  0.99897  0.16456  0.35976  1.0000
  H   H108      1.0  0.03092  0.10617  0.32440  1.0000
  H   H109      1.0  0.22316  0.16997  0.41726  1.0000
  C   C90       1.0  0.02986  0.02276  0.18291  1.0000
  H   H110      1.0  0.29672  0.10591  0.25745  1.0000
  Fe  Fe15      1.0  0.00395  0.11271  0.07057  1.0000
  H   H111      1.0  0.99181  0.07032  0.38270  1.0000
  C   C91       1.0  0.22776  0.21610  0.32983  1.0000
  C   C92       1.0  0.24288  0.14415  0.35981  1.0000
  C   C93       1.0  0.04309  0.10872  0.17769  1.0000
  H   H112      1.0  0.04103  0.15038  0.23498  1.0000
  H   H113      1.0  0.27893  0.14213  0.38006  1.0000
  S   S27       1.0  0.32027  0.12335  0.40638  1.0000
  S   S28       1.0  0.31222  0.14738  0.48855  1.0000
  C   C94       1.0  0.30460  0.21556  0.00054  1.0000
  C   C95       1.0  0.31454  0.11316  0.14816  1.0000
  C   C96       1.0  0.21238  0.21738  0.36522  1.0000
  H   H114      1.0  0.28846  0.02969  0.55100  1.0000
  H   H115      1.0  0.32041  0.05640  0.14274  1.0000
  C   C97       1.0  0.29116  0.01593  0.47677  1.0000
  H   H116      1.0  0.31995  0.21205  0.07747  1.0000
  H   H117      1.0  0.31399  0.12328  0.02080  1.0000
  Fe  Fe16      1.0  0.30338  0.01813  0.25352  1.0000
  H   H118      1.0  0.30148  0.04552  0.41621  1.0000
  H   H119      1.0  0.99526  0.14929  0.43376  1.0000
  H   H120      1.0  0.29956  0.01064  0.44635  1.0000
  H   H121      1.0  0.31804  0.06201  0.49319  1.0000
  S   S29       1.0  0.06200  0.99096  0.27124  1.0000
  H   H122      1.0  0.05712  0.99990  0.18247  1.0000
  H   H123      1.0  0.29258  0.09566  0.39254  1.0000
  H   H124      1.0  0.99740  0.02631  0.38187  1.0000
  C   C98       1.0  0.31830  0.22804  0.98153  1.0000
  H   H125      1.0  0.19722  0.98994  0.35385  1.0000
  H   H126      1.0  0.99919  0.07763  0.13805  1.0000
  H   H127      1.0  0.31755  0.23312  0.43603  1.0000
  H   H128      1.0  0.29549  0.20416  0.30625  1.0000
  C   C99       1.0  0.32322  0.13280  0.02878  1.0000
  S   S30       1.0  0.31688  0.04071  0.27284  1.0000
  H   H129      1.0  0.31846  0.14850  0.01301  1.0000
  H   H130      1.0  0.23083  0.99693  0.35262  1.0000
  C   C100      1.0  0.99498  0.98645  0.40412  1.0000
  H   H131      1.0  0.31874  0.13296  0.06344  1.0000
  C   C101      1.0  0.30828  0.19590  0.99137  1.0000
  C   C102      1.0  0.99328  0.06908  0.48697  1.0000
  C   C103      1.0  0.22886  0.98868  0.32912  1.0000
  S   S31       1.0  0.31178  0.18224  0.37988  1.0000
  S   S32       1.0  0.31878  0.99162  0.29466  1.0000
  H   H132      1.0  0.31835  0.24693  0.06445  1.0000
  H   H133      1.0  0.31541  0.24329  0.98835  1.0000
  H   H134      1.0  0.32083  0.24987  0.88288  1.0000
  C   C104      1.0  0.01185  0.63497  0.16368  1.0000
  H   H135      1.0  0.99155  0.68402  0.11397  1.0000
  C   C105      1.0  0.16558  0.72713  0.23503  1.0000
  C   C106      1.0  0.02628  0.65038  0.23195  1.0000
  H   H136      1.0  0.01784  0.61424  0.24252  1.0000
  Fe  Fe17      1.0  0.23807  0.71819  0.33429  1.0000
  Fe  Fe18      1.0  0.06838  0.71779  0.14690  1.0000
  S   S33       1.0  0.05102  0.69293  0.16019  1.0000
  C   C107      1.0  0.17928  0.71935  0.20097  1.0000
  S   S34       1.0  0.09032  0.71810  0.18819  1.0000
  S   S35       1.0  0.24181  0.70319  0.40068  1.0000
  H   H137      1.0  0.30541  0.69903  0.90270  1.0000
  Fe  Fe19      1.0  0.25037  0.71803  0.23960  1.0000
  C   C108      1.0  0.04278  0.73257  0.36452  1.0000
  H   H138      1.0  0.04699  0.65016  0.05857  1.0000
  C   C109      1.0  0.26845  0.67973  0.44954  1.0000
  H   H139      1.0  0.01263  0.64609  0.05698  1.0000
  H   H140      1.0  0.28800  0.73170  0.47226  1.0000
  C   C110      1.0  0.03155  0.63699  0.16598  1.0000
  S   S36       1.0  0.99796  0.68855  0.29912  1.0000
  H   H141      1.0  0.25307  0.72998  0.46859  1.0000
  C   C111      1.0  0.31848  0.67072  0.04834  1.0000
  H   H142      1.0  0.19512  0.71419  0.20310  1.0000
  H   H143      1.0  0.28372  0.66543  0.27642  1.0000
  Fe  Fe20      1.0  0.20601  0.72743  0.27834  1.0000
  S   S37       1.0  0.02085  0.70285  0.38856  1.0000
  H   H144      1.0  0.00892  0.72922  0.13771  1.0000
  C   C112      1.0  0.04491  0.73318  0.27761  1.0000
  H   H145      1.0  0.29908  0.66702  0.22534  1.0000
  N   N8        1.0  0.03801  0.63398  0.20779  1.0000
  H   H146      1.0  0.11879  0.71993  0.31922  1.0000
  H   H147      1.0  0.09213  0.72364  0.33800  1.0000
  H   H148      1.0  0.04205  0.73226  0.39817  1.0000
  C   C113      1.0  0.15160  0.72349  0.16259  1.0000
  H   H149      1.0  0.29308  0.69584  0.28923  1.0000
  C   C114      1.0  0.30857  0.69063  0.27178  1.0000
  C   C115      1.0  0.30459  0.71217  0.12767  1.0000
  H   H150      1.0  0.02870  0.64735  0.26555  1.0000
  H   H151      1.0  0.04602  0.73296  0.24416  1.0000
  H   H152      1.0  0.00119  0.63149  0.19206  1.0000
  S   S38       1.0  0.27462  0.70247  0.19231  1.0000
  H   H153      1.0  0.00979  0.65253  0.23304  1.0000
  C   C116      1.0  0.28324  0.69960  0.38615  1.0000
  H   H154      1.0  0.18270  0.71100  0.13877  1.0000
  H   H155      1.0  0.31221  0.69668  0.13474  1.0000
  C   C117      1.0  0.03423  0.61440  0.23281  1.0000
  Fe  Fe21      1.0  0.10880  0.73077  0.12823  1.0000
  H   H156      1.0  0.16617  0.66938  0.19242  1.0000
  H   H157      1.0  0.03055  0.66507  0.21758  1.0000
  C   C118      1.0  0.30469  0.67783  0.43428  1.0000
  H   H158      1.0  0.31570  0.64363  0.32837  1.0000
  S   S39       1.0  0.08834  0.72730  0.08600  1.0000
  C   C119      1.0  0.30247  0.69183  0.39723  1.0000
  C   C120      1.0  0.31208  0.66040  0.32249  1.0000
  C   C121      1.0  0.14513  0.73378  0.23216  1.0000
  H   H159      1.0  0.04137  0.60175  0.21442  1.0000
  C   C122      1.0  0.03743  0.64530  0.08797  1.0000
  H   H160      1.0  0.06951  0.62212  0.18593  1.0000
  C   C123      1.0  0.03606  0.69458  0.12184  1.0000
  C   C124      1.0  0.04258  0.70159  0.07901  1.0000
  C   C125      1.0  0.03068  0.70208  0.04865  1.0000
  C   C126      1.0  0.01205  0.69603  0.06115  1.0000
  Fe  Fe22      1.0  0.99598  0.69416  0.36573  1.0000
  C   C127      1.0  0.01740  0.68862  0.13428  1.0000
  H   H161      1.0  0.05696  0.70622  0.06909  1.0000
  H   H162      1.0  0.03593  0.70713  0.01543  1.0000
  H   H163      1.0  0.01197  0.68356  0.16731  1.0000
  N   N9        1.0  0.31544  0.71093  0.94941  1.0000
  C   C128      1.0  0.28764  0.67178  0.46029  1.0000
  H   H164      1.0  0.29640  0.72549  0.90309  1.0000
  C   C129      1.0  0.13814  0.73193  0.19612  1.0000
  C   C130      1.0  0.03321  0.71980  0.35093  1.0000
  H   H165      1.0  0.29634  0.66518  0.33953  1.0000
  C   C131      1.0  0.17223  0.71740  0.16479  1.0000
  H   H166      1.0  0.32322  0.64158  0.57531  1.0000
  H   H167      1.0  0.28155  0.71057  0.35790  1.0000
  H   H168      1.0  0.02728  0.71018  0.29663  1.0000
  S   S40       1.0  0.14260  0.72076  0.11794  1.0000
  H   H169      1.0  0.05903  0.64524  0.12518  1.0000
  C   C132      1.0  0.30012  0.71078  0.92389  1.0000
  H   H170      1.0  0.06343  0.64886  0.18905  1.0000
  S   S41       1.0  0.23079  0.70065  0.29040  1.0000
  S   S42       1.0  0.17317  0.72729  0.28295  1.0000
  H   H171      1.0  0.04010  0.61105  0.26328  1.0000
  C   C133      1.0  0.29948  0.66085  0.25932  1.0000
  N   N10       1.0  0.10542  0.69490  0.31682  1.0000
  C   C134      1.0  0.08517  0.69231  0.31298  1.0000
  C   C135      1.0  0.10931  0.68467  0.35967  1.0000
  C   C136      1.0  0.10452  0.71678  0.31396  1.0000
  C   C137      1.0  0.12192  0.68680  0.28355  1.0000
  C   C138      1.0  0.11831  0.67976  0.24816  1.0000
  C   C139      1.0  0.14235  0.68666  0.28492  1.0000
  C   C140      1.0  0.13416  0.67354  0.21579  1.0000
  C   C141      1.0  0.15811  0.67991  0.25297  1.0000
  C   C142      1.0  0.15401  0.67363  0.21818  1.0000
  H   H172      1.0  0.08485  0.67619  0.31399  1.0000
  H   H173      1.0  0.07324  0.69779  0.33941  1.0000
  H   H174      1.0  0.08030  0.70117  0.28320  1.0000
  H   H175      1.0  0.11148  0.66802  0.36201  1.0000
  H   H176      1.0  0.09652  0.68962  0.38518  1.0000
  H   H177      1.0  0.12292  0.68799  0.36764  1.0000
  H   H178      1.0  0.25528  0.67507  0.46998  1.0000
  C   C143      1.0  0.03420  0.72024  0.30745  1.0000
  H   H179      1.0  0.28920  0.66101  0.48892  1.0000
  H   H180      1.0  0.10332  0.67947  0.24397  1.0000
  H   H181      1.0  0.14632  0.69256  0.30976  1.0000
  H   H182      1.0  0.13100  0.66918  0.18803  1.0000
  H   H183      1.0  0.17351  0.68052  0.25423  1.0000
  C   C144      1.0  0.26621  0.69352  0.41237  1.0000
  H   H184      1.0  0.10180  0.72501  0.28199  1.0000
  C   C145      1.0  0.05980  0.63393  0.20440  1.0000
  H   H185      1.0  0.30319  0.64414  0.26197  1.0000
  C   C146      1.0  0.04417  0.64242  0.12676  1.0000
  H   H186      1.0  0.06425  0.63106  0.23629  1.0000
  S   S43       1.0  0.25973  0.73345  0.28464  1.0000
  H   H187      1.0  0.28585  0.70770  0.94490  1.0000
  C   C147      1.0  0.01803  0.64304  0.08699  1.0000
  N   N11       1.0  0.31419  0.66832  0.27630  1.0000
  C   C148      1.0  0.00524  0.63792  0.12482  1.0000
  H   H188      1.0  0.31492  0.66972  0.08270  1.0000
  C   C149      1.0  0.31373  0.72513  0.09470  1.0000
  S   S44       1.0  0.99731  0.69680  0.02279  1.0000
  C   C150      1.0  0.30797  0.72846  0.97285  1.0000
  H   H189      1.0  0.29306  0.72783  0.99379  1.0000
  C   C151      1.0  0.28570  0.71920  0.15134  1.0000
  C   C152      1.0  0.00549  0.68933  0.10405  1.0000
  H   H190      1.0  0.31553  0.69649  0.37666  1.0000
  C   C153      1.0  0.31453  0.68946  0.02274  1.0000
  H   H191      1.0  0.31891  0.72928  0.99275  1.0000
  H   H192      1.0  0.32370  0.66434  0.53896  1.0000
  H   H193      1.0  0.30864  0.69789  0.23813  1.0000
  H   H194      1.0  0.31925  0.69681  0.28428  1.0000
  H   H195      1.0  0.32202  0.66615  0.33797  1.0000
  H   H196      1.0  0.30779  0.70222  0.03918  1.0000
  H   H197      1.0  0.31742  0.66532  0.59495  1.0000
  C   C154      1.0  0.31924  0.69133  0.97760  1.0000
  H   H198      1.0  0.28407  0.96314  0.26645  1.0000
  H   H199      1.0  0.31197  0.82742  0.12613  1.0000
  H   H200      1.0  0.30767  0.75089  0.41508  1.0000
  C   C155      1.0  0.00272  0.84982  0.99049  1.0000
  H   H201      1.0  0.28195  0.76553  0.28946  1.0000
  C   C156      1.0  0.30377  0.74500  0.08408  1.0000
  H   H202      1.0  0.15995  0.77154  0.28128  1.0000
  S   S45       1.0  0.31465  0.76072  0.04052  1.0000
  H   H203      1.0  0.30116  0.74531  0.30712  1.0000
  C   C157      1.0  0.28421  0.76113  0.37514  1.0000
  H   H204      1.0  0.30791  0.76701  0.27222  1.0000
  S   S46       1.0  0.23178  0.79056  0.26174  1.0000
  Fe  Fe23      1.0  0.07477  0.75016  0.19115  1.0000
  C   C158      1.0  0.00911  0.95980  0.28558  1.0000
  H   H205      1.0  0.25670  0.76744  0.34774  1.0000
  H   H206      1.0  0.03198  0.93456  0.26639  1.0000
  C   C159      1.0  0.29246  0.75094  0.41180  1.0000
  H   H207      1.0  0.29816  0.82728  0.02114  1.0000
  H   H208      1.0  0.02754  0.74869  0.95030  1.0000
  H   H209      1.0  0.00354  0.76640  0.21465  1.0000
  C   C160      1.0  0.25285  0.74927  0.40836  1.0000
  C   C161      1.0  0.00338  0.78552  0.28242  1.0000
  H   H210      1.0  0.23767  0.74808  0.40664  1.0000
  C   C162      1.0  0.99895  0.74782  0.99185  1.0000
  H   H211      1.0  0.19250  0.81012  0.23690  1.0000
  H   H212      1.0  0.00935  0.75457  0.14274  1.0000
  C   C163      1.0  0.02588  0.82042  0.96596  1.0000
  C   C164      1.0  0.01646  0.83371  0.10734  1.0000
  H   H213      1.0  0.99888  0.82510  0.24510  1.0000
  C   C165      1.0  0.05432  0.74606  0.29115  1.0000
  C   C166      1.0  0.04221  0.80077  0.07275  1.0000
  C   C167      1.0  0.04981  0.81244  0.09371  1.0000
  C   C168      1.0  0.03695  0.82908  0.11061  1.0000
  Fe  Fe24      1.0  0.23251  0.75735  0.27198  1.0000
  H   H214      1.0  0.29212  0.81702  0.11832  1.0000
  H   H215      1.0  0.06571  0.80899  0.09573  1.0000
  H   H216      1.0  0.04289  0.83840  0.12601  1.0000
  C   C169      1.0  0.00535  0.97963  0.29418  1.0000
  H   H217      1.0  0.28480  0.80053  0.35803  1.0000
  H   H218      1.0  0.06026  0.75593  0.34521  1.0000
  H   H219      1.0  0.27660  0.93704  0.21037  1.0000
  H   H220      1.0  0.00276  0.76459  0.40357  1.0000
  C   C170      1.0  0.99742  0.75084  0.06655  1.0000
  C   C171      1.0  0.02502  0.79351  0.21517  1.0000
  C   C172      1.0  0.31374  0.92758  0.25824  1.0000
  H   H221      1.0  0.26118  0.74475  0.15934  1.0000
  H   H222      1.0  0.12923  0.80417  0.21348  1.0000
  C   C173      1.0  0.02169  0.80519  0.07019  1.0000
  C   C174      1.0  0.29676  0.76203  0.30003  1.0000
  C   C175      1.0  0.02898  0.94987  0.27293  1.0000
  C   C176      1.0  0.03845  0.84475  0.99207  1.0000
  C   C177      1.0  0.04501  0.95973  0.26827  1.0000
  C   C178      1.0  0.02687  0.95300  0.38749  1.0000
  H   H223      1.0  0.06034  0.95202  0.25798  1.0000
  S   S47       1.0  0.05837  0.78122  0.04791  1.0000
  C   C179      1.0  0.00693  0.95165  0.38908  1.0000
  C   C180      1.0  0.30382  0.82585  0.10133  1.0000
  H   H224      1.0  0.18509  0.76568  0.25296  1.0000
  N   N12       1.0  0.00382  0.79379  0.23678  1.0000
  S   S48       1.0  0.09471  0.76313  0.13400  1.0000
  C   C181      1.0  0.29613  0.79728  0.20623  1.0000
  C   C182      1.0  0.28918  0.78095  0.19926  1.0000
  C   C183      1.0  0.26891  0.77958  0.21376  1.0000
  C   C184      1.0  0.25560  0.79459  0.23493  1.0000
  C   C185      1.0  0.26214  0.81183  0.23840  1.0000
  C   C186      1.0  0.28249  0.81317  0.22404  1.0000
  C   C187      1.0  0.01767  0.75375  0.05502  1.0000
  H   H225      1.0  0.26384  0.76640  0.21035  1.0000
  H   H226      1.0  0.25180  0.82355  0.25444  1.0000
  H   H227      1.0  0.28778  0.82598  0.22882  1.0000
  S   S49       1.0  0.06871  0.76134  0.25379  1.0000
  C   C188      1.0  0.15393  0.81155  0.25373  1.0000
  H   H228      1.0  0.03259  0.80279  0.22850  1.0000
  C   C189      1.0  0.28477  0.75208  0.10751  1.0000
  C   C190      1.0  0.99225  0.81490  0.23220  1.0000
  H   H229      1.0  0.32272  0.95217  0.27611  1.0000
  H   H230      1.0  0.27696  0.76747  0.09956  1.0000
  C   C191      1.0  0.00272  0.77058  0.37024  1.0000
  H   H231      1.0  0.02577  0.75628  0.07775  1.0000
  H   H232      1.0  0.05083  0.84935  0.00063  1.0000
  H   H233      1.0  0.26639  0.93475  0.26607  1.0000
  H   H234      1.0  0.11805  0.79186  0.15959  1.0000
  H   H235      1.0  0.99313  0.82546  0.08388  1.0000
  S   S50       1.0  0.21171  0.74374  0.32624  1.0000
  C   C192      1.0  0.01060  0.79531  0.30891  1.0000
  H   H236      1.0  0.31807  0.77764  0.36915  1.0000
  C   C193      1.0  0.99579  0.76046  0.34510  1.0000
  C   C194      1.0  0.04194  0.82699  0.97502  1.0000
  C   C195      1.0  0.04135  0.97935  0.27756  1.0000
  H   H237      1.0  0.02608  0.79933  0.18058  1.0000
  H   H238      1.0  0.16043  0.81687  0.27703  1.0000
  C   C196      1.0  0.05301  0.74597  0.33464  1.0000
  H   H239      1.0  0.03910  0.94055  0.37947  1.0000
  H   H240      1.0  0.01687  0.80861  0.29620  1.0000
  S   S51       1.0  0.22480  0.74318  0.22293  1.0000
  H   H241      1.0  0.30121  0.92704  0.28449  1.0000
  C   C197      1.0  0.01022  0.78792  0.35216  1.0000
  H   H242      1.0  0.02932  0.80603  0.95483  1.0000
  H   H243      1.0  0.27085  0.79528  0.32226  1.0000
  S   S52       1.0  0.32214  0.79642  0.19685  1.0000
  H   H244      1.0  0.14925  0.82490  0.23005  1.0000
  H   H245      1.0  0.17960  0.78229  0.29144  1.0000
  H   H246      1.0  0.31652  0.78681  0.10710  1.0000
  C   C198      1.0  0.01890  0.85614  0.99975  1.0000
  H   H247      1.0  0.99650  0.83288  0.89741  1.0000
  S   S53       1.0  0.05096  0.74888  0.15534  1.0000
  N   N13       1.0  0.29607  0.77152  0.33760  1.0000
  Fe  Fe25      1.0  0.32311  0.86610  0.22605  1.0000
  C   C199      1.0  0.00879  0.82162  0.08756  1.0000
  H   H248      1.0  0.00376  0.93813  0.38193  1.0000
  S   S54       1.0  0.31952  0.83788  0.27230  1.0000
  H   H249      1.0  0.29573  0.84101  0.08854  1.0000
  H   H250      1.0  0.01596  0.79622  0.05372  1.0000
  S   S55       1.0  0.30276  0.89601  0.23583  1.0000
  H   H251      1.0  0.29340  0.80423  0.05495  1.0000
  Fe  Fe26      1.0  0.07249  0.75858  0.09753  1.0000
  H   H252      1.0  0.01604  0.79550  0.37164  1.0000
  H   H253      1.0  0.29508  0.80142  0.30224  1.0000
  C   C200      1.0  0.03110  0.97062  0.39498  1.0000
  C   C201      1.0  0.02828  0.75314  0.01346  1.0000
  N   N14       1.0  0.16868  0.79544  0.23273  1.0000
  C   C202      1.0  0.18734  0.80337  0.21372  1.0000
  C   C203      1.0  0.00574  0.83167  0.97326  1.0000
  C   C204      1.0  0.16106  0.78867  0.19977  1.0000
  C   C205      1.0  0.17418  0.77521  0.17316  1.0000
  C   C206      1.0  0.14053  0.79451  0.19404  1.0000
  C   C207      1.0  0.16737  0.76859  0.14188  1.0000
  C   C208      1.0  0.13384  0.78757  0.16296  1.0000
  C   C209      1.0  0.14724  0.77473  0.13681  1.0000
  H   H254      1.0  0.99188  0.74475  0.96774  1.0000
  H   H255      1.0  0.20043  0.79139  0.20357  1.0000
  H   H256      1.0  0.18496  0.81513  0.18560  1.0000
  C   C210      1.0  0.17351  0.77808  0.26610  1.0000
  C   C211      1.0  0.31806  0.91373  0.22971  1.0000
  C   C212      1.0  0.30545  0.81260  0.03774  1.0000
  H   H257      1.0  0.18971  0.76925  0.17702  1.0000
  H   H258      1.0  0.17756  0.75801  0.12244  1.0000
  H   H259      1.0  0.25026  0.93789  0.22783  1.0000
  C   C213      1.0  0.24526  0.98229  0.29795  1.0000
  H   H260      1.0  0.14191  0.76893  0.11351  1.0000
  C   C214      1.0  0.28624  0.79311  0.32978  1.0000
  H   H261      1.0  0.04666  0.97173  0.39314  1.0000
  H   H262      1.0  0.13464  0.74034  0.25790  1.0000
  C   C215      1.0  0.26395  0.76019  0.37472  1.0000
  C   C216      1.0  0.26336  0.94279  0.23424  1.0000
  C   C217      1.0  0.27945  0.96982  0.23524  1.0000
  H   H263      1.0  0.03413  0.77790  0.21843  1.0000
  C   C218      1.0  0.01903  0.74992  0.98206  1.0000
  H   H264      1.0  0.29968  0.76869  0.18511  1.0000
  H   H265      1.0  0.14024  0.80605  0.27227  1.0000
  C   C219      1.0  0.99619  0.76762  0.30178  1.0000
  C   C220      1.0  0.31727  0.77056  0.34177  1.0000
  S   S56       1.0  0.00042  0.85457  0.12799  1.0000
  H   H266      1.0  0.05706  0.81771  0.97079  1.0000
  H   H267      1.0  0.29204  0.96394  0.21027  1.0000
  N   N15       1.0  0.26001  0.96498  0.23231  1.0000
  H   H268      1.0  0.04396  0.75473  0.00594  1.0000
  H   H269      1.0  0.22075  0.96002  0.24513  1.0000
  N   N16       1.0  0.31785  0.81558  0.06710  1.0000
  H   H270      1.0  0.99194  0.90400  0.13923  1.0000
  H   H271      1.0  0.01618  0.86961  0.01439  1.0000
  H   H272      1.0  0.00049  0.79314  0.99132  1.0000
  H   H273      1.0  0.26766  0.97087  0.16388  1.0000
  H   H274      1.0  0.31449  0.80342  0.01307  1.0000
  C   C221      1.0  0.99501  0.78227  0.21396  1.0000
  C   C222      1.0  0.25496  0.97497  0.19022  1.0000
  C   C223      1.0  0.22359  0.96791  0.26813  1.0000
  C   C224      1.0  0.24311  0.97170  0.26632  1.0000
  C   C225      1.0  0.99933  0.74418  0.14287  1.0000
  C   C226      1.0  0.20728  0.97440  0.29942  1.0000
  C   C227      1.0  0.28123  0.73997  0.44522  1.0000
  H   H275      1.0  0.99548  0.78898  0.17989  1.0000
  C   C228      1.0  0.27584  0.73924  0.14147  1.0000
  H   H276      1.0  0.24152  0.97074  0.18359  1.0000
  H   H277      1.0  0.00633  0.80679  0.91534  1.0000
  H   H278      1.0  0.19247  0.97145  0.30004  1.0000
  H   H279      1.0  0.99206  0.82145  0.19822  1.0000
  H   H280      1.0  0.30595  0.74307  0.95104  1.0000
  C   C229      1.0  0.99322  0.81944  0.92072  1.0000
  C   C230      1.0  0.20991  0.98479  0.32981  1.0000
  C   C231      1.0  0.26152  0.73905  0.44338  1.0000
  H   H281      1.0  0.27856  0.98635  0.23067  1.0000
  H   H282      1.0  0.25939  0.98611  0.29907  1.0000
  H   H283      1.0  0.12233  0.73718  0.19430  1.0000
  Fe  Fe27      1.0  0.35208  0.11267  0.41765  1.0000
  C   C232      1.0  0.49667  0.22252  0.93730  1.0000
  S   S57       1.0  0.37420  0.09089  0.37893  1.0000
  C   C233      1.0  0.41326  0.03479  0.30640  1.0000
  S   S58       1.0  0.35736  0.14484  0.54217  1.0000
  Fe  Fe28      1.0  0.34141  0.03418  0.21730  1.0000
  C   C234      1.0  0.34009  0.20077  0.94648  1.0000
  H   H284      1.0  0.37733  0.01845  0.39264  1.0000
  C   C235      1.0  0.48817  0.15236  0.59238  1.0000
  S   S59       1.0  0.44163  0.19649  0.00679  1.0000
  H   H285      1.0  0.39063  0.04849  0.39540  1.0000
  S   S60       1.0  0.36049  0.00898  0.25452  1.0000
  H   H286      1.0  0.37093  0.18672  0.42737  1.0000
  S   S61       1.0  0.42735  0.19392  0.47477  1.0000
  C   C236      1.0  0.46336  0.20554  0.97991  1.0000
  C   C237      1.0  0.40498  0.21113  0.10043  1.0000
  H   H287      1.0  0.36250  0.19271  0.14078  1.0000
  H   H288      1.0  0.48267  0.15478  0.98924  1.0000
  C   C238      1.0  0.40804  0.07124  0.29341  1.0000
  H   H289      1.0  0.33589  0.08695  0.36272  1.0000
  H   H290      1.0  0.45161  0.15316  0.96540  1.0000
  S   S62       1.0  0.38475  0.21666  0.98738  1.0000
  C   C239      1.0  0.44374  0.23077  0.73947  1.0000
  H   H291      1.0  0.47790  0.20595  0.62274  1.0000
  Fe  Fe29      1.0  0.43259  0.21253  0.51976  1.0000
  C   C240      1.0  0.37990  0.16208  0.00878  1.0000
  C   C241      1.0  0.36533  0.15347  0.08230  1.0000
  C   C242      1.0  0.33257  0.01209  0.48275  1.0000
  Fe  Fe30      1.0  0.34305  0.98903  0.23702  1.0000
  C   C243      1.0  0.50366  0.21987  0.59873  1.0000
  H   H292      1.0  0.63806  0.19408  0.96032  1.0000
  H   H293      1.0  0.47096  0.16467  0.69145  1.0000
  C   C244      1.0  0.36946  0.14958  0.99690  1.0000
  H   H294      1.0  0.46694  0.20901  0.83447  1.0000
  N   N17       1.0  0.43355  0.14538  0.60814  1.0000
  C   C245      1.0  0.47071  0.14769  0.58487  1.0000
  H   H295      1.0  0.34223  0.15318  0.33674  1.0000
  C   C246      1.0  0.37675  0.15846  0.52275  1.0000
  C   C247      1.0  0.37880  0.17275  0.54585  1.0000
  C   C248      1.0  0.39411  0.18389  0.53101  1.0000
  C   C249      1.0  0.40757  0.18068  0.49318  1.0000
  C   C250      1.0  0.40548  0.16642  0.46994  1.0000
  C   C251      1.0  0.39010  0.15531  0.48471  1.0000
  H   H296      1.0  0.36841  0.17535  0.57514  1.0000
  H   H297      1.0  0.39543  0.19494  0.54892  1.0000
  H   H298      1.0  0.41593  0.16379  0.44074  1.0000
  H   H299      1.0  0.38886  0.14403  0.46711  1.0000
  C   C252      1.0  0.36419  0.06972  0.37898  1.0000
  H   H300      1.0  0.34481  0.18680  0.49363  1.0000
  C   C253      1.0  0.33079  0.09912  0.16266  1.0000
  C   C254      1.0  0.34942  0.03574  0.37440  1.0000
  C   C255      1.0  0.36837  0.03339  0.38559  1.0000
  C   C256      1.0  0.37586  0.05037  0.38725  1.0000
  H   H301      1.0  0.35360  0.05719  0.49731  1.0000
  S   S63       1.0  0.32628  0.01394  0.19433  1.0000
  C   C257      1.0  0.41621  0.16189  0.61972  1.0000
  C   C258      1.0  0.43409  0.14359  0.56309  1.0000
  H   H302      1.0  0.63983  0.22583  0.78017  1.0000
  H   H303      1.0  0.41911  0.17680  0.60259  1.0000
  C   C259      1.0  0.32727  0.04714  0.49118  1.0000
  S   S64       1.0  0.34382  0.10359  0.48792  1.0000
  H   H304      1.0  0.43783  0.15732  0.54130  1.0000
  H   H305      1.0  0.41922  0.14194  0.55761  1.0000
  C   C260      1.0  0.48824  0.15853  0.63061  1.0000
  C   C261      1.0  0.42966  0.12628  0.63489  1.0000
  H   H306      1.0  0.45608  0.20840  0.91756  1.0000
  N   N18       1.0  0.38327  0.09207  0.24575  1.0000
  C   C262      1.0  0.38906  0.10992  0.25528  1.0000
  C   C263      1.0  0.45353  0.15479  0.65498  1.0000
  C   C264      1.0  0.36102  0.09458  0.25880  1.0000
  H   H307      1.0  0.40556  0.10947  0.24503  1.0000
  H   H308      1.0  0.38119  0.12426  0.23846  1.0000
  H   H309      1.0  0.38493  0.11096  0.28996  1.0000
  C   C265      1.0  0.42430  0.21081  0.71746  1.0000
  S   S65       1.0  0.35642  0.14330  0.42264  1.0000
  H   H310      1.0  0.35290  0.10916  0.24333  1.0000
  H   H311      1.0  0.35504  0.08250  0.25049  1.0000
  H   H312      1.0  0.35667  0.09432  0.29373  1.0000
  H   H313      1.0  0.42780  0.12710  0.66935  1.0000
  C   C266      1.0  0.35062  0.10442  0.03931  1.0000
  C   C267      1.0  0.61110  0.22585  0.82153  1.0000
  C   C268      1.0  0.38850  0.09231  0.19907  1.0000
  H   H314      1.0  0.50161  0.16277  0.63568  1.0000
  S   S66       1.0  0.54541  0.20461  0.82134  1.0000
  H   H315      1.0  0.42855  0.05192  0.33263  1.0000
  H   H316      1.0  0.36618  0.22444  0.78526  1.0000
  Fe  Fe31      1.0  0.42987  0.21453  0.61272  1.0000
  H   H317      1.0  0.35203  0.18936  0.39573  1.0000
  H   H318      1.0  0.44521  0.13014  0.55301  1.0000
  H   H319      1.0  0.64260  0.19858  0.00923  1.0000
  C   C269      1.0  0.39344  0.07261  0.26749  1.0000
  C   C270      1.0  0.33029  0.22450  0.41548  1.0000
  C   C271      1.0  0.47708  0.20848  0.00284  1.0000
  C   C272      1.0  0.37575  0.22236  0.45121  1.0000
  H   H320      1.0  0.38331  0.08019  0.18896  1.0000
  S   S67       1.0  0.33998  0.01433  0.37371  1.0000
  H   H321      1.0  0.40197  0.15986  0.61195  1.0000
  C   C273      1.0  0.32587  0.18865  0.96358  1.0000
  C   C274      1.0  0.51244  0.20795  0.68148  1.0000
  H   H322      1.0  0.64464  0.20562  0.88837  1.0000
  C   C275      1.0  0.47099  0.15960  0.66196  1.0000
  H   H323      1.0  0.40515  0.09001  0.18812  1.0000
  C   C276      1.0  0.39242  0.19815  0.12317  1.0000
  C   C277      1.0  0.39893  0.03561  0.28154  1.0000
  H   H324      1.0  0.34163  0.10413  0.17553  1.0000
  H   H325      1.0  0.44058  0.15595  0.68036  1.0000
  H   H326      1.0  0.41179  0.08436  0.30068  1.0000
  H   H327      1.0  0.42117  0.20695  0.09981  1.0000
  H   H328      1.0  0.36306  0.99518  0.48244  1.0000
  H   H329      1.0  0.37822  0.05393  0.24327  1.0000
  C   C278      1.0  0.48340  0.21889  0.91411  1.0000
  C   C279      1.0  0.45258  0.14937  0.61564  1.0000
  H   H330      1.0  0.35079  0.14805  0.26133  1.0000
  H   H331      1.0  0.50372  0.22021  0.99963  1.0000
  C   C280      1.0  0.33613  0.20892  0.08069  1.0000
  H   H332      1.0  0.36550  0.11785  0.95868  1.0000
  C   C281      1.0  0.35974  0.19802  0.41053  1.0000
  N   N19       1.0  0.34110  0.22575  0.09605  1.0000
  C   C282      1.0  0.38920  0.05417  0.26224  1.0000
  Fe  Fe32      1.0  0.38438  0.20972  0.92316  1.0000
  H   H333      1.0  0.32870  0.17357  0.95613  1.0000
  H   H334      1.0  0.34275  0.09383  0.03068  1.0000
  H   H335      1.0  0.38132  0.10678  0.18144  1.0000
  C   C283      1.0  0.41780  0.05256  0.31230  1.0000
  S   S68       1.0  0.35302  0.06119  0.17960  1.0000
  H   H336      1.0  0.34460  0.13882  0.95093  1.0000
  H   H337      1.0  0.41275  0.16287  0.65423  1.0000
  H   H338      1.0  0.38589  0.17393  0.06005  1.0000
  H   H339      1.0  0.47164  0.14348  0.55417  1.0000
  C   C284      1.0  0.41214  0.20986  0.75777  1.0000
  H   H340      1.0  0.36353  0.15518  0.11540  1.0000
  Fe  Fe33      1.0  0.33458  0.01387  0.30850  1.0000
  N   N20       1.0  0.47626  0.17814  0.82373  1.0000
  C   C285      1.0  0.45668  0.17724  0.81300  1.0000
  C   C286      1.0  0.47840  0.19951  0.81314  1.0000
  C   C287      1.0  0.49252  0.16580  0.79635  1.0000
  C   C288      1.0  0.47800  0.17079  0.86888  1.0000
  C   C289      1.0  0.49581  0.17112  0.88370  1.0000
  C   C290      1.0  0.46228  0.16355  0.89936  1.0000
  C   C291      1.0  0.49753  0.16515  0.92652  1.0000
  C   C292      1.0  0.46412  0.15772  0.94220  1.0000
  C   C293      1.0  0.48165  0.15859  0.95576  1.0000
  H   H341      1.0  0.44381  0.18691  0.83111  1.0000
  H   H342      1.0  0.45600  0.18305  0.77877  1.0000
  H   H343      1.0  0.45413  0.16155  0.81906  1.0000
  H   H344      1.0  0.33858  0.19449  0.10271  1.0000
  H   H345      1.0  0.47648  0.20596  0.77981  1.0000
  H   H346      1.0  0.49352  0.20148  0.81602  1.0000
  H   H347      1.0  0.49185  0.14954  0.80467  1.0000
  H   H348      1.0  0.49148  0.17056  0.76207  1.0000
  H   H349      1.0  0.50785  0.16726  0.79917  1.0000
  H   H350      1.0  0.50838  0.17655  0.86244  1.0000
  H   H351      1.0  0.44821  0.16272  0.89118  1.0000
  H   H352      1.0  0.51096  0.16630  0.93731  1.0000
  H   H353      1.0  0.50159  0.15178  0.56789  1.0000
  H   H354      1.0  0.41559  0.12255  0.62980  1.0000
  S   S69       1.0  0.60334  0.21093  0.79273  1.0000
  H   H355      1.0  0.33756  0.22110  0.84464  1.0000
  S   S70       1.0  0.45332  0.19782  0.56625  1.0000
  H   H356      1.0  0.44240  0.11348  0.62750  1.0000
  C   C294      1.0  0.37165  0.20321  0.12254  1.0000
  C   C295      1.0  0.34764  0.04451  0.49391  1.0000
  Fe  Fe34      1.0  0.34507  0.13532  0.49225  1.0000
  H   H357      1.0  0.33131  0.21364  0.16169  1.0000
  S   S71       1.0  0.51791  0.19916  0.73288  1.0000
  C   C296      1.0  0.49548  0.20346  0.67133  1.0000
  C   C297      1.0  0.49099  0.20957  0.63023  1.0000
  S   S72       1.0  0.41930  0.19926  0.67852  1.0000
  C   C298      1.0  0.37785  0.16405  0.05131  1.0000
  C   C299      1.0  0.34922  0.12385  0.97015  1.0000
  C   C300      1.0  0.34499  0.07206  0.36894  1.0000
  C   C301      1.0  0.35660  0.13851  0.02767  1.0000
  Fe  Fe35      1.0  0.57014  0.22148  0.79105  1.0000
  C   C302      1.0  0.46652  0.21079  0.93551  1.0000
  H   H358      1.0  0.48584  0.22281  0.87990  1.0000
  C   C303      1.0  0.35488  0.14087  0.07078  1.0000
  H   H359      1.0  0.48568  0.19533  0.69531  1.0000
  H   H360      1.0  0.37149  0.14923  0.96322  1.0000
  N   N21       1.0  0.34522  0.12518  0.01632  1.0000
  H   H361      1.0  0.38935  0.17060  0.98456  1.0000
  C   C304      1.0  0.36288  0.22138  0.09850  1.0000
  S   S73       1.0  0.55911  0.23151  0.72887  1.0000
  S   S74       1.0  0.36329  0.19094  0.91654  1.0000
  N   N22       1.0  0.34510  0.21064  0.44017  1.0000
  H   H362      1.0  0.39993  0.20173  0.76493  1.0000
  C   C305      1.0  0.33624  0.22049  0.95530  1.0000
  H   H363      1.0  0.38631  0.21285  0.43022  1.0000
  H   H364      1.0  0.40566  0.21942  0.81920  1.0000
  S   S75       1.0  0.41797  0.20105  0.90568  1.0000
  H   H365      1.0  0.36797  0.20736  0.38387  1.0000
  H   H366      1.0  0.36719  0.09838  0.03227  1.0000
  H   H367      1.0  0.34704  0.23002  0.94201  1.0000
  H   H368      1.0  0.39516  0.02178  0.27760  1.0000
  S   S76       1.0  0.40796  0.22719  0.56782  1.0000
  C   C306      1.0  0.33387  0.16317  0.31372  1.0000
  H   H369      1.0  0.63538  0.22970  0.93133  1.0000
  C   C307      1.0  0.36044  0.02576  0.49137  1.0000
  H   H370      1.0  0.32801  0.99911  0.47691  1.0000
  H   H371      1.0  0.34530  0.20640  0.04890  1.0000
  Fe  Fe36      1.0  0.41831  0.21119  0.96659  1.0000
  H   H372      1.0  0.39885  0.18402  0.14105  1.0000
  C   C308      1.0  0.35293  0.00960  0.48576  1.0000
  C   C309      1.0  0.49350  0.21731  0.98162  1.0000
  C   C310      1.0  0.62973  0.23169  0.80717  1.0000
  H   H373      1.0  0.34052  0.11364  0.96281  1.0000
  C   C311      1.0  0.33435  0.19693  0.47324  1.0000
  C   C312      1.0  0.64784  0.23023  0.94742  1.0000
  H   H374      1.0  0.42054  0.02038  0.32181  1.0000
  C   C313      1.0  0.33788  0.05513  0.36525  1.0000
  C   C314      1.0  0.35465  0.22255  0.46044  1.0000
  H   H375      1.0  0.37630  0.02390  0.49268  1.0000
  C   C315      1.0  0.41541  0.21986  0.78848  1.0000
  C   C316      1.0  0.33877  0.16028  0.27103  1.0000
  Fe  Fe37      1.0  0.53259  0.21774  0.76159  1.0000
  C   C317      1.0  0.65020  0.19509  0.97696  1.0000
  C   C318      1.0  0.33287  0.07864  0.16086  1.0000
  H   H376      1.0  0.32769  0.18719  0.45889  1.0000
  S   S77       1.0  0.33327  0.16849  0.18851  1.0000
  H   H377      1.0  0.47465  0.20459  0.03710  1.0000
  C   C319      1.0  0.44032  0.22096  0.70864  1.0000
  H   H378      1.0  0.53816  0.22206  0.65793  1.0000
  H   H379      1.0  0.34517  0.13321  0.09593  1.0000
  C   C320      1.0  0.43108  0.23054  0.77910  1.0000
  C   C321      1.0  0.59812  0.23336  0.85667  1.0000
  C   C322      1.0  0.52493  0.21868  0.65036  1.0000
  H   H380      1.0  0.58395  0.22844  0.86877  1.0000
  C   C323      1.0  0.32776  0.17289  0.24125  1.0000
  H   H381      1.0  0.34620  0.10366  0.07433  1.0000
  H   H382      1.0  0.45030  0.22098  0.67834  1.0000
  C   C324      1.0  0.32898  0.22792  0.13894  1.0000
  C   C325      1.0  0.39673  0.22950  0.07819  1.0000
  C   C326      1.0  0.52067  0.22440  0.60883  1.0000
  H   H383      1.0  0.53057  0.23231  0.58454  1.0000
  H   H384      1.0  0.63565  0.22369  0.67523  1.0000
  S   S78       1.0  0.49800  0.22721  0.54709  1.0000
  Fe  Fe38      1.0  0.46562  0.22611  0.54873  1.0000
  Fe  Fe39      1.0  0.52869  0.23375  0.84337  1.0000
  C   C327      1.0  0.37596  0.23477  0.07761  1.0000
  C   C328      1.0  0.34261  0.23529  0.48975  1.0000
  Fe  Fe40      1.0  0.41601  0.23368  0.87884  1.0000
  C   C329      1.0  0.38406  0.23444  0.46975  1.0000
  H   H385      1.0  0.32649  0.23614  0.49853  1.0000
  C   C330      1.0  0.34270  0.23526  0.83518  1.0000
  H   H386      1.0  0.40023  0.23392  0.46251  1.0000
  H   H387      1.0  0.33765  0.23556  0.39133  1.0000
  C   C331      1.0  0.63826  0.23619  0.68758  1.0000
  S   S79       1.0  0.51614  0.23534  0.91239  1.0000
  H   H388      1.0  0.64046  0.23572  0.97808  1.0000
  C   C332      1.0  0.36506  0.29903  0.75690  1.0000
  H   H389      1.0  0.34327  0.24380  0.03377  1.0000
  H   H390      1.0  0.45766  0.40918  0.70838  1.0000
  H   H391      1.0  0.65591  0.24199  0.92775  1.0000
  C   C333      1.0  0.40177  0.36569  0.53261  1.0000
  H   H392      1.0  0.58576  0.26358  0.74926  1.0000
  S   S80       1.0  0.40820  0.28560  0.54502  1.0000
  H   H393      1.0  0.45484  0.43190  0.80368  1.0000
  C   C334      1.0  0.36217  0.31611  0.96351  1.0000
  Fe  Fe41      1.0  0.54133  0.25867  0.75760  1.0000
  S   S81       1.0  0.55427  0.24978  0.81721  1.0000
  S   S82       1.0  0.54537  0.28834  0.71811  1.0000
  H   H394      1.0  0.42723  0.42003  0.80045  1.0000
  H   H395      1.0  0.48166  0.44380  0.69531  1.0000
  S   S83       1.0  0.41902  0.24325  0.93840  1.0000
  H   H396      1.0  0.35596  0.30057  0.86290  1.0000
  C   C335      1.0  0.35535  0.30607  0.82859  1.0000
  H   H397      1.0  0.39705  0.27452  0.78563  1.0000
  H   H398      1.0  0.41451  0.35290  0.52516  1.0000
  S   S84       1.0  0.51365  0.24575  0.78630  1.0000
  H   H399      1.0  0.39534  0.37252  0.50328  1.0000
  H   H400      1.0  0.34166  0.25682  0.53060  1.0000
  C   C336      1.0  0.51138  0.27379  0.55021  1.0000
  C   C337      1.0  0.43836  0.44012  0.60589  1.0000
  H   H401      1.0  0.64852  0.27927  0.73514  1.0000
  H   H402      1.0  0.45587  0.27945  0.63007  1.0000
  C   C338      1.0  0.45479  0.40893  0.46640  1.0000
  H   H403      1.0  0.48434  0.30556  0.67906  1.0000
  H   H404      1.0  0.45399  0.45730  0.77657  1.0000
  C   C339      1.0  0.39007  0.39657  0.56167  1.0000
  H   H405      1.0  0.38983  0.35891  0.55562  1.0000
  H   H406      1.0  0.38739  0.44314  0.62549  1.0000
  Fe  Fe42      1.0  0.40536  0.37561  0.71389  1.0000
  S   S85       1.0  0.43339  0.35371  0.69070  1.0000
  C   C340      1.0  0.47546  0.29867  0.87598  1.0000
  S   S86       1.0  0.43109  0.33199  0.79105  1.0000
  Fe  Fe43      1.0  0.44369  0.35740  0.74896  1.0000
  S   S87       1.0  0.47444  0.36354  0.74459  1.0000
  Fe  Fe44      1.0  0.41808  0.33055  0.73457  1.0000
  C   C341      1.0  0.62197  0.25140  0.70029  1.0000
  S   S88       1.0  0.41690  0.38107  0.76886  1.0000
  C   C342      1.0  0.38640  0.29740  0.91263  1.0000
  S   S89       1.0  0.36657  0.27514  0.98091  1.0000
  C   C343      1.0  0.40914  0.41758  0.64837  1.0000
  C   C344      1.0  0.44420  0.42068  0.62729  1.0000
  C   C345      1.0  0.42961  0.40968  0.64946  1.0000
  H   H407      1.0  0.46007  0.41415  0.62700  1.0000
  H   H408      1.0  0.43432  0.39485  0.66644  1.0000
  S   S90       1.0  0.41894  0.29975  0.72218  1.0000
  H   H409      1.0  0.40656  0.23956  0.06047  1.0000
  N   N23       1.0  0.40828  0.38090  0.55038  1.0000
  C   C346      1.0  0.38031  0.33402  0.90106  1.0000
  C   C347      1.0  0.52529  0.30879  0.72641  1.0000
  C   C348      1.0  0.50580  0.30598  0.74540  1.0000
  C   C349      1.0  0.48986  0.32277  0.74975  1.0000
  C   C350      1.0  0.49367  0.34229  0.73692  1.0000
  C   C351      1.0  0.51324  0.34501  0.71875  1.0000
  C   C352      1.0  0.52895  0.32829  0.71281  1.0000
  H   H410      1.0  0.50298  0.29097  0.75671  1.0000
  H   H411      1.0  0.47483  0.32059  0.76438  1.0000
  H   H412      1.0  0.51621  0.36007  0.70877  1.0000
  H   H413      1.0  0.54400  0.33049  0.69804  1.0000
  H   H414      1.0  0.33927  0.31143  0.82472  1.0000
  C   C353      1.0  0.35726  0.27177  0.81282  1.0000
  H   H415      1.0  0.38424  0.40529  0.53276  1.0000
  C   C354      1.0  0.42413  0.39038  0.52087  1.0000
  H   H416      1.0  0.42523  0.41101  0.56292  1.0000
  H   H417      1.0  0.46524  0.30868  0.64736  1.0000
  C   C355      1.0  0.44826  0.39375  0.45372  1.0000
  H   H418      1.0  0.33275  0.28127  0.86479  1.0000
  H   H419      1.0  0.59873  0.31007  0.76226  1.0000
  H   H420      1.0  0.45142  0.42676  0.51586  1.0000
  H   H421      1.0  0.50359  0.27608  0.87466  1.0000
  H   H422      1.0  0.45172  0.26949  0.68507  1.0000
  C   C356      1.0  0.46259  0.41408  0.73446  1.0000
  H   H423      1.0  0.60715  0.25014  0.69665  1.0000
  C   C357      1.0  0.62468  0.26760  0.71813  1.0000
  C   C358      1.0  0.60328  0.24752  0.87585  1.0000
  H   H424      1.0  0.47705  0.43861  0.77066  1.0000
  H   H425      1.0  0.39436  0.28316  0.90284  1.0000
  C   C359      1.0  0.40722  0.29145  0.59547  1.0000
  C   C360      1.0  0.40560  0.27639  0.63075  1.0000
  C   C361      1.0  0.40874  0.27933  0.66985  1.0000
  C   C362      1.0  0.41280  0.29764  0.67421  1.0000
  C   C363      1.0  0.41316  0.31329  0.63976  1.0000
  C   C364      1.0  0.41046  0.31013  0.60015  1.0000
  H   H426      1.0  0.40270  0.26208  0.62749  1.0000
  H   H427      1.0  0.40860  0.26714  0.69639  1.0000
  H   H428      1.0  0.41646  0.32736  0.64319  1.0000
  H   H429      1.0  0.41193  0.32164  0.57274  1.0000
  H   H430      1.0  0.59736  0.26636  0.79134  1.0000
  H   H431      1.0  0.42042  0.38115  0.60620  1.0000
  H   H432      1.0  0.39306  0.40753  0.57924  1.0000
  N   N24       1.0  0.36594  0.29018  0.80193  1.0000
  C   C365      1.0  0.46357  0.26991  0.65598  1.0000
  C   C366      1.0  0.41784  0.44844  0.60588  1.0000
  H   H433      1.0  0.39420  0.29844  0.80176  1.0000
  C   C367      1.0  0.36609  0.25508  0.79074  1.0000
  N   N25       1.0  0.46204  0.28409  0.89378  1.0000
  C   C368      1.0  0.44019  0.29350  0.89884  1.0000
  C   C369      1.0  0.46578  0.26870  0.86533  1.0000
  C   C370      1.0  0.46628  0.27386  0.93633  1.0000
  H   H434      1.0  0.43580  0.30081  0.86770  1.0000
  H   H435      1.0  0.43056  0.28217  0.91232  1.0000
  H   H436      1.0  0.43596  0.30484  0.92101  1.0000
  H   H437      1.0  0.46344  0.27581  0.83253  1.0000
  H   H438      1.0  0.45549  0.25781  0.87686  1.0000
  H   H439      1.0  0.48137  0.25951  0.86309  1.0000
  H   H440      1.0  0.45684  0.26235  0.95031  1.0000
  H   H441      1.0  0.48223  0.26573  0.93523  1.0000
  H   H442      1.0  0.45210  0.32647  0.87091  1.0000
  C   C371      1.0  0.37218  0.29767  0.95032  1.0000
  N   N26       1.0  0.45465  0.43588  0.73611  1.0000
  C   C372      1.0  0.46803  0.31978  0.86614  1.0000
  H   H443      1.0  0.37136  0.31301  0.74773  1.0000
  S   S91       1.0  0.38886  0.35185  0.75237  1.0000
  H   H444      1.0  0.46341  0.28488  0.95884  1.0000
  C   C373      1.0  0.52871  0.28012  0.55281  1.0000
  S   S92       1.0  0.45716  0.45338  0.57903  1.0000
  C   C374      1.0  0.40323  0.43698  0.62646  1.0000
  H   H445      1.0  0.59206  0.28417  0.67915  1.0000
  H   H446      1.0  0.51030  0.26869  0.52140  1.0000
  C   C375      1.0  0.42190  0.45343  0.70927  1.0000
  C   C376      1.0  0.50203  0.32576  0.84097  1.0000
  H   H447      1.0  0.39327  0.46658  0.68916  1.0000
  C   C377      1.0  0.50980  0.30521  0.85045  1.0000
  S   S93       1.0  0.38520  0.35699  0.87128  1.0000
  H   H448      1.0  0.35866  0.34844  0.94968  1.0000
  H   H449      1.0  0.47522  0.34897  0.84043  1.0000
  H   H450      1.0  0.41330  0.46346  0.58912  1.0000
  H   H451      1.0  0.47941  0.41014  0.72908  1.0000
  C   C378      1.0  0.44629  0.41496  0.50583  1.0000
  H   H452      1.0  0.36246  0.31956  0.81999  1.0000
  H   H453      1.0  0.42968  0.46077  0.68037  1.0000
  H   H454      1.0  0.38890  0.27734  0.84015  1.0000
  H   H455      1.0  0.46866  0.25417  0.64884  1.0000
  H   H456      1.0  0.35120  0.31641  0.99269  1.0000
  H   H457      1.0  0.60959  0.30083  0.66855  1.0000
  H   H458      1.0  0.49556  0.24920  0.69102  1.0000
  C   C379      1.0  0.65775  0.23675  0.69168  1.0000
  C   C380      1.0  0.49678  0.29186  0.86783  1.0000
  H   H459      1.0  0.57790  0.28604  0.77236  1.0000
  C   C381      1.0  0.42038  0.43065  0.77597  1.0000
  C   C382      1.0  0.38738  0.28489  0.80754  1.0000
  H   H460      1.0  0.47730  0.26366  0.72756  1.0000
  C   C383      1.0  0.43123  0.40585  0.53266  1.0000
  S   S94       1.0  0.43531  0.24298  0.81735  1.0000
  H   H461      1.0  0.46650  0.41603  0.44571  1.0000
  Fe  Fe45      1.0  0.38537  0.24805  0.95327  1.0000
  C   C384      1.0  0.59144  0.27446  0.76228  1.0000
  N   N27       1.0  0.60713  0.28353  0.73128  1.0000
  H   H462      1.0  0.54387  0.29081  0.59253  1.0000
  C   C385      1.0  0.40084  0.45684  0.71386  1.0000
  H   H463      1.0  0.42957  0.35850  0.58296  1.0000
  C   C386      1.0  0.46033  0.44116  0.77339  1.0000
  H   H464      1.0  0.37415  0.28864  0.73454  1.0000
  C   C387      1.0  0.48121  0.33302  0.84890  1.0000
  H   H465      1.0  0.61891  0.29136  0.78078  1.0000
  S   S95       1.0  0.39126  0.40256  0.67148  1.0000
  Fe  Fe46      1.0  0.40306  0.35523  0.80561  1.0000
  C   C388      1.0  0.43317  0.38452  0.48041  1.0000
  C   C389      1.0  0.35111  0.24724  0.50822  1.0000
  H   H466      1.0  0.42891  0.37284  0.46859  1.0000
  C   C390      1.0  0.46495  0.44724  0.69734  1.0000
  C   C391      1.0  0.51467  0.28546  0.62538  1.0000
  H   H467      1.0  0.52599  0.29952  0.84376  1.0000
  C   C392      1.0  0.33336  0.25148  0.85682  1.0000
  C   C393      1.0  0.39936  0.43397  0.78000  1.0000
  C   C394      1.0  0.63487  0.24591  0.82622  1.0000
  H   H468      1.0  0.37338  0.44910  0.75155  1.0000
  C   C395      1.0  0.38962  0.44699  0.74893  1.0000
  H   H469      1.0  0.48292  0.26758  0.58100  1.0000
  H   H470      1.0  0.45989  0.46385  0.69654  1.0000
  H   H471      1.0  0.45498  0.38906  0.42301  1.0000
  H   H472      1.0  0.58516  0.30672  0.70194  1.0000
  C   C396      1.0  0.59819  0.29431  0.69353  1.0000
  C   C397      1.0  0.41601  0.37059  0.58981  1.0000
  C   C398      1.0  0.61233  0.29866  0.75170  1.0000
  C   C399      1.0  0.36636  0.33422  0.93914  1.0000
  H   H473      1.0  0.40089  0.31535  0.85815  1.0000
  H   H474      1.0  0.45730  0.40443  0.76433  1.0000
  H   H475      1.0  0.37766  0.38991  0.58313  1.0000
  C   C400      1.0  0.35890  0.23712  0.80193  1.0000
  H   H476      1.0  0.51211  0.33603  0.82649  1.0000
  H   H477      1.0  0.46227  0.44321  0.66786  1.0000
  C   C401      1.0  0.64483  0.26777  0.72165  1.0000
  H   H478      1.0  0.34925  0.30278  0.75094  1.0000
  C   C402      1.0  0.43234  0.44020  0.74030  1.0000
  C   C403      1.0  0.53033  0.28601  0.59031  1.0000
  H   H479      1.0  0.46092  0.29832  0.70273  1.0000
  S   S96       1.0  0.62719  0.27252  0.88338  1.0000
  C   C404      1.0  0.39022  0.31558  0.88760  1.0000
  N   N28       1.0  0.48072  0.27797  0.66199  1.0000
  H   H480      1.0  0.54099  0.28021  0.52586  1.0000
  C   C405      1.0  0.48910  0.26476  0.69842  1.0000
  C   C406      1.0  0.47251  0.29851  0.67320  1.0000
  C   C407      1.0  0.49689  0.27882  0.62405  1.0000
  C   C408      1.0  0.49563  0.27316  0.58512  1.0000
  H   H481      1.0  0.50133  0.27027  0.70690  1.0000
  C   C409      1.0  0.37179  0.24689  0.49804  1.0000
  C   C410      1.0  0.62152  0.25406  0.86021  1.0000
  H   H482      1.0  0.59296  0.25362  0.90245  1.0000
  H   H483      1.0  0.40435  0.36369  0.61340  1.0000
  H   H484      1.0  0.37067  0.24917  0.05948  1.0000
  H   H485      1.0  0.37900  0.25559  0.76531  1.0000
  H   H486      1.0  0.62318  0.30709  0.72949  1.0000
  H   H487      1.0  0.37838  0.25618  0.51234  1.0000
  Fe  Fe47      1.0  0.42400  0.25306  0.54929  1.0000
  C   C411      1.0  0.34044  0.26953  0.84599  1.0000
  S   S97       1.0  0.44713  0.23962  0.49733  1.0000
  H   H488      1.0  0.51675  0.29010  0.65378  1.0000
  H   H489      1.0  0.33662  0.25814  0.07746  1.0000
  S   S98       1.0  0.38227  0.24155  0.89067  1.0000
  H   H490      1.0  0.33300  0.23976  0.15247  1.0000
  H   H491      1.0  0.64887  0.25098  0.81361  1.0000
  S   S99       1.0  0.44373  0.24174  0.59865  1.0000
  H   H492      1.0  0.45633  0.23832  0.73279  1.0000
  C   C412      1.0  0.33465  0.24448  0.06674  1.0000
  H   H493      1.0  0.39061  0.42596  0.80681  1.0000
  H   H494      1.0  0.37910  0.56060  0.77815  1.0000
  Fe  Fe48      1.0  0.41879  0.52601  0.58909  1.0000
  S   S100      1.0  0.43374  0.51054  0.53246  1.0000
  S   S101      1.0  0.38587  0.54044  0.59644  1.0000
  Fe  Fe49      1.0  0.45701  0.51692  0.62587  1.0000
  S   S102      1.0  0.47555  0.50128  0.57227  1.0000
  S   S103      1.0  0.47042  0.51718  0.68250  1.0000
  Fe  Fe50      1.0  0.45874  0.52640  0.53064  1.0000
  S   S104      1.0  0.47425  0.53953  0.46733  1.0000
  C   C413      1.0  0.34652  0.72299  0.18868  1.0000
  S   S105      1.0  0.44268  0.54376  0.58374  1.0000
  S   S106      1.0  0.43163  0.50059  0.63613  1.0000
  Fe  Fe51      1.0  0.54948  0.57483  0.68779  1.0000
  S   S107      1.0  0.57829  0.58628  0.67381  1.0000
  S   S108      1.0  0.53825  0.56902  0.63227  1.0000
  Fe  Fe52      1.0  0.54193  0.57912  0.78121  1.0000
  S   S109      1.0  0.57004  0.59092  0.77536  1.0000
  S   S110      1.0  0.51903  0.57913  0.84112  1.0000
  Fe  Fe53      1.0  0.56123  0.60932  0.71506  1.0000
  S   S111      1.0  0.56209  0.64212  0.69789  1.0000
  Fe  Fe54      1.0  0.58434  0.56671  0.73483  1.0000
  S   S112      1.0  0.53186  0.59955  0.72435  1.0000
  S   S113      1.0  0.55686  0.55310  0.74582  1.0000
  Fe  Fe55      1.0  0.49758  0.66966  0.42446  1.0000
  S   S114      1.0  0.47787  0.68412  0.47840  1.0000
  S   S115      1.0  0.49788  0.68462  0.35720  1.0000
  Fe  Fe56      1.0  0.50939  0.63036  0.48029  1.0000
  S   S116      1.0  0.49015  0.64087  0.53973  1.0000
  S   S117      1.0  0.52841  0.59961  0.47553  1.0000
  Fe  Fe57      1.0  0.46708  0.65522  0.49792  1.0000
  S   S118      1.0  0.43381  0.65644  0.51703  1.0000
  Fe  Fe58      1.0  0.50254  0.66898  0.51540  1.0000
  S   S119      1.0  0.51015  0.68744  0.55718  1.0000
  S   S120      1.0  0.48498  0.64160  0.44123  1.0000
  S   S121      1.0  0.52374  0.65738  0.45885  1.0000
  Fe  Fe59      1.0  0.40416  0.64551  0.74104  1.0000
  S   S122      1.0  0.41407  0.62989  0.80223  1.0000
  S   S123      1.0  0.41641  0.67237  0.70483  1.0000
  Fe  Fe60      1.0  0.37664  0.61710  0.74345  1.0000
  S   S124      1.0  0.38329  0.59923  0.80597  1.0000
  S   S125      1.0  0.35485  0.61075  0.70798  1.0000
  Fe  Fe61      1.0  0.38125  0.62933  0.82490  1.0000
  Fe  Fe62      1.0  0.41539  0.60138  0.77822  1.0000
  S   S126      1.0  0.43984  0.57368  0.78135  1.0000
  S   S127      1.0  0.37115  0.64718  0.76520  1.0000
  S   S128      1.0  0.40900  0.61693  0.71405  1.0000
  C   C414      1.0  0.47597  0.68040  0.34458  1.0000
  C   C415      1.0  0.47658  0.67339  0.30671  1.0000
  C   C416      1.0  0.45941  0.66791  0.29945  1.0000
  H   H495      1.0  0.43634  0.70107  0.46183  1.0000
  C   C417      1.0  0.44060  0.67830  0.36599  1.0000
  C   C418      1.0  0.45805  0.68254  0.37437  1.0000
  H   H496      1.0  0.49054  0.67134  0.28396  1.0000
  H   H497      1.0  0.58371  0.56002  0.92694  1.0000
  H   H498      1.0  0.42684  0.68000  0.38927  1.0000
  H   H499      1.0  0.45779  0.68708  0.40429  1.0000
  C   C419      1.0  0.42626  0.66470  0.56646  1.0000
  C   C420      1.0  0.41013  0.65806  0.59501  1.0000
  C   C421      1.0  0.40648  0.66121  0.63742  1.0000
  C   C422      1.0  0.41857  0.67154  0.65081  1.0000
  C   C423      1.0  0.43381  0.67938  0.62158  1.0000
  C   C424      1.0  0.43785  0.67571  0.57948  1.0000
  H   H500      1.0  0.40135  0.64935  0.58503  1.0000
  H   H501      1.0  0.39466  0.65518  0.66005  1.0000
  H   H502      1.0  0.44331  0.68719  0.63204  1.0000
  H   H503      1.0  0.45040  0.68078  0.55767  1.0000
  C   C425      1.0  0.54668  0.65441  0.66035  1.0000
  C   C426      1.0  0.54287  0.67544  0.65114  1.0000
  C   C427      1.0  0.53115  0.68544  0.62020  1.0000
  C   C428      1.0  0.52331  0.67445  0.59811  1.0000
  C   C429      1.0  0.52666  0.65342  0.60802  1.0000
  C   C430      1.0  0.53844  0.64340  0.63906  1.0000
  H   H504      1.0  0.64073  0.60725  0.73212  1.0000
  H   H505      1.0  0.41274  0.71796  0.47395  1.0000
  H   H506      1.0  0.52055  0.64495  0.59114  1.0000
  H   H507      1.0  0.54171  0.62716  0.64574  1.0000
  C   C431      1.0  0.49653  0.57695  0.82750  1.0000
  C   C432      1.0  0.49726  0.56376  0.79940  1.0000
  C   C433      1.0  0.47950  0.56238  0.78711  1.0000
  C   C434      1.0  0.46115  0.57487  0.80099  1.0000
  C   C435      1.0  0.46033  0.58824  0.82890  1.0000
  C   C436      1.0  0.47802  0.58897  0.84284  1.0000
  H   H508      1.0  0.51148  0.55439  0.78760  1.0000
  H   H509      1.0  0.48001  0.55200  0.76587  1.0000
  H   H510      1.0  0.44608  0.59767  0.84032  1.0000
  H   H511      1.0  0.47743  0.59901  0.86495  1.0000
  C   C437      1.0  0.53101  0.50478  0.60856  1.0000
  C   C438      1.0  0.48852  0.55692  0.46971  1.0000
  C   C439      1.0  0.48448  0.56728  0.50451  1.0000
  C   C440      1.0  0.49628  0.58108  0.50560  1.0000
  C   C441      1.0  0.51257  0.58382  0.47276  1.0000
  C   C442      1.0  0.51657  0.57349  0.43802  1.0000
  C   C443      1.0  0.50428  0.56035  0.43610  1.0000
  H   H512      1.0  0.47215  0.56493  0.53025  1.0000
  H   H513      1.0  0.49303  0.58930  0.53224  1.0000
  H   H514      1.0  0.52903  0.57582  0.41238  1.0000
  H   H515      1.0  0.50730  0.55247  0.40901  1.0000
  C   C444      1.0  0.37810  0.56052  0.62602  1.0000
  C   C445      1.0  0.39156  0.56633  0.64558  1.0000
  C   C446      1.0  0.38470  0.58199  0.67036  1.0000
  C   C447      1.0  0.36432  0.59172  0.67578  1.0000
  C   C448      1.0  0.35099  0.58609  0.65562  1.0000
  C   C449      1.0  0.35787  0.57058  0.63073  1.0000
  H   H516      1.0  0.40712  0.55854  0.64218  1.0000
  H   H517      1.0  0.39505  0.58627  0.68580  1.0000
  H   H518      1.0  0.45546  0.69071  0.86060  1.0000
  H   H519      1.0  0.34739  0.56611  0.61576  1.0000
  C   C450      1.0  0.48850  0.53245  0.66929  1.0000
  C   C451      1.0  0.49153  0.54390  0.62894  1.0000
  C   C452      1.0  0.50640  0.55562  0.61829  1.0000
  C   C453      1.0  0.51855  0.55564  0.64759  1.0000
  C   C454      1.0  0.51514  0.54464  0.68833  1.0000
  C   C455      1.0  0.50022  0.53293  0.69905  1.0000
  H   H520      1.0  0.48241  0.54378  0.60590  1.0000
  H   H521      1.0  0.50841  0.56472  0.58739  1.0000
  H   H522      1.0  0.52435  0.54466  0.71123  1.0000
  H   H523      1.0  0.49803  0.52396  0.73019  1.0000
  S   S129      1.0  0.39032  0.72084  0.89407  1.0000
  Fe  Fe63      1.0  0.35131  0.68459  0.40742  1.0000
  C   C456      1.0  0.38336  0.69237  0.85519  1.0000
  C   C457      1.0  0.37418  0.65181  0.20417  1.0000
  H   H524      1.0  0.56400  0.67874  0.53346  1.0000
  H   H525      1.0  0.60957  0.57131  0.81472  1.0000
  H   H526      1.0  0.58889  0.61409  0.47288  1.0000
  H   H527      1.0  0.53883  0.62261  0.53984  1.0000
  H   H528      1.0  0.55648  0.65014  0.51103  1.0000
  Fe  Fe64      1.0  0.37427  0.71778  0.39872  1.0000
  C   C458      1.0  0.36918  0.52326  0.71444  1.0000
  N   N29       1.0  0.41279  0.53030  0.76147  1.0000
  H   H529      1.0  0.60995  0.55531  0.92973  1.0000
  S   S130      1.0  0.42023  0.66289  0.32119  1.0000
  H   H530      1.0  0.40626  0.55188  0.80564  1.0000
  C   C459      1.0  0.38522  0.60405  0.47149  1.0000
  C   C460      1.0  0.38927  0.58651  0.50043  1.0000
  H   H531      1.0  0.46152  0.59870  0.45350  1.0000
  H   H532      1.0  0.41217  0.56286  0.52429  1.0000
  H   H533      1.0  0.36969  0.61157  0.46983  1.0000
  H   H534      1.0  0.37701  0.58034  0.52149  1.0000
  H   H535      1.0  0.54484  0.59567  0.54818  1.0000
  H   H536      1.0  0.54644  0.60897  0.58868  1.0000
  S   S131      1.0  0.36889  0.63748  0.89011  1.0000
  H   H537      1.0  0.33193  0.73294  0.18733  1.0000
  H   H538      1.0  0.35944  0.62789  0.54249  1.0000
  H   H539      1.0  0.58881  0.54571  0.82242  1.0000
  H   H540      1.0  0.39724  0.62546  0.42234  1.0000
  C   C461      1.0  0.39241  0.53273  0.75112  1.0000
  H   H541      1.0  0.58316  0.53039  0.87347  1.0000
  H   H542      1.0  0.47074  0.60583  0.39853  1.0000
  H   H543      1.0  0.57374  0.51473  0.65692  1.0000
  Fe  Fe65      1.0  0.35636  0.71317  0.32570  1.0000
  H   H544      1.0  0.61174  0.51568  0.83006  1.0000
  C   C462      1.0  0.54510  0.51587  0.58180  1.0000
  H   H545      1.0  0.42947  0.50553  0.72816  1.0000
  H   H546      1.0  0.38524  0.70305  0.82625  1.0000
  H   H547      1.0  0.64122  0.55086  0.88580  1.0000
  C   C463      1.0  0.40918  0.57665  0.50207  1.0000
  N   N30       1.0  0.47616  0.61941  0.67463  1.0000
  C   C464      1.0  0.47424  0.61363  0.72155  1.0000
  C   C465      1.0  0.49736  0.61247  0.65472  1.0000
  C   C466      1.0  0.47128  0.64180  0.66582  1.0000
  C   C467      1.0  0.46317  0.60980  0.65752  1.0000
  C   C468      1.0  0.45243  0.62007  0.62437  1.0000
  C   C469      1.0  0.46242  0.58912  0.67103  1.0000
  C   C470      1.0  0.44090  0.61052  0.60742  1.0000
  C   C471      1.0  0.45068  0.57976  0.65412  1.0000
  C   C472      1.0  0.43975  0.59052  0.62273  1.0000
  H   H548      1.0  0.48187  0.62251  0.73587  1.0000
  H   H549      1.0  0.45807  0.61575  0.73726  1.0000
  H   H550      1.0  0.48153  0.59771  0.73086  1.0000
  H   H551      1.0  0.50258  0.59602  0.66429  1.0000
  H   H552      1.0  0.50765  0.62039  0.66381  1.0000
  H   H553      1.0  0.49924  0.61516  0.61945  1.0000
  H   H554      1.0  0.45502  0.64763  0.67754  1.0000
  H   H555      1.0  0.48018  0.64874  0.68161  1.0000
  H   H556      1.0  0.47500  0.64769  0.63141  1.0000
  H   H557      1.0  0.45279  0.63549  0.61081  1.0000
  H   H558      1.0  0.47101  0.57988  0.69446  1.0000
  H   H559      1.0  0.43283  0.61869  0.58213  1.0000
  H   H560      1.0  0.45036  0.56400  0.66505  1.0000
  H   H561      1.0  0.43051  0.58337  0.60986  1.0000
  H   H562      1.0  0.34980  0.64603  0.30579  1.0000
  C   C473      1.0  0.58430  0.66066  0.57423  1.0000
  N   N31       1.0  0.54442  0.52306  0.53607  1.0000
  S   S132      1.0  0.38194  0.68436  0.42060  1.0000
  C   C474      1.0  0.57149  0.66358  0.54491  1.0000
  N   N32       1.0  0.34906  0.65463  0.57261  1.0000
  H   H563      1.0  0.52463  0.64159  0.75644  1.0000
  H   H564      1.0  0.39934  0.50761  0.71453  1.0000
  C   C475      1.0  0.43366  0.72905  0.52657  1.0000
  C   C476      1.0  0.35380  0.67491  0.56708  1.0000
  C   C477      1.0  0.35108  0.68867  0.52929  1.0000
  C   C478      1.0  0.36142  0.68151  0.59811  1.0000
  S   S133      1.0  0.38735  0.71604  0.33018  1.0000
  C   C479      1.0  0.36659  0.70045  0.59083  1.0000
  H   H565      1.0  0.47737  0.73447  0.45653  1.0000
  C   C480      1.0  0.56019  0.50940  0.51075  1.0000
  C   C481      1.0  0.37723  0.70323  0.15328  1.0000
  H   H566      1.0  0.34527  0.68479  0.50434  1.0000
  H   H567      1.0  0.41632  0.49822  0.78143  1.0000
  C   C482      1.0  0.54840  0.54386  0.52335  1.0000
  C   C483      1.0  0.62295  0.53565  0.86048  1.0000
  N   N33       1.0  0.44741  0.67243  0.82288  1.0000
  H   H568      1.0  0.43860  0.68747  0.76263  1.0000
  C   C484      1.0  0.35809  0.71559  0.15199  1.0000
  S   S134      1.0  0.61431  0.54630  0.74082  1.0000
  H   H569      1.0  0.36379  0.67224  0.62806  1.0000
  C   C485      1.0  0.42484  0.50941  0.76089  1.0000
  H   H570      1.0  0.60244  0.63898  0.61468  1.0000
  C   C486      1.0  0.46870  0.66386  0.80571  1.0000
  C   C487      1.0  0.58307  0.58985  0.55008  1.0000
  C   C488      1.0  0.58923  0.62451  0.57762  1.0000
  H   H571      1.0  0.51200  0.53272  0.54423  1.0000
  H   H572      1.0  0.58007  0.58612  0.58533  1.0000
  H   H573      1.0  0.57923  0.57733  0.53844  1.0000
  H   H574      1.0  0.59952  0.58944  0.53887  1.0000
  H   H575      1.0  0.59628  0.60990  0.59224  1.0000
  H   H576      1.0  0.35378  0.71787  0.49343  1.0000
  C   C489      1.0  0.37283  0.70476  0.22844  1.0000
  C   C490      1.0  0.41164  0.53548  0.80434  1.0000
  H   H577      1.0  0.32737  0.67729  0.19055  1.0000
  H   H578      1.0  0.34626  0.56539  0.75846  1.0000
  H   H579      1.0  0.36882  0.63907  0.61731  1.0000
  C   C491      1.0  0.54929  0.60931  0.55367  1.0000
  C   C492      1.0  0.45867  0.59902  0.42097  1.0000
  C   C493      1.0  0.42520  0.58424  0.47494  1.0000
  C   C494      1.0  0.40111  0.61182  0.44428  1.0000
  C   C495      1.0  0.38527  0.69724  0.89363  1.0000
  H   H580      1.0  0.44022  0.57569  0.47786  1.0000
  C   C496      1.0  0.42162  0.60214  0.44506  1.0000
  H   H581      1.0  0.46098  0.58324  0.41479  1.0000
  H   H582      1.0  0.43665  0.59581  0.36436  1.0000
  H   H583      1.0  0.54922  0.68400  0.66754  1.0000
  H   H584      1.0  0.42682  0.53212  0.81376  1.0000
  C   C497      1.0  0.37557  0.66026  0.89156  1.0000
  C   C498      1.0  0.64371  0.59095  0.73802  1.0000
  S   S135      1.0  0.36228  0.67959  0.34006  1.0000
  N   N34       1.0  0.43812  0.61064  0.41561  1.0000
  C   C499      1.0  0.43605  0.61119  0.37096  1.0000
  C   C500      1.0  0.58621  0.54541  0.85747  1.0000
  C   C501      1.0  0.59310  0.64118  0.59060  1.0000
  H   H585      1.0  0.44823  0.61758  0.34795  1.0000
  H   H586      1.0  0.47203  0.68856  0.75315  1.0000
  C   C502      1.0  0.44601  0.69221  0.83598  1.0000
  N   N35       1.0  0.57074  0.60970  0.53521  1.0000
  H   H587      1.0  0.36119  0.66775  0.14983  1.0000
  C   C503      1.0  0.42718  0.71601  0.45094  1.0000
  C   C504      1.0  0.37767  0.66504  0.93004  1.0000
  C   C505      1.0  0.57617  0.62696  0.54780  1.0000
  H   H588      1.0  0.52145  0.50804  0.52816  1.0000
  H   H589      1.0  0.42292  0.64199  0.41470  1.0000
  H   H590      1.0  0.61497  0.58897  0.72496  1.0000
  H   H591      1.0  0.33129  0.67331  0.92599  1.0000
  H   H592      1.0  0.53855  0.55419  0.54512  1.0000
  C   C506      1.0  0.60569  0.57073  0.84976  1.0000
  C   C507      1.0  0.49932  0.63717  0.80607  1.0000
  C   C508      1.0  0.43693  0.63149  0.42272  1.0000
  H   H593      1.0  0.43741  0.63184  0.45645  1.0000
  H   H594      1.0  0.44972  0.63802  0.40268  1.0000
  H   H595      1.0  0.42162  0.62091  0.36324  1.0000
  C   C509      1.0  0.38266  0.68349  0.93104  1.0000
  C   C510      1.0  0.41674  0.72739  0.16169  1.0000
  S   S136      1.0  0.32860  0.66773  0.44861  1.0000
  H   H596      1.0  0.42543  0.54046  0.69687  1.0000
  H   H597      1.0  0.61770  0.57610  0.85957  1.0000
  C   C511      1.0  0.62442  0.51860  0.84058  1.0000
  C   C512      1.0  0.62918  0.58060  0.73381  1.0000
  H   H598      1.0  0.56240  0.62470  0.47456  1.0000
  C   C513      1.0  0.57341  0.61186  0.48815  1.0000
  H   H599      1.0  0.42222  0.66615  0.87211  1.0000
  C   C514      1.0  0.38429  0.69731  0.19184  1.0000
  H   H600      1.0  0.43937  0.54275  0.73564  1.0000
  H   H601      1.0  0.51845  0.50182  0.59770  1.0000
  H   H602      1.0  0.38452  0.68700  0.96072  1.0000
  H   H603      1.0  0.50688  0.67424  0.72291  1.0000
  H   H604      1.0  0.46609  0.71730  0.41186  1.0000
  C   C515      1.0  0.35401  0.53932  0.72682  1.0000
  H   H605      1.0  0.57198  0.55665  0.86522  1.0000
  C   C516      1.0  0.35778  0.55231  0.75061  1.0000
  N   N36       1.0  0.60365  0.55008  0.87094  1.0000
  C   C517      1.0  0.37869  0.67384  0.85409  1.0000
  H   H606      1.0  0.36798  0.72814  0.54738  1.0000
  H   H607      1.0  0.35838  0.65090  0.50626  1.0000
  C   C518      1.0  0.33137  0.65458  0.98587  1.0000
  C   C519      1.0  0.32745  0.65657  0.57036  1.0000
  C   C520      1.0  0.63299  0.55950  0.74161  1.0000
  C   C521      1.0  0.56732  0.64704  0.53209  1.0000
  H   H608      1.0  0.57079  0.59840  0.47767  1.0000
  H   H609      1.0  0.37708  0.67030  0.82429  1.0000
  H   H610      1.0  0.40154  0.52713  0.82904  1.0000
  H   H611      1.0  0.59777  0.53450  0.93472  1.0000
  H   H612      1.0  0.37555  0.65445  0.95902  1.0000
  C   C522      1.0  0.56198  0.51171  0.64316  1.0000
  H   H613      1.0  0.52857  0.70171  0.61265  1.0000
  H   H614      1.0  0.46010  0.66169  0.27101  1.0000
  C   C523      1.0  0.38813  0.51993  0.72629  1.0000
  H   H615      1.0  0.36647  0.51379  0.69414  1.0000
  C   C524      1.0  0.37074  0.64599  0.24809  1.0000
  C   C525      1.0  0.59858  0.54998  0.91759  1.0000
  C   C526      1.0  0.64279  0.50500  0.83228  1.0000
  H   H616      1.0  0.39888  0.68742  0.19320  1.0000
  H   H617      1.0  0.41602  0.56005  0.72957  1.0000
  H   H618      1.0  0.58685  0.67349  0.58543  1.0000
  H   H619      1.0  0.52408  0.52983  0.49076  1.0000
  C   C527      1.0  0.42384  0.54400  0.72946  1.0000
  H   H620      1.0  0.43943  0.50756  0.77207  1.0000
  H   H621      1.0  0.59140  0.58197  0.85656  1.0000
  C   C528      1.0  0.44141  0.67047  0.32905  1.0000
  C   C529      1.0  0.37674  0.54930  0.76210  1.0000
  H   H622      1.0  0.41859  0.67983  0.80156  1.0000
  H   H623      1.0  0.57555  0.50902  0.51667  1.0000
  C   C530      1.0  0.47400  0.73026  0.52347  1.0000
  H   H624      1.0  0.38929  0.64842  0.18584  1.0000
  H   H625      1.0  0.54557  0.55046  0.49063  1.0000
  C   C531      1.0  0.35599  0.70767  0.52263  1.0000
  H   H626      1.0  0.37816  0.64287  0.53735  1.0000
  C   C532      1.0  0.43828  0.70343  0.20596  1.0000
  H   H627      1.0  0.37285  0.70494  0.61455  1.0000
  H   H628      1.0  0.44632  0.65722  0.88769  1.0000
  C   C533      1.0  0.33898  0.66809  0.20748  1.0000
  H   H629      1.0  0.38328  0.63796  0.26385  1.0000
  H   H630      1.0  0.56429  0.54455  0.52300  1.0000
  C   C534      1.0  0.35829  0.66270  0.18388  1.0000
  H   H631      1.0  0.47282  0.63609  0.85207  1.0000
  H   H632      1.0  0.43738  0.66135  0.77549  1.0000
  H   H633      1.0  0.43827  0.64440  0.85260  1.0000
  C   C535      1.0  0.64103  0.53821  0.87102  1.0000
  C   C536      1.0  0.46664  0.73252  0.48564  1.0000
  C   C537      1.0  0.43069  0.70928  0.16812  1.0000
  S   S137      1.0  0.39277  0.69608  0.10649  1.0000
  C   C538      1.0  0.43830  0.65939  0.86039  1.0000
  C   C539      1.0  0.35410  0.71787  0.22671  1.0000
  C   C540      1.0  0.43503  0.67542  0.78932  1.0000
  S   S138      1.0  0.34274  0.71808  0.39238  1.0000
  Fe  Fe66      1.0  0.39224  0.68261  0.35089  1.0000
  H   H634      1.0  0.37883  0.70070  0.25761  1.0000
  C   C541      1.0  0.52462  0.52339  0.52465  1.0000
  C   C542      1.0  0.35267  0.64204  0.61381  1.0000
  C   C543      1.0  0.36392  0.71349  0.55311  1.0000
  H   H635      1.0  0.50726  0.62280  0.82051  1.0000
  H   H636      1.0  0.33811  0.64107  0.97143  1.0000
  H   H637      1.0  0.42278  0.71522  0.42041  1.0000
  C   C544      1.0  0.47919  0.67418  0.76874  1.0000
  C   C545      1.0  0.44635  0.73123  0.48613  1.0000
  C   C546      1.0  0.50914  0.64769  0.76984  1.0000
  H   H638      1.0  0.44872  0.68916  0.21119  1.0000
  H   H639      1.0  0.45097  0.70352  0.80895  1.0000
  C   C547      1.0  0.49909  0.66613  0.75111  1.0000
  H   H640      1.0  0.34651  0.71369  0.93819  1.0000
  C   C548      1.0  0.47942  0.64505  0.82395  1.0000
  Fe  Fe67      1.0  0.38249  0.73043  0.95868  1.0000
  C   C549      1.0  0.65143  0.54882  0.75285  1.0000
  Fe  Fe68      1.0  0.44905  0.48678  0.57901  1.0000
  H   H641      1.0  0.56030  0.51415  0.47599  1.0000
  C   C550      1.0  0.44115  0.72699  0.56417  1.0000
  S   S139      1.0  0.34070  0.72848  0.27167  1.0000
  C   C551      1.0  0.45418  0.73117  0.40805  1.0000
  H   H642      1.0  0.35225  0.71956  0.12263  1.0000
  H   H643      1.0  0.43514  0.69946  0.14395  1.0000
  C   C552      1.0  0.33483  0.66226  0.25221  1.0000
  C   C553      1.0  0.41855  0.73417  0.23089  1.0000
  H   H644      1.0  0.48980  0.73022  0.52252  1.0000
  C   C554      1.0  0.46137  0.72726  0.56261  1.0000
  H   H645      1.0  0.33016  0.63885  0.04986  1.0000
  H   H646      1.0  0.34880  0.62700  0.61703  1.0000
  C   C555      1.0  0.53239  0.49763  0.65128  1.0000
  H   H647      1.0  0.46738  0.72498  0.59174  1.0000
  S   S140      1.0  0.36173  0.71702  0.01379  1.0000
  C   C556      1.0  0.36180  0.64361  0.53820  1.0000
  S   S141      1.0  0.40609  0.73009  0.99652  1.0000
  H   H648      1.0  0.64365  0.49232  0.81641  1.0000
  C   C557      1.0  0.43235  0.71592  0.23717  1.0000
  H   H649      1.0  0.34319  0.64905  0.64143  1.0000
  C   C558      1.0  0.56090  0.51871  0.60026  1.0000
  H   H650      1.0  0.54835  0.49621  0.70208  1.0000
  H   H651      1.0  0.43014  0.69889  0.84970  1.0000
  H   H652      1.0  0.57247  0.52655  0.58202  1.0000
  H   H653      1.0  0.43132  0.72476  0.59470  1.0000
  C   C559      1.0  0.35134  0.65092  0.27192  1.0000
  H   H654      1.0  0.33521  0.59350  0.65986  1.0000
  C   C560      1.0  0.54773  0.50123  0.66863  1.0000
  Fe  Fe69      1.0  0.38386  0.71970  0.05249  1.0000
  H   H655      1.0  0.34028  0.70284  0.89830  1.0000
  H   H656      1.0  0.52102  0.48989  0.67142  1.0000
  H   H657      1.0  0.41790  0.72865  0.52948  1.0000
  H   H658      1.0  0.44788  0.73067  0.37958  1.0000
  H   H659      1.0  0.43834  0.71128  0.26655  1.0000
  H   H660      1.0  0.55764  0.49365  0.51895  1.0000
  N   N37       1.0  0.43828  0.73252  0.44682  1.0000
  H   H661      1.0  0.65448  0.53253  0.75856  1.0000
  H   H662      1.0  0.33955  0.54220  0.71651  1.0000
  C   C561      1.0  0.33439  0.71426  0.92010  1.0000
  H   H663      1.0  0.32832  0.71949  0.07701  1.0000
  H   H664      1.0  0.41122  0.73070  0.13193  1.0000
  H   H665      1.0  0.33238  0.72922  0.89952  1.0000
  C   C562      1.0  0.32749  0.67324  0.96000  1.0000
  C   C563      1.0  0.32697  0.65333  0.02995  1.0000
  S   S142      1.0  0.35839  0.95931  0.21484  1.0000
  H   H666      1.0  0.33836  0.90309  0.17496  1.0000
  C   C564      1.0  0.34248  0.94217  0.22032  1.0000
  H   H667      1.0  0.33696  0.78614  0.06335  1.0000
  Fe  Fe70      1.0  0.38890  0.76119  0.00650  1.0000
  S   S143      1.0  0.36879  0.75085  0.06597  1.0000
  S   S144      1.0  0.40646  0.78563  0.99765  1.0000
  H   H668      1.0  0.36834  0.81688  0.12267  1.0000
  C   C565      1.0  0.40106  0.89622  0.18793  1.0000
  H   H669      1.0  0.35999  0.92803  0.16695  1.0000
  H   H670      1.0  0.34917  0.89843  0.28449  1.0000
  H   H671      1.0  0.33793  0.79718  0.10808  1.0000
  C   C566      1.0  0.39662  0.86757  0.26073  1.0000
  Fe  Fe71      1.0  0.36309  0.84606  0.17747  1.0000
  H   H672      1.0  0.46156  0.74443  0.39984  1.0000
  H   H673      1.0  0.37540  0.79167  0.07317  1.0000
  H   H674      1.0  0.36615  0.77364  0.22246  1.0000
  H   H675      1.0  0.37995  0.88836  0.37243  1.0000
  Fe  Fe72      1.0  0.34812  0.74904  0.02309  1.0000
  H   H676      1.0  0.41462  0.74343  0.25580  1.0000
  C   C567      1.0  0.40981  0.74017  0.19350  1.0000
  H   H677      1.0  0.41924  0.84154  0.05156  1.0000
  H   H678      1.0  0.38570  0.91841  0.22637  1.0000
  C   C568      1.0  0.38899  0.88825  0.26476  1.0000
  H   H679      1.0  0.37617  0.74736  0.15832  1.0000
  C   C569      1.0  0.37978  0.76176  0.22768  1.0000
  H   H680      1.0  0.39521  0.79103  0.17129  1.0000
  C   C570      1.0  0.40838  0.87584  0.18519  1.0000
  H   H681      1.0  0.43165  0.76496  0.43783  1.0000
  S   S145      1.0  0.38885  0.84918  0.12384  1.0000
  S   S146      1.0  0.36497  0.82982  0.33364  1.0000
  C   C571      1.0  0.35206  0.85425  0.03300  1.0000
  H   H682      1.0  0.38591  0.76605  0.25273  1.0000
  C   C572      1.0  0.36354  0.82871  0.98726  1.0000
  H   H683      1.0  0.39324  0.76158  0.12145  1.0000
  C   C573      1.0  0.40569  0.77626  0.17709  1.0000
  C   C574      1.0  0.37343  0.80112  0.40081  1.0000
  C   C575      1.0  0.37388  0.76555  0.40517  1.0000
  C   C576      1.0  0.37628  0.78148  0.42308  1.0000
  S   S147      1.0  0.35523  0.86400  0.23089  1.0000
  H   H684      1.0  0.37855  0.85304  0.98416  1.0000
  C   C577      1.0  0.36488  0.78921  0.34304  1.0000
  C   C578      1.0  0.36799  0.76941  0.36523  1.0000
  C   C579      1.0  0.36782  0.80503  0.36075  1.0000
  H   H685      1.0  0.37111  0.77430  0.15181  1.0000
  H   H686      1.0  0.36046  0.79220  0.31214  1.0000
  H   H687      1.0  0.36596  0.75718  0.35135  1.0000
  H   H688      1.0  0.40232  0.90727  0.15937  1.0000
  H   H689      1.0  0.41791  0.75398  0.41034  1.0000
  H   H690      1.0  0.35700  0.87407  0.31383  1.0000
  H   H691      1.0  0.41128  0.84567  0.21886  1.0000
  H   H692      1.0  0.41719  0.77481  0.14750  1.0000
  H   H693      1.0  0.38043  0.77869  0.45421  1.0000
  H   H694      1.0  0.41369  0.77693  0.20285  1.0000
  C   C580      1.0  0.39149  0.90243  0.22696  1.0000
  C   C581      1.0  0.40625  0.86156  0.22153  1.0000
  C   C582      1.0  0.38715  0.88255  0.34202  1.0000
  H   H695      1.0  0.39428  0.85573  0.28718  1.0000
  C   C583      1.0  0.42412  0.75212  0.44009  1.0000
  H   H696      1.0  0.38568  0.86648  0.34822  1.0000
  H   H697      1.0  0.32556  0.77867  0.31287  1.0000
  S   S148      1.0  0.37904  0.74095  0.43290  1.0000
  H   H698      1.0  0.36576  0.92595  0.28573  1.0000
  H   H699      1.0  0.37552  0.81333  0.41472  1.0000
  H   H700      1.0  0.42616  0.81650  0.00257  1.0000
  H   H701      1.0  0.41517  0.87104  0.15460  1.0000
  N   N38       1.0  0.37745  0.89432  0.30576  1.0000
  C   C584      1.0  0.37567  0.91606  0.30751  1.0000
  H   H702      1.0  0.39073  0.92034  0.29901  1.0000
  C   C585      1.0  0.38341  0.76060  0.15335  1.0000
  N   N39       1.0  0.39485  0.75933  0.18790  1.0000
  H   H703      1.0  0.35422  0.86751  0.04329  1.0000
  C   C586      1.0  0.40140  0.80226  0.03497  1.0000
  C   C587      1.0  0.41365  0.81640  0.02900  1.0000
  C   C588      1.0  0.40972  0.83059  0.05666  1.0000
  C   C589      1.0  0.39347  0.83079  0.09053  1.0000
  C   C590      1.0  0.38115  0.81658  0.09693  1.0000
  C   C591      1.0  0.38516  0.80226  0.06911  1.0000
  H   H704      1.0  0.37468  0.82202  0.96228  1.0000
  C   C592      1.0  0.34781  0.81906  0.00881  1.0000
  H   H705      1.0  0.41094  0.75354  0.46654  1.0000
  C   C593      1.0  0.35679  0.89041  0.31171  1.0000
  H   H706      1.0  0.37425  0.74756  0.24095  1.0000
  S   S149      1.0  0.36343  0.81672  0.22053  1.0000
  C   C594      1.0  0.34706  0.92799  0.19241  1.0000
  Fe  Fe73      1.0  0.35236  0.83495  0.27355  1.0000
  H   H707      1.0  0.40350  0.88302  0.33618  1.0000
  H   H708      1.0  0.36855  0.92007  0.33958  1.0000
  C   C595      1.0  0.36578  0.84615  0.99963  1.0000
  H   H709      1.0  0.34712  0.89539  0.34128  1.0000
  S   S150      1.0  0.36681  0.76244  0.96421  1.0000
  C   C596      1.0  0.33363  0.82678  0.04324  1.0000
  C   C597      1.0  0.33485  0.91383  0.19701  1.0000
  S   S151      1.0  0.33116  0.85100  0.16778  1.0000
  H   H710      1.0  0.34733  0.80506  0.99923  1.0000
  C   C598      1.0  0.32591  0.94181  0.25351  1.0000
  C   C599      1.0  0.33607  0.84489  0.05436  1.0000
  Fe  Fe74      1.0  0.33086  0.82251  0.21434  1.0000
  H   H711      1.0  0.32590  0.75476  0.34495  1.0000
  C   C600      1.0  0.32773  0.79560  0.08723  1.0000
  H   H712      1.0  0.32615  0.85189  0.08008  1.0000
  H   H713      1.0  0.75423  0.22828  0.85936  1.0000
  C   C601      1.0  0.94664  0.05017  0.11015  1.0000
  H   H714      1.0  0.86937  0.09027  0.60210  1.0000
  H   H715      1.0  0.95796  0.99879  0.37656  1.0000
  S   S152      1.0  0.95223  0.14844  0.07258  1.0000
  S   S153      1.0  0.96112  0.14825  0.95520  1.0000
  H   H716      1.0  0.94293  0.20699  0.91527  1.0000
  S   S154      1.0  0.90900  0.00118  0.26005  1.0000
  Fe  Fe75      1.0  0.95951  0.11715  0.10652  1.0000
  S   S155      1.0  0.93437  0.10438  0.15100  1.0000
  C   C602      1.0  0.76069  0.21418  0.84556  1.0000
  C   C603      1.0  0.74865  0.21124  0.71119  1.0000
  H   H717      1.0  0.87176  0.23636  0.57426  1.0000
  H   H718      1.0  0.97114  0.03571  0.38397  1.0000
  Fe  Fe76      1.0  0.94131  0.16813  0.33377  1.0000
  S   S156      1.0  0.92086  0.16671  0.39727  1.0000
  S   S157      1.0  0.95239  0.19558  0.29805  1.0000
  Fe  Fe77      1.0  0.94057  0.13612  0.41148  1.0000
  C   C604      1.0  0.85932  0.18659  0.25581  1.0000
  Fe  Fe78      1.0  0.90433  0.15041  0.36712  1.0000
  S   S158      1.0  0.87106  0.15893  0.36724  1.0000
  S   S159      1.0  0.96257  0.13936  0.35074  1.0000
  S   S160      1.0  0.92351  0.15385  0.30289  1.0000
  C   C605      1.0  0.96996  0.09899  0.46141  1.0000
  S   S161      1.0  0.83521  0.21688  0.95614  1.0000
  S   S162      1.0  0.88538  0.21708  0.00084  1.0000
  H   H719      1.0  0.87976  0.10500  0.34553  1.0000
  C   C606      1.0  0.89069  0.13078  0.55192  1.0000
  C   C607      1.0  0.87745  0.18890  0.26436  1.0000
  C   C608      1.0  0.95844  0.00171  0.40878  1.0000
  H   H720      1.0  0.96652  0.10126  0.39626  1.0000
  Fe  Fe79      1.0  0.84660  0.21459  0.88686  1.0000
  S   S163      1.0  0.84272  0.18899  0.85800  1.0000
  H   H721      1.0  0.86637  0.13237  0.24110  1.0000
  H   H722      1.0  0.71068  0.23405  0.78103  1.0000
  Fe  Fe80      1.0  0.83392  0.20257  0.63266  1.0000
  S   S164      1.0  0.82184  0.17426  0.65322  1.0000
  S   S165      1.0  0.85951  0.20864  0.65763  1.0000
  Fe  Fe81      1.0  0.80433  0.22079  0.57234  1.0000
  S   S166      1.0  0.78961  0.19386  0.58729  1.0000
  S   S167      1.0  0.94408  0.01158  0.14809  1.0000
  Fe  Fe82      1.0  0.79150  0.19462  0.65459  1.0000
  S   S168      1.0  0.76670  0.18894  0.70893  1.0000
  Fe  Fe83      1.0  0.82115  0.17576  0.58441  1.0000
  S   S169      1.0  0.83217  0.14614  0.56046  1.0000
  C   C609      1.0  0.66099  0.20272  0.88159  1.0000
  S   S170      1.0  0.83605  0.20247  0.56301  1.0000
  C   C610      1.0  0.84938  0.19306  0.80243  1.0000
  C   C611      1.0  0.84384  0.18130  0.77821  1.0000
  C   C612      1.0  0.84711  0.18593  0.73372  1.0000
  C   C613      1.0  0.85644  0.20199  0.71323  1.0000
  C   C614      1.0  0.86299  0.21306  0.73746  1.0000
  C   C615      1.0  0.85925  0.20870  0.78207  1.0000
  H   H723      1.0  0.83654  0.16891  0.79388  1.0000
  H   H724      1.0  0.84260  0.17687  0.71541  1.0000
  H   H725      1.0  0.66765  0.21681  0.01194  1.0000
  C   C616      1.0  0.74886  0.22693  0.67688  1.0000
  C   C617      1.0  0.85861  0.15487  0.41978  1.0000
  C   C618      1.0  0.86366  0.13626  0.44503  1.0000
  C   C619      1.0  0.85431  0.13326  0.48768  1.0000
  C   C620      1.0  0.84065  0.14911  0.50556  1.0000
  C   C621      1.0  0.83549  0.16772  0.48026  1.0000
  C   C622      1.0  0.84426  0.17050  0.43709  1.0000
  H   H726      1.0  0.87471  0.12415  0.43170  1.0000
  H   H727      1.0  0.85815  0.11885  0.50721  1.0000
  H   H728      1.0  0.82492  0.18001  0.49405  1.0000
  H   H729      1.0  0.84041  0.18494  0.41755  1.0000
  C   C623      1.0  0.93041  0.04463  0.33657  1.0000
  H   H730      1.0  0.70374  0.20193  0.91970  1.0000
  H   H731      1.0  0.87048  0.22531  0.72183  1.0000
  H   H732      1.0  0.94398  0.08213  0.37118  1.0000
  Fe  Fe84      1.0  0.93887  0.99666  0.21600  1.0000
  H   H733      1.0  0.90895  0.13142  0.25343  1.0000
  C   C624      1.0  0.94040  0.16807  0.96539  1.0000
  C   C625      1.0  0.92283  0.16997  0.94879  1.0000
  C   C626      1.0  0.90588  0.18514  0.95918  1.0000
  C   C627      1.0  0.90649  0.19838  0.98623  1.0000
  C   C628      1.0  0.92427  0.19690  0.00161  1.0000
  C   C629      1.0  0.94121  0.18184  0.99108  1.0000
  H   H734      1.0  0.92212  0.15935  0.92895  1.0000
  H   H735      1.0  0.89214  0.18612  0.94739  1.0000
  H   H736      1.0  0.92499  0.20748  0.02150  1.0000
  H   H737      1.0  0.95499  0.18092  0.00271  1.0000
  C   C630      1.0  0.95027  0.21789  0.89083  1.0000
  C   C631      1.0  0.67235  0.20472  0.91157  1.0000
  C   C632      1.0  0.69143  0.19348  0.83086  1.0000
  C   C633      1.0  0.96124  0.19191  0.24504  1.0000
  H   H738      1.0  0.76026  0.21583  0.94268  1.0000
  H   H739      1.0  0.87835  0.19084  0.29617  1.0000
  S   S171      1.0  0.87693  0.22121  0.88530  1.0000
  H   H740      1.0  0.96241  0.15984  0.25789  1.0000
  H   H741      1.0  0.78921  0.22891  0.95251  1.0000
  H   H742      1.0  0.68467  0.22432  0.96548  1.0000
  S   S172      1.0  0.95666  0.00054  0.26267  1.0000
  C   C634      1.0  0.93265  0.05656  0.36476  1.0000
  C   C635      1.0  0.94166  0.07337  0.34925  1.0000
  H   H743      1.0  0.85598  0.12355  0.29521  1.0000
  H   H744      1.0  0.88605  0.04258  0.30580  1.0000
  C   C636      1.0  0.93526  0.07909  0.14778  1.0000
  Fe  Fe85      1.0  0.86468  0.22612  0.95274  1.0000
  C   C637      1.0  0.94443  0.07088  0.11061  1.0000
  H   H745      1.0  0.87153  0.14206  0.28364  1.0000
  H   H746      1.0  0.94986  0.08043  0.08223  1.0000
  C   C638      1.0  0.87854  0.05703  0.24496  1.0000
  S   S173      1.0  0.92167  0.11967  0.38839  1.0000
  H   H747      1.0  0.91433  0.16710  0.56283  1.0000
  C   C639      1.0  0.94769  0.07870  0.30546  1.0000
  C   C640      1.0  0.90263  0.10188  0.51278  1.0000
  H   H748      1.0  0.81000  0.21732  0.82879  1.0000
  C   C641      1.0  0.98386  0.03590  0.19616  1.0000
  C   C642      1.0  0.92963  0.04610  0.18333  1.0000
  H   H749      1.0  0.86403  0.21726  0.80104  1.0000
  H   H750      1.0  0.90223  0.12138  0.21318  1.0000
  H   H751      1.0  0.80368  0.19453  0.78261  1.0000
  H   H752      1.0  0.78891  0.23169  0.85963  1.0000
  H   H753      1.0  0.91882  0.14055  0.58323  1.0000
  C   C643      1.0  0.87603  0.07500  0.21673  1.0000
  S   S174      1.0  0.80344  0.22317  0.64033  1.0000
  C   C644      1.0  0.87875  0.11879  0.58282  1.0000
  Fe  Fe86      1.0  0.94271  0.12467  0.32654  1.0000
  H   H754      1.0  0.97481  0.07613  0.16943  1.0000
  H   H755      1.0  0.90380  0.17072  0.11230  1.0000
  H   H756      1.0  0.93047  0.16516  0.20189  1.0000
  S   S175      1.0  0.95632  0.10110  0.28461  1.0000
  H   H757      1.0  0.89761  0.19809  0.10365  1.0000
  H   H758      1.0  0.94187  0.16558  0.14747  1.0000
  C   C645      1.0  0.93957  0.03772  0.14686  1.0000
  N   N40       1.0  0.78075  0.21505  0.81861  1.0000
  C   C646      1.0  0.78845  0.19549  0.80251  1.0000
  Fe  Fe87      1.0  0.92735  0.00208  0.30854  1.0000
  H   H759      1.0  0.67033  0.22482  0.68226  1.0000
  H   H760      1.0  0.93962  0.18905  0.86864  1.0000
  C   C647      1.0  0.88374  0.05668  0.28416  1.0000
  H   H761      1.0  0.89462  0.16226  0.48839  1.0000
  H   H762      1.0  0.78969  0.18256  0.82886  1.0000
  H   H763      1.0  0.77836  0.19305  0.78246  1.0000
  H   H764      1.0  0.89938  0.22887  0.76040  1.0000
  H   H765      1.0  0.79559  0.20477  0.87338  1.0000
  H   H766      1.0  0.75952  0.22489  0.64771  1.0000
  C   C648      1.0  0.78020  0.23182  0.78254  1.0000
  C   C649      1.0  0.87878  0.09269  0.22758  1.0000
  H   H767      1.0  0.95625  0.22660  0.90897  1.0000
  C   C650      1.0  0.92174  0.20252  0.15497  1.0000
  C   C651      1.0  0.87519  0.18350  0.18276  1.0000
  H   H768      1.0  0.93492  0.20288  0.12839  1.0000
  H   H769      1.0  0.91063  0.21692  0.14965  1.0000
  H   H770      1.0  0.92787  0.20235  0.18396  1.0000
  H   H771      1.0  0.87328  0.18138  0.15196  1.0000
  H   H772      1.0  0.81252  0.22433  0.75688  1.0000
  H   H773      1.0  0.87978  0.17427  0.59748  1.0000
  C   C652      1.0  0.75869  0.23179  0.94268  1.0000
  C   C653      1.0  0.90512  0.11781  0.24635  1.0000
  H   H774      1.0  0.86261  0.15893  0.59566  1.0000
  C   C654      1.0  0.88528  0.16594  0.51920  1.0000
  H   H775      1.0  0.93494  0.04074  0.27117  1.0000
  C   C655      1.0  0.90235  0.12177  0.51648  1.0000
  S   S176      1.0  0.91902  0.02372  0.35581  1.0000
  H   H776      1.0  0.87684  0.04324  0.23613  1.0000
  C   C656      1.0  0.70305  0.19520  0.85955  1.0000
  Fe  Fe88      1.0  0.97314  0.13687  0.01634  1.0000
  H   H777      1.0  0.74984  0.21182  0.82714  1.0000
  H   H778      1.0  0.69870  0.18933  0.79992  1.0000
  H   H779      1.0  0.66020  0.17987  0.98077  1.0000
  C   C657      1.0  0.87891  0.09896  0.57857  1.0000
  C   C658      1.0  0.91295  0.15210  0.55741  1.0000
  H   H780      1.0  0.87254  0.07511  0.18575  1.0000
  H   H781      1.0  0.95416  0.04378  0.08165  1.0000
  H   H782      1.0  0.92380  0.03663  0.21143  1.0000
  C   C659      1.0  0.93125  0.19851  0.84510  1.0000
  H   H783      1.0  0.89094  0.07271  0.32590  1.0000
  C   C660      1.0  0.69377  0.20070  0.89936  1.0000
  C   C661      1.0  0.88411  0.09289  0.26727  1.0000
  H   H784      1.0  0.88608  0.18162  0.52122  1.0000
  C   C662      1.0  0.92824  0.21993  0.83857  1.0000
  H   H785      1.0  0.76160  0.20164  0.87279  1.0000
  N   N41       1.0  0.91246  0.18486  0.15766  1.0000
  C   C663      1.0  0.89393  0.18588  0.19049  1.0000
  H   H786      1.0  0.92334  0.14901  0.52714  1.0000
  H   H787      1.0  0.91144  0.13007  0.49131  1.0000
  C   C664      1.0  0.96466  0.17264  0.23382  1.0000
  H   H788      1.0  0.89438  0.12404  0.32729  1.0000
  H   H789      1.0  0.94667  0.01547  0.41458  1.0000
  C   C665      1.0  0.92714  0.16621  0.16953  1.0000
  C   C666      1.0  0.90887  0.18461  0.11435  1.0000
  C   C667      1.0  0.89453  0.18851  0.23237  1.0000
  H   H790      1.0  0.92155  0.15242  0.16879  1.0000
  H   H791      1.0  0.92298  0.18473  0.09034  1.0000
  H   H792      1.0  0.68670  0.19795  0.98786  1.0000
  C   C668      1.0  0.73450  0.21369  0.74831  1.0000
  C   C669      1.0  0.72120  0.23221  0.75200  1.0000
  H   H793      1.0  0.90831  0.19007  0.24095  1.0000
  H   H794      1.0  0.73421  0.20139  0.77445  1.0000
  H   H795      1.0  0.84397  0.18227  0.20848  1.0000
  H   H796      1.0  0.90656  0.09847  0.32446  1.0000
  H   H797      1.0  0.98787  0.06774  0.23145  1.0000
  N   N42       1.0  0.93573  0.23108  0.86450  1.0000
  C   C670      1.0  0.88650  0.07427  0.29537  1.0000
  C   C671      1.0  0.79435  0.21734  0.84621  1.0000
  C   C672      1.0  0.94562  0.06666  0.27751  1.0000
  H   H798      1.0  0.86940  0.16605  0.51749  1.0000
  C   C673      1.0  0.87884  0.15863  0.59522  1.0000
  H   H799      1.0  0.66141  0.19573  0.81963  1.0000
  H   H800      1.0  0.84618  0.18679  0.28098  1.0000
  H   H801      1.0  0.91197  0.09538  0.48557  1.0000
  C   C674      1.0  0.91659  0.23053  0.80709  1.0000
  C   C675      1.0  0.92742  0.06674  0.18372  1.0000
  C   C676      1.0  0.85817  0.18393  0.21509  1.0000
  H   H802      1.0  0.92021  0.07300  0.21241  1.0000
  C   C677      1.0  0.93711  0.04959  0.29303  1.0000
  H   H803      1.0  0.86873  0.12451  0.61003  1.0000
  C   C678      1.0  0.89229  0.10955  0.32056  1.0000
  H   H804      1.0  0.91038  0.22985  0.91562  1.0000
  H   H805      1.0  0.92757  0.05276  0.39856  1.0000
  H   H806      1.0  0.71938  0.19234  0.85085  1.0000
  C   C679      1.0  0.89095  0.09046  0.54382  1.0000
  S   S177      1.0  0.98532  0.12295  0.13081  1.0000
  C   C680      1.0  0.97132  0.16977  0.19129  1.0000
  H   H807      1.0  0.87741  0.10607  0.20397  1.0000
  C   C681      1.0  0.92295  0.18853  0.82176  1.0000
  C   C682      1.0  0.91161  0.19943  0.79112  1.0000
  H   H808      1.0  0.92500  0.17222  0.82813  1.0000
  H   H809      1.0  0.90484  0.19163  0.77378  1.0000
  H   H810      1.0  0.89100  0.07512  0.54061  1.0000
  H   H811      1.0  0.94989  0.07111  0.24369  1.0000
  S   S178      1.0  0.95349  0.12209  0.47032  1.0000
  C   C683      1.0  0.86961  0.12807  0.27398  1.0000
  N   N43       1.0  0.89177  0.15148  0.55616  1.0000
  H   H812      1.0  0.91891  0.10558  0.24666  1.0000
  N   N44       1.0  0.88771  0.11165  0.27720  1.0000
  N   N45       1.0  0.66194  0.21049  0.95351  1.0000
  H   H813      1.0  0.88333  0.14891  0.62454  1.0000
  C   C684      1.0  0.67591  0.21239  0.98077  1.0000
  H   H814      1.0  0.96890  0.04382  0.21130  1.0000
  C   C685      1.0  0.79822  0.23454  0.75370  1.0000
  C   C686      1.0  0.90856  0.22038  0.78360  1.0000
  S   S179      1.0  0.72112  0.23600  0.92348  1.0000
  C   C687      1.0  0.98865  0.06718  0.15210  1.0000
  H   H815      1.0  0.96340  0.20925  0.87104  1.0000
  H   H816      1.0  0.96627  0.02300  0.46096  1.0000
  H   H817      1.0  0.98376  0.06241  0.12590  1.0000
  H   H818      1.0  0.98121  0.02934  0.16963  1.0000
  S   S180      1.0  0.97843  0.10474  0.04890  1.0000
  C   C688      1.0  0.97416  0.09262  0.42147  1.0000
  H   H819      1.0  0.96247  0.22310  0.22237  1.0000
  C   C689      1.0  0.96494  0.20822  0.21377  1.0000
  C   C690      1.0  0.67045  0.19714  0.84196  1.0000
  C   C691      1.0  0.97422  0.18623  0.15980  1.0000
  H   H820      1.0  0.92674  0.99377  0.05741  1.0000
  H   H821      1.0  0.97379  0.15490  0.18284  1.0000
  C   C692      1.0  0.97135  0.20539  0.17113  1.0000
  H   H822      1.0  0.97618  0.09174  0.52525  1.0000
  C   C693      1.0  0.97767  0.00903  0.45478  1.0000
  H   H823      1.0  0.97370  0.99641  0.47973  1.0000
  C   C694      1.0  0.98320  0.02202  0.37968  1.0000
  N   N46       1.0  0.97878  0.00438  0.41164  1.0000
  H   H824      1.0  0.98458  0.01892  0.34676  1.0000
  C   C695      1.0  0.97945  0.08706  0.49424  1.0000
  H   H825      1.0  0.97370  0.21814  0.14678  1.0000
  Fe  Fe89      1.0  0.97999  0.15326  0.09048  1.0000
  S   S181      1.0  0.98007  0.18358  0.10597  1.0000
  H   H826      1.0  0.98994  0.16775  0.29385  1.0000
  C   C696      1.0  0.98847  0.07496  0.41379  1.0000
  H   H827      1.0  0.94804  0.98757  0.08317  1.0000
  H   H828      1.0  0.95356  0.98923  0.43292  1.0000
  H   H829      1.0  0.98952  0.02313  0.22002  1.0000
  H   H830      1.0  0.99012  0.98714  0.30533  1.0000
  Fe  Fe90      1.0  0.84083  0.45872  0.78489  1.0000
  S   S182      1.0  0.83369  0.46848  0.84909  1.0000
  H   H831      1.0  0.89829  0.46837  0.65953  1.0000
  Fe  Fe91      1.0  0.85203  0.41453  0.81936  1.0000
  S   S183      1.0  0.84683  0.41998  0.88674  1.0000
  S   S184      1.0  0.86037  0.38376  0.80072  1.0000
  Fe  Fe92      1.0  0.81901  0.44161  0.87047  1.0000
  S   S185      1.0  0.78984  0.43954  0.91502  1.0000
  Fe  Fe93      1.0  0.86206  0.44614  0.85981  1.0000
  S   S186      1.0  0.88439  0.45341  0.89207  1.0000
  S   S187      1.0  0.82292  0.43432  0.80493  1.0000
  S   S188      1.0  0.87046  0.43819  0.79379  1.0000
  Fe  Fe94      1.0  0.81549  0.36536  0.63212  1.0000
  S   S189      1.0  0.78474  0.37608  0.61450  1.0000
  S   S190      1.0  0.83555  0.38759  0.62354  1.0000
  Fe  Fe95      1.0  0.80770  0.32396  0.66957  1.0000
  S   S191      1.0  0.77582  0.33133  0.65843  1.0000
  S   S192      1.0  0.81943  0.29184  0.69262  1.0000
  Fe  Fe96      1.0  0.78966  0.34564  0.59479  1.0000
  S   S193      1.0  0.78119  0.33890  0.53736  1.0000
  Fe  Fe97      1.0  0.77408  0.36073  0.67970  1.0000
  S   S194      1.0  0.75000  0.37932  0.72187  1.0000
  S   S195      1.0  0.82174  0.33664  0.60478  1.0000
  S   S196      1.0  0.80451  0.35156  0.69870  1.0000
  C   C697      1.0  0.90017  0.37670  0.68949  1.0000
  C   C698      1.0  0.83924  0.28777  0.72044  1.0000
  C   C699      1.0  0.84652  0.30386  0.72772  1.0000
  H   H832      1.0  0.84127  0.31900  0.71255  1.0000
  H   H833      1.0  0.86487  0.31284  0.76391  1.0000
  H   H834      1.0  0.80319  0.41997  0.65527  1.0000
  C   C700      1.0  0.78040  0.26410  0.71368  1.0000
  H   H835      1.0  0.73562  0.30828  0.53792  1.0000
  C   C701      1.0  0.83840  0.26820  0.48556  1.0000
  H   H836      1.0  0.88753  0.25483  0.55795  1.0000
  H   H837      1.0  0.87492  0.28869  0.58529  1.0000
  S   S197      1.0  0.87710  0.27679  0.82269  1.0000
  H   H838      1.0  0.83522  0.31828  0.48128  1.0000
  C   C702      1.0  0.83475  0.28875  0.47025  1.0000
  H   H839      1.0  0.78463  0.47121  0.04835  1.0000
  H   H840      1.0  0.88676  0.45509  0.97759  1.0000
  C   C703      1.0  0.74453  0.29809  0.61810  1.0000
  C   C704      1.0  0.90003  0.45200  0.67251  1.0000
  N   N47       1.0  0.77768  0.48003  0.71229  1.0000
  C   C705      1.0  0.76978  0.45539  0.89290  1.0000
  C   C706      1.0  0.87050  0.44904  0.64853  1.0000
  S   S198      1.0  0.68983  0.33543  0.86160  1.0000
  C   C707      1.0  0.75000  0.45257  0.90841  1.0000
  H   H841      1.0  0.74003  0.34443  0.60580  1.0000
  Fe  Fe98      1.0  0.68824  0.30436  0.85409  1.0000
  H   H842      1.0  0.74713  0.44037  0.93380  1.0000
  C   C708      1.0  0.85402  0.38481  0.75101  1.0000
  C   C709      1.0  0.84949  0.40338  0.72505  1.0000
  C   C710      1.0  0.84398  0.40420  0.68565  1.0000
  C   C711      1.0  0.84301  0.38645  0.67220  1.0000
  C   C712      1.0  0.84776  0.36788  0.69792  1.0000
  C   C713      1.0  0.85331  0.36705  0.73728  1.0000
  H   H843      1.0  0.85054  0.41705  0.73508  1.0000
  H   H844      1.0  0.84041  0.41853  0.66568  1.0000
  H   H845      1.0  0.84754  0.35410  0.68709  1.0000
  H   H846      1.0  0.85709  0.35268  0.75706  1.0000
  C   C714      1.0  0.73363  0.36647  0.76005  1.0000
  C   C715      1.0  0.72110  0.37659  0.79228  1.0000
  C   C716      1.0  0.71881  0.33705  0.78893  1.0000
  C   C717      1.0  0.73267  0.34661  0.75851  1.0000
  C   C718      1.0  0.72668  0.34263  0.62931  1.0000
  H   H847      1.0  0.71762  0.32195  0.78701  1.0000
  H   H848      1.0  0.74208  0.33887  0.73319  1.0000
  H   H849      1.0  0.78305  0.27069  0.86585  1.0000
  S   S199      1.0  0.70666  0.27202  0.72434  1.0000
  C   C719      1.0  0.70308  0.35506  0.68941  1.0000
  S   S200      1.0  0.67602  0.28333  0.91009  1.0000
  H   H850      1.0  0.71795  0.28589  0.58334  1.0000
  C   C720      1.0  0.69384  0.33864  0.69487  1.0000
  H   H851      1.0  0.75158  0.28600  0.59806  1.0000
  C   C721      1.0  0.87524  0.24981  0.58293  1.0000
  H   H852      1.0  0.78366  0.29947  0.75642  1.0000
  H   H853      1.0  0.77916  0.28238  0.47023  1.0000
  H   H854      1.0  0.82682  0.27021  0.62283  1.0000
  H   H855      1.0  0.72459  0.27607  0.93087  1.0000
  H   H856      1.0  0.70947  0.28702  0.63804  1.0000
  C   C722      1.0  0.85915  0.26486  0.76884  1.0000
  H   H857      1.0  0.82822  0.29430  0.44169  1.0000
  C   C723      1.0  0.79528  0.27757  0.56400  1.0000
  C   C724      1.0  0.73753  0.48162  0.85894  1.0000
  C   C725      1.0  0.75734  0.48431  0.84346  1.0000
  H   H858      1.0  0.86370  0.24994  0.78544  1.0000
  C   C726      1.0  0.87419  0.47256  0.92363  1.0000
  H   H859      1.0  0.74852  0.27259  0.73649  1.0000
  C   C727      1.0  0.71174  0.29668  0.60662  1.0000
  C   C728      1.0  0.76246  0.26205  0.74159  1.0000
  C   C729      1.0  0.75459  0.27291  0.94387  1.0000
  C   C730      1.0  0.79829  0.39366  0.77618  1.0000
  C   C731      1.0  0.80470  0.36939  0.83867  1.0000
  C   C732      1.0  0.81065  0.37128  0.87673  1.0000
  C   C733      1.0  0.81482  0.35210  0.81937  1.0000
  C   C734      1.0  0.82570  0.35666  0.89416  1.0000
  C   C735      1.0  0.82983  0.33760  0.83713  1.0000
  C   C736      1.0  0.83525  0.33987  0.87443  1.0000
  H   H860      1.0  0.76752  0.41249  0.82840  1.0000
  H   H861      1.0  0.81100  0.40050  0.77845  1.0000
  H   H862      1.0  0.80461  0.38236  0.75419  1.0000
  H   H863      1.0  0.81152  0.34991  0.78983  1.0000
  H   H864      1.0  0.83032  0.35858  0.92267  1.0000
  H   H865      1.0  0.83766  0.32468  0.82161  1.0000
  H   H866      1.0  0.84716  0.32875  0.88764  1.0000
  C   C737      1.0  0.79617  0.46731  0.02006  1.0000
  C   C738      1.0  0.75196  0.33595  0.92051  1.0000
  C   C739      1.0  0.75597  0.45576  0.70691  1.0000
  C   C740      1.0  0.84617  0.26819  0.73968  1.0000
  C   C741      1.0  0.70075  0.32427  0.66729  1.0000
  H   H867      1.0  0.74169  0.29079  0.65188  1.0000
  C   C742      1.0  0.70775  0.36686  0.82328  1.0000
  H   H868      1.0  0.78340  0.26881  0.81172  1.0000
  C   C743      1.0  0.77347  0.47117  0.86029  1.0000
  C   C744      1.0  0.75418  0.43771  0.69590  1.0000
  C   C745      1.0  0.79003  0.43005  0.66969  1.0000
  C   C746      1.0  0.77296  0.33022  0.91342  1.0000
  C   C747      1.0  0.77114  0.42499  0.67706  1.0000
  C   C748      1.0  0.83872  0.30223  0.49263  1.0000
  C   C749      1.0  0.71955  0.35697  0.65690  1.0000
  H   H869      1.0  0.81092  0.28811  0.84457  1.0000
  H   H870      1.0  0.78159  0.33459  0.93304  1.0000
  H   H871      1.0  0.74423  0.34492  0.94530  1.0000
  N   N48       1.0  0.72563  0.31041  0.60492  1.0000
  C   C750      1.0  0.71724  0.32600  0.63311  1.0000
  H   H872      1.0  0.73957  0.43343  0.70208  1.0000
  C   C751      1.0  0.79032  0.27187  0.52916  1.0000
  S   S201      1.0  0.79377  0.26960  0.95195  1.0000
  C   C752      1.0  0.78055  0.30717  0.49993  1.0000
  H   H873      1.0  0.80375  0.46438  0.73996  1.0000
  C   C753      1.0  0.90394  0.38911  0.71461  1.0000
  H   H874      1.0  0.76964  0.41108  0.66839  1.0000
  Fe  Fe99      1.0  0.69552  0.27477  0.79323  1.0000
  H   H875      1.0  0.69793  0.36594  0.71139  1.0000
  C   C754      1.0  0.78296  0.31821  0.88218  1.0000
  H   H876      1.0  0.90121  0.36072  0.70096  1.0000
  C   C755      1.0  0.86539  0.28094  0.77851  1.0000
  C   C756      1.0  0.80445  0.29571  0.81565  1.0000
  C   C757      1.0  0.73857  0.26571  0.93607  1.0000
  H   H877      1.0  0.88585  0.41150  0.60760  1.0000
  H   H878      1.0  0.91636  0.44605  0.67364  1.0000
  C   C758      1.0  0.73025  0.31980  0.55977  1.0000
  H   H879      1.0  0.72722  0.36935  0.65386  1.0000
  H   H880      1.0  0.74130  0.31237  0.84890  1.0000
  N   N49       1.0  0.78207  0.29873  0.82373  1.0000
  H   H881      1.0  0.69820  0.37471  0.84842  1.0000
  H   H882      1.0  0.79721  0.30254  0.59307  1.0000
  H   H883      1.0  0.78875  0.47336  0.84830  1.0000
  H   H884      1.0  0.72168  0.39201  0.79337  1.0000
  H   H885      1.0  0.71674  0.33043  0.54957  1.0000
  H   H886      1.0  0.79916  0.31383  0.87953  1.0000
  C   C759      1.0  0.89403  0.38501  0.65070  1.0000
  H   H887      1.0  0.75592  0.30745  0.61550  1.0000
  C   C760      1.0  0.89571  0.41885  0.66128  1.0000
  C   C761      1.0  0.77687  0.27854  0.83685  1.0000
  C   C762      1.0  0.89165  0.40576  0.63686  1.0000
  H   H888      1.0  0.86825  0.27530  0.63764  1.0000
  C   C763      1.0  0.85984  0.30039  0.75667  1.0000
  H   H889      1.0  0.84946  0.29399  0.61523  1.0000
  C   C764      1.0  0.70652  0.34713  0.82165  1.0000
  N   N50       1.0  0.78904  0.38465  0.81885  1.0000
  H   H890      1.0  0.80425  0.38407  0.89332  1.0000
  S   S202      1.0  0.66927  0.29949  0.81068  1.0000
  H   H891      1.0  0.81138  0.28564  0.79138  1.0000
  S   S203      1.0  0.71558  0.28165  0.83188  1.0000
  C   C765      1.0  0.77935  0.40138  0.84386  1.0000
  H   H892      1.0  0.78712  0.40554  0.76044  1.0000
  H   H893      1.0  0.89139  0.45128  0.70555  1.0000
  H   H894      1.0  0.86209  0.44585  0.68150  1.0000
  H   H895      1.0  0.77477  0.31850  0.47510  1.0000
  H   H896      1.0  0.79050  0.41004  0.84717  1.0000
  H   H897      1.0  0.76023  0.38620  0.80125  1.0000
  H   H898      1.0  0.80990  0.45768  0.03158  1.0000
  H   H899      1.0  0.89633  0.43987  0.57896  1.0000
  H   H900      1.0  0.77181  0.39569  0.87625  1.0000
  H   H901      1.0  0.77818  0.36392  0.79124  1.0000
  H   H902      1.0  0.69324  0.31167  0.67413  1.0000
  H   H903      1.0  0.77232  0.47603  0.95602  1.0000
  C   C766      1.0  0.77280  0.37495  0.81398  1.0000
  H   H904      1.0  0.69675  0.30527  0.59964  1.0000
  C   C767      1.0  0.90295  0.44517  0.60193  1.0000
  H   H905      1.0  0.90453  0.41855  0.72255  1.0000
  C   C768      1.0  0.87816  0.46944  0.96500  1.0000
  H   H906      1.0  0.86718  0.46570  0.63882  1.0000
  H   H907      1.0  0.86396  0.44232  0.62758  1.0000
  H   H908      1.0  0.91927  0.43783  0.59856  1.0000
  H   H909      1.0  0.76624  0.36689  0.84496  1.0000
  H   H910      1.0  0.74222  0.46484  0.72161  1.0000
  C   C769      1.0  0.78294  0.28673  0.49729  1.0000
  N   N51       1.0  0.89246  0.44088  0.64653  1.0000
  C   C770      1.0  0.90180  0.40987  0.70092  1.0000
  H   H911      1.0  0.80784  0.47100  0.93564  1.0000
  H   H912      1.0  0.80714  0.45086  0.67570  1.0000
  C   C771      1.0  0.78563  0.31299  0.53437  1.0000
  C   C772      1.0  0.75068  0.31750  0.86542  1.0000
  C   C773      1.0  0.74085  0.32962  0.89652  1.0000
  C   C774      1.0  0.77207  0.31159  0.85689  1.0000
  H   H913      1.0  0.84745  0.24508  0.53501  1.0000
  H   H914      1.0  0.74265  0.32820  0.55374  1.0000
  H   H915      1.0  0.75296  0.28880  0.94468  1.0000
  Fe  Fe100     1.0  0.65945  0.27624  0.86438  1.0000
  H   H916      1.0  0.72445  0.33370  0.90269  1.0000
  H   H917      1.0  0.80962  0.31018  0.80390  1.0000
  C   C775      1.0  0.77510  0.30786  0.78285  1.0000
  H   H918      1.0  0.75896  0.30766  0.78420  1.0000
  H   H919      1.0  0.77701  0.32377  0.77362  1.0000
  H   H920      1.0  0.78057  0.27627  0.68706  1.0000
  H   H921      1.0  0.76028  0.27930  0.84407  1.0000
  C   C776      1.0  0.79318  0.29817  0.56639  1.0000
  H   H922      1.0  0.81214  0.25188  0.69807  1.0000
  S   S204      1.0  0.79354  0.24649  0.52301  1.0000
  H   H923      1.0  0.89021  0.37542  0.63213  1.0000
  H   H924      1.0  0.73570  0.25742  0.65380  1.0000
  C   C777      1.0  0.86276  0.28184  0.60709  1.0000
  H   H925      1.0  0.84050  0.25573  0.73427  1.0000
  H   H926      1.0  0.95799  0.24004  0.81158  1.0000
  H   H927      1.0  0.95343  0.25406  0.85514  1.0000
  C   C778      1.0  0.77300  0.25974  0.94905  1.0000
  H   H928      1.0  0.71856  0.46343  0.90314  1.0000
  H   H929      1.0  0.79044  0.45751  0.00401  1.0000
  H   H930      1.0  0.84877  0.30654  0.54639  1.0000
  H   H931      1.0  0.80083  0.26611  0.58874  1.0000
  C   C779      1.0  0.84084  0.25838  0.61896  1.0000
  H   H932      1.0  0.82915  0.47002  0.95940  1.0000
  H   H933      1.0  0.68155  0.33678  0.72135  1.0000
  C   C780      1.0  0.87099  0.48476  0.99033  1.0000
  H   H934      1.0  0.84513  0.25282  0.65092  1.0000
  C   C781      1.0  0.79205  0.44793  0.68095  1.0000
  C   C782      1.0  0.72180  0.24819  0.71832  1.0000
  H   H935      1.0  0.87149  0.47869  0.76698  1.0000
  H   H936      1.0  0.83448  0.25782  0.46904  1.0000
  N   N52       1.0  0.85722  0.26639  0.58819  1.0000
  C   C783      1.0  0.73388  0.46557  0.89107  1.0000
  C   C784      1.0  0.84642  0.29521  0.53040  1.0000
  C   C785      1.0  0.77502  0.46155  0.69924  1.0000
  C   C786      1.0  0.85023  0.27430  0.54705  1.0000
  H   H937      1.0  0.90196  0.46166  0.59110  1.0000
  H   H938      1.0  0.90781  0.38266  0.74569  1.0000
  C   C787      1.0  0.84587  0.26104  0.52351  1.0000
  H   H939      1.0  0.87391  0.48212  0.02253  1.0000
  H   H940      1.0  0.78023  0.46506  0.77565  1.0000
  H   H941      1.0  0.93547  0.25919  0.82099  1.0000
  H   H942      1.0  0.74771  0.24523  0.79530  1.0000
  H   H943      1.0  0.90697  0.25174  0.87608  1.0000
  C   C788      1.0  0.81454  0.47974  0.95228  1.0000
  C   C789      1.0  0.73528  0.24535  0.68029  1.0000
  H   H944      1.0  0.88126  0.24418  0.61316  1.0000
  H   H945      1.0  0.80565  0.48361  0.66882  1.0000
  S   S205      1.0  0.68418  0.25096  0.84357  1.0000
  Fe  Fe101     1.0  0.70184  0.26008  0.88418  1.0000
  H   H946      1.0  0.83699  0.24551  0.60878  1.0000
  H   H947      1.0  0.67619  0.25268  0.71234  1.0000
  C   C790      1.0  0.78864  0.47399  0.74857  1.0000
  Fe  Fe102     1.0  0.86229  0.25356  0.86890  1.0000
  S   S206      1.0  0.83833  0.48057  0.72462  1.0000
  Fe  Fe103     1.0  0.82386  0.24958  0.93263  1.0000
  S   S207      1.0  0.85221  0.25911  0.93609  1.0000
  C   C791      1.0  0.79821  0.25039  0.71987  1.0000
  H   H948      1.0  0.91291  0.24680  0.80143  1.0000
  H   H949      1.0  0.92314  0.24981  0.91369  1.0000
  N   N53       1.0  0.80079  0.48578  0.99132  1.0000
  H   H950      1.0  0.91426  0.47745  0.85175  1.0000
  S   S208      1.0  0.83287  0.24656  0.86364  1.0000
  C   C792      1.0  0.94611  0.24671  0.83674  1.0000
  C   C793      1.0  0.66102  0.25250  0.70863  1.0000
  C   C794      1.0  0.74059  0.24512  0.93555  1.0000
  C   C795      1.0  0.76222  0.24612  0.77548  1.0000
  C   C796      1.0  0.91835  0.24110  0.89358  1.0000
  C   C797      1.0  0.77505  0.23916  0.94840  1.0000
  H   H951      1.0  0.82591  0.48517  0.02189  1.0000
  H   H952      1.0  0.76718  0.63225  0.73243  1.0000
  Fe  Fe104     1.0  0.75185  0.55335  0.75176  1.0000
  S   S209      1.0  0.73548  0.58262  0.77404  1.0000
  S   S210      1.0  0.77865  0.54805  0.69943  1.0000
  Fe  Fe105     1.0  0.72446  0.52908  0.81453  1.0000
  S   S211      1.0  0.70545  0.55591  0.84289  1.0000
  H   H953      1.0  0.76030  0.49623  0.81785  1.0000
  Fe  Fe106     1.0  0.70734  0.57145  0.77561  1.0000
  S   S212      1.0  0.67997  0.59318  0.75629  1.0000
  Fe  Fe107     1.0  0.73486  0.56485  0.83964  1.0000
  S   S213      1.0  0.73989  0.57544  0.89671  1.0000
  S   S214      1.0  0.72369  0.54370  0.74710  1.0000
  S   S215      1.0  0.75385  0.53664  0.81739  1.0000
  Fe  Fe108     1.0  0.90600  0.59006  0.57962  1.0000
  S   S216      1.0  0.93017  0.57196  0.61602  1.0000
  S   S217      1.0  0.91195  0.59904  0.50861  1.0000
  Fe  Fe109     1.0  0.87318  0.59069  0.65688  1.0000
  S   S218      1.0  0.89420  0.57289  0.70029  1.0000
  S   S219      1.0  0.84113  0.60385  0.68352  1.0000
  Fe  Fe110     1.0  0.91565  0.59241  0.66459  1.0000
  H   H954      1.0  0.95634  0.60423  0.22318  1.0000
  H   H955      1.0  0.96699  0.51764  0.70535  1.0000
  S   S220      1.0  0.92057  0.66916  0.97286  1.0000
  S   S221      1.0  0.89349  0.61218  0.62563  1.0000
  S   S222      1.0  0.88388  0.56981  0.60815  1.0000
  Fe  Fe111     1.0  0.88748  0.57579  0.92281  1.0000
  S   S223      1.0  0.86575  0.60539  0.91959  1.0000
  S   S224      1.0  0.92023  0.57435  0.89525  1.0000
  Fe  Fe112     1.0  0.85608  0.55302  0.97581  1.0000
  S   S225      1.0  0.83158  0.58085  0.97931  1.0000
  Fe  Fe113     1.0  0.84381  0.58820  0.90991  1.0000
  S   S226      1.0  0.82495  0.60004  0.85870  1.0000
  Fe  Fe114     1.0  0.85574  0.59555  0.98899  1.0000
  S   S227      1.0  0.85212  0.61793  0.03328  1.0000
  S   S228      1.0  0.86681  0.55929  0.90565  1.0000
  S   S229      1.0  0.87898  0.56691  0.99295  1.0000
  C   C798      1.0  0.87098  0.63235  0.01649  1.0000
  C   C799      1.0  0.88850  0.62559  0.98827  1.0000
  C   C800      1.0  0.90368  0.63693  0.97535  1.0000
  C   C801      1.0  0.90147  0.65511  0.99047  1.0000
  C   C802      1.0  0.88390  0.66201  0.01852  1.0000
  C   C803      1.0  0.86870  0.65057  0.03167  1.0000
  H   H956      1.0  0.89058  0.61139  0.97701  1.0000
  H   H957      1.0  0.91735  0.63142  0.95418  1.0000
  H   H958      1.0  0.85513  0.65589  0.05342  1.0000
  H   H959      1.0  0.68552  0.61321  0.86627  1.0000
  H   H960      1.0  0.70693  0.61331  0.88878  1.0000
  H   H961      1.0  0.91698  0.64007  0.28303  1.0000
  H   H962      1.0  0.93492  0.61672  0.43224  1.0000
  H   H963      1.0  0.86020  0.49375  0.87526  1.0000
  S   S230      1.0  0.98838  0.63337  0.30980  1.0000
  C   C804      1.0  0.95740  0.51120  0.73443  1.0000
  C   C805      1.0  0.66020  0.50798  0.84309  1.0000
  C   C806      1.0  0.92994  0.59701  0.75333  1.0000
  C   C807      1.0  0.91085  0.59389  0.77478  1.0000
  C   C808      1.0  0.90760  0.58746  0.81876  1.0000
  C   C809      1.0  0.92358  0.58379  0.84109  1.0000
  C   C810      1.0  0.94262  0.58702  0.81980  1.0000
  C   C811      1.0  0.69476  0.65039  0.84739  1.0000
  H   H964      1.0  0.89849  0.59670  0.75764  1.0000
  H   H965      1.0  0.89281  0.58512  0.83521  1.0000
  C   C812      1.0  0.86164  0.50544  0.67182  1.0000
  C   C813      1.0  0.91734  0.52210  0.87591  1.0000
  H   H966      1.0  0.88201  0.67616  0.02998  1.0000
  S   S231      1.0  0.90563  0.73484  0.12177  1.0000
  H   H967      1.0  0.92390  0.59932  0.16199  1.0000
  C   C814      1.0  0.91850  0.49197  0.84774  1.0000
  H   H968      1.0  0.96068  0.54643  0.79067  1.0000
  C   C815      1.0  0.87856  0.51454  0.65997  1.0000
  H   H969      1.0  0.90289  0.67050  0.52105  1.0000
  S   S232      1.0  0.95869  0.73056  0.24641  1.0000
  C   C816      1.0  0.70181  0.61405  0.85829  1.0000
  C   C817      1.0  0.79565  0.56405  0.69397  1.0000
  C   C818      1.0  0.79128  0.57967  0.71827  1.0000
  C   C819      1.0  0.80513  0.59216  0.71395  1.0000
  C   C820      1.0  0.82362  0.58875  0.68619  1.0000
  C   C821      1.0  0.82788  0.57339  0.66122  1.0000
  C   C822      1.0  0.81387  0.56108  0.66506  1.0000
  H   H970      1.0  0.77730  0.58208  0.74059  1.0000
  H   H971      1.0  0.80171  0.60421  0.73283  1.0000
  H   H972      1.0  0.84196  0.57082  0.63925  1.0000
  H   H973      1.0  0.81729  0.54905  0.64608  1.0000
  C   C823      1.0  0.76386  0.58139  0.88693  1.0000
  C   C824      1.0  0.77516  0.58243  0.84586  1.0000
  C   C825      1.0  0.79381  0.58834  0.83748  1.0000
  C   C826      1.0  0.80161  0.59250  0.87036  1.0000
  C   C827      1.0  0.79055  0.59092  0.91177  1.0000
  C   C828      1.0  0.77155  0.58561  0.91996  1.0000
  H   H974      1.0  0.76936  0.57914  0.82027  1.0000
  H   H975      1.0  0.80215  0.58968  0.80544  1.0000
  H   H976      1.0  0.79631  0.59445  0.93719  1.0000
  H   H977      1.0  0.76278  0.58492  0.95178  1.0000
  H   H978      1.0  0.79726  0.50853  0.82130  1.0000
  N   N54       1.0  0.70540  0.63228  0.82752  1.0000
  H   H979      1.0  0.96050  0.59632  0.75949  1.0000
  H   H980      1.0  0.92274  0.53882  0.73484  1.0000
  H   H981      1.0  0.90331  0.49773  0.91047  1.0000
  C   C829      1.0  0.75887  0.53211  0.97131  1.0000
  C   C830      1.0  0.94423  0.58990  0.97484  1.0000
  H   H982      1.0  0.67978  0.55072  0.76731  1.0000
  H   H983      1.0  0.94442  0.60195  0.11922  1.0000
  H   H984      1.0  0.94424  0.55022  0.71189  1.0000
  S   S233      1.0  0.91167  0.68091  0.09122  1.0000
  H   H985      1.0  0.97148  0.66673  0.25102  1.0000
  Fe  Fe115     1.0  0.96716  0.70851  0.30347  1.0000
  H   H986      1.0  0.88956  0.60214  0.14866  1.0000
  C   C831      1.0  0.85662  0.50686  0.93230  1.0000
  H   H987      1.0  0.86221  0.57138  0.76984  1.0000
  H   H988      1.0  0.97613  0.53786  0.74444  1.0000
  H   H989      1.0  0.97481  0.52088  0.79416  1.0000
  H   H990      1.0  0.92417  0.63396  0.08897  1.0000
  C   C832      1.0  0.96800  0.65310  0.24542  1.0000
  C   C833      1.0  0.94217  0.60766  0.03332  1.0000
  C   C834      1.0  0.91074  0.62690  0.09865  1.0000
  H   H991      1.0  0.78301  0.52184  0.88884  1.0000
  H   H992      1.0  0.90589  0.57911  0.05281  1.0000
  H   H993      1.0  0.88550  0.60308  0.09576  1.0000
  H   H994      1.0  0.90340  0.63120  0.13043  1.0000
  C   C835      1.0  0.73850  0.63192  0.84854  1.0000
  N   N55       1.0  0.84390  0.63176  0.54311  1.0000
  C   C836      1.0  0.85719  0.61204  0.55428  1.0000
  C   C837      1.0  0.85288  0.64075  0.50003  1.0000
  C   C838      1.0  0.84406  0.64524  0.57343  1.0000
  C   C839      1.0  0.82311  0.62870  0.54612  1.0000
  C   C840      1.0  0.81313  0.63288  0.51048  1.0000
  C   C841      1.0  0.81248  0.62056  0.58552  1.0000
  C   C842      1.0  0.79381  0.62890  0.51439  1.0000
  C   C843      1.0  0.79332  0.61642  0.58902  1.0000
  C   C844      1.0  0.78398  0.62059  0.55350  1.0000
  H   H995      1.0  0.85738  0.60121  0.53283  1.0000
  H   H996      1.0  0.87306  0.61358  0.55165  1.0000
  H   H997      1.0  0.85243  0.60498  0.58748  1.0000
  H   H998      1.0  0.85443  0.63074  0.47598  1.0000
  H   H999      1.0  0.86848  0.64286  0.49906  1.0000
  H   H1000     1.0  0.84385  0.65587  0.48980  1.0000
  H   H1001     1.0  0.84002  0.63841  0.60720  1.0000
  H   H1002     1.0  0.85935  0.64859  0.57042  1.0000
  H   H1003     1.0  0.83326  0.65984  0.56795  1.0000
  H   H1004     1.0  0.81996  0.63906  0.47918  1.0000
  H   H1005     1.0  0.81909  0.61702  0.61391  1.0000
  H   H1006     1.0  0.78649  0.63208  0.48680  1.0000
  H   H1007     1.0  0.78582  0.60971  0.61943  1.0000
  H   H1008     1.0  0.76915  0.61727  0.55629  1.0000
  N   N56       1.0  0.84976  0.54431  0.79031  1.0000
  C   C845      1.0  0.85010  0.54369  0.74485  1.0000
  C   C846      1.0  0.85008  0.56543  0.79344  1.0000
  C   C847      1.0  0.86829  0.53096  0.80324  1.0000
  C   C848      1.0  0.83187  0.53752  0.81802  1.0000
  H   H1009     1.0  0.89736  0.70417  0.34258  1.0000
  C   C849      1.0  0.82409  0.54364  0.85854  1.0000
  C   C850      1.0  0.66582  0.55913  0.75759  1.0000
  C   C851      1.0  0.80669  0.53797  0.88381  1.0000
  C   C852      1.0  0.79687  0.52564  0.87004  1.0000
  H   H1010     1.0  0.83518  0.55112  0.73593  1.0000
  H   H1011     1.0  0.86169  0.55127  0.72299  1.0000
  H   H1012     1.0  0.85376  0.52813  0.73774  1.0000
  H   H1013     1.0  0.85305  0.56708  0.82452  1.0000
  H   H1014     1.0  0.83563  0.57574  0.78762  1.0000
  C   C853      1.0  0.92809  0.58127  0.99747  1.0000
  H   H1015     1.0  0.86868  0.51494  0.80134  1.0000
  H   H1016     1.0  0.88218  0.53516  0.78253  1.0000
  Fe  Fe116     1.0  0.96605  0.69065  0.04854  1.0000
  H   H1017     1.0  0.90021  0.67234  0.38951  1.0000
  H   H1018     1.0  0.83098  0.55326  0.87088  1.0000
  H   H1019     1.0  0.90206  0.49337  0.74449  1.0000
  H   H1020     1.0  0.80049  0.54372  0.91363  1.0000
  C   C854      1.0  0.86052  0.50358  0.97388  1.0000
  N   N57       1.0  0.89687  0.65237  0.84435  1.0000
  C   C855      1.0  0.88339  0.65861  0.88373  1.0000
  C   C856      1.0  0.91238  0.63462  0.85695  1.0000
  C   C857      1.0  0.90709  0.66934  0.82346  1.0000
  C   C858      1.0  0.88604  0.64706  0.81472  1.0000
  C   C859      1.0  0.86599  0.64358  0.82704  1.0000
  C   C860      1.0  0.89590  0.64419  0.77269  1.0000
  C   C861      1.0  0.85644  0.63790  0.79873  1.0000
  C   C862      1.0  0.88606  0.63892  0.74439  1.0000
  C   C863      1.0  0.86641  0.63564  0.75747  1.0000
  H   H1021     1.0  0.87709  0.64590  0.90436  1.0000
  H   H1022     1.0  0.89162  0.66391  0.90398  1.0000
  H   H1023     1.0  0.87067  0.67121  0.87623  1.0000
  H   H1024     1.0  0.90532  0.62170  0.87414  1.0000
  H   H1025     1.0  0.92135  0.63803  0.87830  1.0000
  H   H1026     1.0  0.92323  0.62929  0.82894  1.0000
  H   H1027     1.0  0.89623  0.68240  0.80989  1.0000
  H   H1028     1.0  0.91389  0.67471  0.84624  1.0000
  H   H1029     1.0  0.91984  0.66506  0.79754  1.0000
  H   H1030     1.0  0.85742  0.64478  0.85862  1.0000
  H   H1031     1.0  0.91154  0.64532  0.76156  1.0000
  H   H1032     1.0  0.84130  0.63489  0.80912  1.0000
  H   H1033     1.0  0.89410  0.63651  0.71269  1.0000
  H   H1034     1.0  0.85904  0.63091  0.73591  1.0000
  C   C864      1.0  0.97432  0.63463  0.27026  1.0000
  C   C865      1.0  0.75902  0.63249  0.76477  1.0000
  C   C866      1.0  0.76938  0.63246  0.79707  1.0000
  H   H1035     1.0  0.73320  0.53390  0.94228  1.0000
  H   H1036     1.0  0.81695  0.50884  0.99238  1.0000
  H   H1037     1.0  0.70298  0.61913  0.77429  1.0000
  C   C867      1.0  0.89327  0.50996  0.68590  1.0000
  H   H1038     1.0  0.69952  0.65032  0.87797  1.0000
  H   H1039     1.0  0.69782  0.66442  0.82596  1.0000
  Fe  Fe117     1.0  0.92350  0.70892  0.08823  1.0000
  H   H1040     1.0  0.94845  0.61769  0.04600  1.0000
  H   H1041     1.0  0.71010  0.60011  0.84516  1.0000
  C   C868      1.0  0.69599  0.63259  0.79031  1.0000
  C   C869      1.0  0.92793  0.62841  0.45174  1.0000
  H   H1042     1.0  0.78526  0.52708  0.99795  1.0000
  C   C870      1.0  0.92401  0.70840  0.21868  1.0000
  H   H1043     1.0  0.93803  0.70180  0.23230  1.0000
  Fe  Fe118     1.0  0.94056  0.66459  0.11323  1.0000
  Fe  Fe119     1.0  0.92996  0.67971  0.02562  1.0000
  C   C871      1.0  0.91062  0.67248  0.26768  1.0000
  C   C872      1.0  0.87363  0.48818  0.73659  1.0000
  H   H1044     1.0  0.96384  0.60982  0.97510  1.0000
  H   H1045     1.0  0.91061  0.64006  0.36090  1.0000
  C   C873      1.0  0.91860  0.58604  0.03772  1.0000
  H   H1046     1.0  0.91352  0.67165  0.23404  1.0000
  C   C874      1.0  0.90597  0.69129  0.28290  1.0000
  H   H1047     1.0  0.92316  0.69886  0.19562  1.0000
  S   S234      1.0  0.93939  0.70929  0.02033  1.0000
  H   H1048     1.0  0.90026  0.63411  0.07617  1.0000
  S   S235      1.0  0.92541  0.68816  0.44440  1.0000
  H   H1049     1.0  0.98993  0.63674  0.12420  1.0000
  C   C875      1.0  0.97021  0.61701  0.26203  1.0000
  C   C876      1.0  0.90716  0.63895  0.51649  1.0000
  C   C877      1.0  0.90990  0.65876  0.50173  1.0000
  N   N58       1.0  0.90585  0.71038  0.25278  1.0000
  Fe  Fe120     1.0  0.90686  0.55380  0.64887  1.0000
  H   H1050     1.0  0.86913  0.53167  0.83668  1.0000
  C   C878      1.0  0.88758  0.71507  0.23296  1.0000
  C   C879      1.0  0.95131  0.60303  0.99279  1.0000
  S   S236      1.0  0.93464  0.60406  0.69816  1.0000
  H   H1051     1.0  0.79086  0.50619  0.68524  1.0000
  C   C880      1.0  0.91611  0.62373  0.49152  1.0000
  S   S237      1.0  0.91481  0.52054  0.67111  1.0000
  C   C881      1.0  0.75914  0.63222  0.83883  1.0000
  C   C882      1.0  0.94573  0.59387  0.77601  1.0000
  H   H1052     1.0  0.97614  0.72416  0.11287  1.0000
  C   C883      1.0  0.80480  0.51832  0.83173  1.0000
  Fe  Fe121     1.0  0.95259  0.68850  0.39268  1.0000
  H   H1053     1.0  0.95498  0.58421  0.83715  1.0000
  H   H1054     1.0  0.84822  0.52128  0.91982  1.0000
  S   S238      1.0  0.95089  0.68307  0.32829  1.0000
  C   C884      1.0  0.74652  0.52420  0.95309  1.0000
  H   H1055     1.0  0.89786  0.63564  0.54684  1.0000
  N   N59       1.0  0.91583  0.60472  0.09969  1.0000
  H   H1056     1.0  0.88674  0.72953  0.21048  1.0000
  C   C885      1.0  0.95961  0.61788  0.22928  1.0000
  S   S239      1.0  0.85112  0.52219  0.00706  1.0000
  H   H1057     1.0  0.93252  0.54396  0.83584  1.0000
  H   H1058     1.0  0.89958  0.58044  0.12298  1.0000
  S   S240      1.0  0.95086  0.69262  0.11587  1.0000
  S   S241      1.0  0.95810  0.66109  0.04796  1.0000
  C   C886      1.0  0.66202  0.58021  0.75008  1.0000
  C   C887      1.0  0.90133  0.69072  0.32781  1.0000
  C   C888      1.0  0.93032  0.59584  0.12919  1.0000
  C   C889      1.0  0.92210  0.66332  0.46244  1.0000
  C   C890      1.0  0.92524  0.59963  0.05675  1.0000
  H   H1059     1.0  0.82755  0.51756  0.77703  1.0000
  C   C891      1.0  0.72737  0.63216  0.81640  1.0000
  H   H1060     1.0  0.92268  0.57102  0.98338  1.0000
  C   C892      1.0  0.89683  0.59720  0.11740  1.0000
  C   C893      1.0  0.82219  0.52388  0.80624  1.0000
  H   H1061     1.0  0.92596  0.72318  0.19910  1.0000
  C   C894      1.0  0.95777  0.65388  0.21217  1.0000
  C   C895      1.0  0.92913  0.52930  0.83814  1.0000
  H   H1062     1.0  0.73144  0.63112  0.88162  1.0000
  H   H1063     1.0  0.94067  0.65151  0.40710  1.0000
  C   C896      1.0  0.93122  0.64810  0.43752  1.0000
  H   H1064     1.0  0.73130  0.63238  0.74742  1.0000
  H   H1065     1.0  0.76096  0.50805  0.73354  1.0000
  H   H1066     1.0  0.78553  0.63207  0.78999  1.0000
  Fe  Fe122     1.0  0.98160  0.66371  0.33053  1.0000
  H   H1067     1.0  0.75500  0.54798  0.97451  1.0000
  C   C897      1.0  0.90866  0.65420  0.33935  1.0000
  N   N60       1.0  0.94869  0.52605  0.76437  1.0000
  H   H1068     1.0  0.88042  0.52481  0.63041  1.0000
  H   H1069     1.0  0.93472  0.57918  0.13078  1.0000
  H   H1070     1.0  0.97511  0.60271  0.28117  1.0000
  H   H1071     1.0  0.74907  0.49862  0.70009  1.0000
  C   C898      1.0  0.95353  0.63630  0.20409  1.0000
  H   H1072     1.0  0.85037  0.50884  0.65155  1.0000
  C   C899      1.0  0.91219  0.50339  0.88085  1.0000
  H   H1073     1.0  0.91228  0.53109  0.90158  1.0000
  S   S242      1.0  0.94069  0.63694  0.16275  1.0000
  C   C900      1.0  0.96579  0.53302  0.77396  1.0000
  S   S243      1.0  0.71728  0.49844  0.83886  1.0000
  H   H1074     1.0  0.94541  0.50666  0.72259  1.0000
  H   H1075     1.0  0.87357  0.71637  0.25738  1.0000
  C   C901      1.0  0.73829  0.63249  0.77399  1.0000
  H   H1076     1.0  0.95113  0.58643  0.94323  1.0000
  C   C902      1.0  0.89084  0.49672  0.72410  1.0000
  C   C903      1.0  0.90580  0.72782  0.27345  1.0000
  C   C904      1.0  0.93580  0.54344  0.74231  1.0000
  H   H1077     1.0  0.76744  0.63153  0.86405  1.0000
  H   H1078     1.0  0.67306  0.52692  0.86997  1.0000
  H   H1079     1.0  0.67960  0.63217  0.79965  1.0000
  C   C905      1.0  0.93634  0.51788  0.80414  1.0000
  S   S244      1.0  0.96614  0.71584  0.36804  1.0000
  C   C906      1.0  0.77634  0.51984  0.98453  1.0000
  H   H1080     1.0  0.80248  0.50036  0.04313  1.0000
  H   H1081     1.0  0.95301  0.66813  0.19325  1.0000
  H   H1082     1.0  0.96694  0.49748  0.74956  1.0000
  C   C907      1.0  0.75150  0.50394  0.94816  1.0000
  C   C908      1.0  0.75833  0.49394  0.72576  1.0000
  H   H1083     1.0  0.92955  0.55562  0.76209  1.0000
  C   C909      1.0  0.93032  0.49905  0.80974  1.0000
  C   C910      1.0  0.90281  0.67239  0.35541  1.0000
  H   H1084     1.0  0.89143  0.73205  0.29567  1.0000
  H   H1085     1.0  0.91865  0.72454  0.29109  1.0000
  C   C911      1.0  0.91232  0.65424  0.29556  1.0000
  H   H1086     1.0  0.88747  0.70322  0.21422  1.0000
  C   C912      1.0  0.86319  0.49123  0.90733  1.0000
  H   H1087     1.0  0.69722  0.64639  0.76655  1.0000
  C   C913      1.0  0.81188  0.49551  0.01320  1.0000
  C   C914      1.0  0.78196  0.49909  0.97962  1.0000
  H   H1088     1.0  0.78281  0.49516  0.64773  1.0000
  C   C915      1.0  0.76895  0.49155  0.96112  1.0000
  S   S245      1.0  0.98234  0.66730  0.39708  1.0000
  H   H1089     1.0  0.74192  0.49785  0.93369  1.0000
  H   H1090     1.0  0.81818  0.49316  0.92940  1.0000
  C   C916      1.0  0.78973  0.49162  0.67688  1.0000
  H   H1091     1.0  0.67809  0.65145  0.85463  1.0000
  C   C917      1.0  0.85924  0.49217  0.71008  1.0000
  H   H1092     1.0  0.67450  0.49760  0.83599  1.0000
  H   H1093     1.0  0.79120  0.48733  0.75971  1.0000
  H   H1094     1.0  0.93456  0.48946  0.78540  1.0000
  C   C918      1.0  0.65934  0.52458  0.86229  1.0000
  H   H1095     1.0  0.74917  0.48716  0.75509  1.0000
  H   H1096     1.0  0.96727  0.77466  0.14604  1.0000
  Fe  Fe123     1.0  0.91666  0.96763  0.27903  1.0000
  S   S246      1.0  0.94508  0.96303  0.23106  1.0000
  S   S247      1.0  0.89312  0.94921  0.28558  1.0000
  H   H1097     1.0  0.95679  0.83225  0.96353  1.0000
  C   C919      1.0  0.97645  0.77303  0.11397  1.0000
  C   C920      1.0  0.92475  0.76103  0.06111  1.0000
  C   C921      1.0  0.96629  0.91244  0.10744  1.0000
  C   C922      1.0  0.94873  0.76207  0.29257  1.0000
  C   C923      1.0  0.96457  0.88213  0.27256  1.0000
  S   S248      1.0  0.95965  0.82190  0.15135  1.0000
  S   S249      1.0  0.93221  0.96883  0.33203  1.0000
  H   H1098     1.0  0.91558  0.80103  0.13583  1.0000
  H   H1099     1.0  0.87852  0.88767  0.35016  1.0000
  H   H1100     1.0  0.90273  0.76933  0.16170  1.0000
  H   H1101     1.0  0.92730  0.80011  0.20102  1.0000
  S   S250      1.0  0.93882  0.81519  0.05488  1.0000
  C   C924      1.0  0.89664  0.93704  0.24122  1.0000
  C   C925      1.0  0.87992  0.93667  0.22382  1.0000
  C   C926      1.0  0.88252  0.92703  0.18828  1.0000
  C   C927      1.0  0.96916  0.83836  0.97029  1.0000
  C   C928      1.0  0.91841  0.91701  0.18912  1.0000
  C   C929      1.0  0.91592  0.92734  0.22358  1.0000
  H   H1102     1.0  0.86497  0.94416  0.23736  1.0000
  C   C930      1.0  0.90174  0.91697  0.17120  1.0000
  H   H1103     1.0  0.93986  0.78170  0.01419  1.0000
  H   H1104     1.0  0.92890  0.92744  0.23685  1.0000
  Fe  Fe124     1.0  0.92516  0.87445  0.13446  1.0000
  Fe  Fe125     1.0  0.93865  0.83385  0.10451  1.0000
  S   S251      1.0  0.94955  0.86298  0.08227  1.0000
  H   H1105     1.0  0.90434  0.97104  0.06478  1.0000
  H   H1106     1.0  0.94580  0.86125  0.27598  1.0000
  H   H1107     1.0  0.88950  0.90848  0.32242  1.0000
  Fe  Fe126     1.0  0.96011  0.96725  0.28211  1.0000
  H   H1108     1.0  0.90120  0.89143  0.25811  1.0000
  H   H1109     1.0  0.91399  0.86554  0.26304  1.0000
  S   S252      1.0  0.94510  0.86615  0.18351  1.0000
  H   H1110     1.0  0.97747  0.87342  0.25414  1.0000
  H   H1111     1.0  0.91825  0.86075  0.37612  1.0000
  S   S253      1.0  0.91243  0.84625  0.15254  1.0000
  C   C931      1.0  0.92893  0.88681  0.30772  1.0000
  C   C932      1.0  0.91088  0.77199  0.12954  1.0000
  C   C933      1.0  0.95030  0.92781  0.09582  1.0000
  C   C934      1.0  0.93986  0.76910  0.22251  1.0000
  H   H1112     1.0  0.93331  0.90942  0.17608  1.0000
  C   C935      1.0  0.94967  0.91139  0.30701  1.0000
  H   H1113     1.0  0.93869  0.76396  0.19397  1.0000
  S   S254      1.0  0.92955  0.82220  0.26518  1.0000
  H   H1114     1.0  0.90954  0.94600  0.09250  1.0000
  C   C936      1.0  0.91820  0.78989  0.11501  1.0000
  C   C937      1.0  0.98815  0.74857  0.03323  1.0000
  H   H1115     1.0  0.95108  0.92542  0.31528  1.0000
  H   H1116     1.0  0.86958  0.92706  0.17451  1.0000
  H   H1117     1.0  0.92718  0.75005  0.04005  1.0000
  S   S255      1.0  0.90473  0.90488  0.12689  1.0000
  C   C938      1.0  0.92860  0.79345  0.07337  1.0000
  C   C939      1.0  0.91424  0.75748  0.10267  1.0000
  C   C940      1.0  0.93183  0.77902  0.04643  1.0000
  Fe  Fe127     1.0  0.93457  0.83704  0.19749  1.0000
  H   H1118     1.0  0.88840  0.87199  0.28794  1.0000
  Fe  Fe128     1.0  0.96834  0.85200  0.13338  1.0000
  H   H1119     1.0  0.95499  0.75168  0.31782  1.0000
  H   H1120     1.0  0.94009  0.92369  0.07965  1.0000
  C   C941      1.0  0.96623  0.90011  0.28360  1.0000
  C   C942      1.0  0.91259  0.85973  0.34722  1.0000
  H   H1121     1.0  0.98790  0.78265  0.10783  1.0000
  C   C943      1.0  0.90308  0.87703  0.28049  1.0000
  C   C944      1.0  0.93337  0.78954  0.22651  1.0000
  C   C945      1.0  0.93482  0.79632  0.26327  1.0000
  H   H1122     1.0  0.96626  0.77934  0.09042  1.0000
  H   H1123     1.0  0.92363  0.84789  0.33078  1.0000
  C   C946      1.0  0.94631  0.87541  0.28485  1.0000
  H   H1124     1.0  0.97620  0.96619  0.39610  1.0000
  H   H1125     1.0  0.89828  0.85398  0.35760  1.0000
  C   C947      1.0  0.93122  0.90499  0.31887  1.0000
  H   H1126     1.0  0.96318  0.73798  0.15529  1.0000
  H   H1127     1.0  0.91169  0.95931  0.15630  1.0000
  H   H1128     1.0  0.91890  0.91488  0.33580  1.0000
  H   H1129     1.0  0.89630  0.89550  0.37276  1.0000
  C   C948      1.0  0.89283  0.89342  0.34225  1.0000
  N   N61       1.0  0.90965  0.87953  0.31936  1.0000
  H   H1130     1.0  0.98324  0.80798  0.02836  1.0000
  C   C949      1.0  0.94208  0.78253  0.29675  1.0000
  C   C950      1.0  0.94809  0.75542  0.25503  1.0000
  C   C951      1.0  0.94745  0.94749  0.10634  1.0000
  H   H1131     1.0  0.94329  0.78772  0.32523  1.0000
  H   H1132     1.0  0.97271  0.74666  0.03870  1.0000
  H   H1133     1.0  0.96078  0.96541  0.13692  1.0000
  N   N62       1.0  0.93062  0.96415  0.09511  1.0000
  H   H1134     1.0  0.97887  0.78219  0.22809  1.0000
  C   C952      1.0  0.93894  0.98104  0.06713  1.0000
  H   H1135     1.0  0.96416  0.84140  0.00368  1.0000
  C   C953      1.0  0.97978  0.91610  0.12982  1.0000
  H   H1136     1.0  0.92693  0.97748  0.15201  1.0000
  C   C954      1.0  0.96178  0.95077  0.12834  1.0000
  H   H1137     1.0  0.92501  0.95309  0.04196  1.0000
  C   C955      1.0  0.91686  0.95824  0.07252  1.0000
  H   H1138     1.0  0.96978  0.85292  0.94878  1.0000
  H   H1139     1.0  0.98033  0.90545  0.27398  1.0000
  H   H1140     1.0  0.94890  0.97600  0.03788  1.0000
  C   C956      1.0  0.91816  0.97154  0.13424  1.0000
  H   H1141     1.0  0.97395  0.79887  0.99002  1.0000
  H   H1142     1.0  0.97626  0.81576  0.24881  1.0000
  H   H1143     1.0  0.99061  0.74659  0.35914  1.0000
  C   C957      1.0  0.98663  0.80514  0.99479  1.0000
  H   H1144     1.0  0.98797  0.85918  0.99824  1.0000
  N   N63       1.0  0.98890  0.82395  0.96494  1.0000
  N   N64       1.0  0.98602  0.75176  0.11041  1.0000
  H   H1145     1.0  0.90535  0.98411  0.12708  1.0000
  H   H1146     1.0  0.98803  0.93810  0.15779  1.0000
  C   C958      1.0  0.97756  0.93524  0.14021  1.0000
  H   H1147     1.0  0.95704  0.74662  0.10434  1.0000
  H   H1148     1.0  0.96802  0.89744  0.09981  1.0000
  H   H1149     1.0  0.98021  0.81487  0.91273  1.0000
  C   C959      1.0  0.96998  0.73962  0.12096  1.0000
  H   H1150     1.0  0.90746  0.74160  0.24977  1.0000
  H   H1151     1.0  0.99056  0.74233  0.17584  1.0000
  H   H1152     1.0  0.99102  0.75867  0.28423  1.0000
  S   S256      1.0  0.98944  0.94670  0.29248  1.0000
  C   C960      1.0  0.99114  0.96809  0.39711  1.0000
