data_image0
_chemical_formula_structural       H2C2SH3CHC2SCH4CHCH2CH2NHCNHFeS2FeS2FeSFeS3FeS2FeS2FeSFeS3C6H4CHCSH2C3HC6H4C6H4C4H2C4HNC9H18C2H2CHC2H2CH5CH2CH2CH2CHC2H2C5NCH2CH2CHCH3C2HCNC2HCH2C3H6C3H5C3HC2H2C4HNCHCH2CHCSHCH5C2H2NCH5NFeSHFeS2FeSFeS3FeS2FeS2FeSFeS3FeS2FeSCFeSFeS3FeS2FeS2FeSFeCS2FeS2FeHFeCFeS2FeS2FeSFeHFeS3CH4C2SC3H2C2H3C6H5CHCHC3H2C6H4C6H4C6H4CH3C7H5CH2C7H3CNC5H9NC8H10CH2C2H2CHC2HCH2C5H3CH5C2HCH6C2HCH4CH3CHCNCH2CH2C2H9C2H3C3HN2HCHC3H3CHCHCH3CH2CH3C3H3CSCNH3CSCHC3H2C2H2C2H2CH2NH3CH2CH2CHC4H2SCHC2HCHCH2CH5C2H3CH4CH6CH5C2HSNCNHFeSFeSHFeSFeS3FeS2FeS2FeSFeS3CSFeS2FeSFeS2HFeS2FeS2FeSFeS3FeS2FeS2FeHFeS3FeS2FeS2FeHFeS3H5C2H5NC4H4C2H2C7H4CHCH2C3H2C6H4C6H4C6H4C6H3C7H5CH4C2H2C2HCHC2HNC9H12NC9H14SHCH2C5H7NC9H14C2HNCHC2FeCH4C2HCNCHC3H3NHSH4CH6CHC2HSH2C4HCHC2H3C2HCH5CH4CHCNC2H2CH2CSCH2CH2C2HCH5C2HCH2CH2CH5CHC2HCN2HC4H2FeS2FeS2FeSFeS3FeS2FeS2FeSFeS3HSC6H4C2H2NC3H2C6H4C6H4CH2CH2CH2NC6HCH12C3NC9H11CH5C2H2CH2CH2CHCHCH2NH2C4HCHCHC3SH2C2HC4HC2H2CHCHCH2CH6CH2C2H3C2H8NHCH3C3H2CHCHCHC3H2CH2CH4CHC3H2C2HC2HFeS2FeS2FeSFeHS2FeS2FeS2FeSFeS3C6H4C3H6NC6H4C6H4CH6CHC2H6SCHCHCH3C2H2C2HCH7SC3HCH2C4H4CSCH4CH2CHCHCHNHNHCHCNC5HCHCH3C3H4C2HCHFeS2FeS2FeSFeS3FeSHFeS2FeSFeS3FeS2FeS2FeSFeS3FeS2FeSCFeHFeHS2FeSHFeSHFeSFeS2FeSHFeSCFeSFeS2HC2H2CH2C2H4C2HC6H4C6H4C3H4C2HC4H5C7H4C6H4C6H10CHCNC9H15C2HNSH2C3H3NC3N2HC2S2NC9H14C2SHCH2CH2CHCHC2HNH2CHCH2CHCHNH2CHSHCH7C2HC2HCHCHCHSHCHCH2CSCH7CH3C2H2CHCNH3NC4HC4H2C3H3CHC2H3C2H3CH5CHC2H2C3HCHCHCHCHCHCNHNC3HC2H3CH2C2HC3HCH3CH3NC3H2C3HCHCH3SH5CHC2H3FeS2FeS2FeSFeS3FeSFeS2FeSFeS3FeS2FeS2FeSFeS3FeSFeSCFeHFeSCSFeS2FeS2FeCFeS3FeS2FeS2FeSFeHS2C3H2NC5HC3HCH4CHC2HC6H4C6H4C3H4C2HCH6CH4C9H5C3HC6H4C6H4NC9H17CSCNH4CHCHNC9H14SH2CHCH2C2H3C2HCHC3H3C7HSHC3HCHCHCHCH2CHC2NH7CNCNHNCH3SC2H3CHCH4NC3H2CHCH9C3H5C2HC3H5C3HC3H6NHC2H4CHCHCH2CH2CH2C4HCH3C3HFeS2FeS2FeSFeS3FeS2FeS2FeSFeS3H2C6H5C2HCHC3HC6HCH2C6H5C2H2C3H2NHSH2CHCH2NCHC7H3CH11CHC3H5C2H12NC4NC2H4CHCH4C3H3C4H2CHCH3CHC4H2C2H2SNHCHC2H3CHC3HC3H3C2HC2H3C2HC3H2C3HSHCHC
_chemical_formula_sum              "H1152 C960 S256 N64 Fe128"
_cell_length_a       50.612
_cell_length_b       50.7107
_cell_length_c       73.5983
_cell_angle_alpha    90.3779
_cell_angle_beta     90.1809
_cell_angle_gamma    87.2888

_space_group_name_H-M_alt    "P 1"
_space_group_IT_number       1

loop_
  _space_group_symop_operation_xyz
  'x, y, z'

loop_
  _atom_site_type_symbol
  _atom_site_label
  _atom_site_symmetry_multiplicity
  _atom_site_fract_x
  _atom_site_fract_y
  _atom_site_fract_z
  _atom_site_occupancy
  H   H1        1.0  0.03080  0.01526  0.06774  1.0000
  H   H2        1.0  0.06563  0.25110  0.01342  1.0000
  C   C1        1.0  0.10805  0.01601  0.03056  1.0000
  C   C2        1.0  0.02173  0.01495  0.03152  1.0000
  S   S1        1.0  0.10765  0.09126  0.01029  1.0000
  H   H3        1.0  0.01938  0.19862  0.01379  1.0000
  H   H4        1.0  0.02002  0.11795  0.00154  1.0000
  H   H5        1.0  0.05080  0.20949  0.02051  1.0000
  C   C3        1.0  0.10338  0.05643  0.01216  1.0000
  H   H6        1.0  0.04014  0.26621  0.02725  1.0000
  C   C4        1.0  0.01299  0.00504  0.06300  1.0000
  C   C5        1.0  0.04476  0.25929  0.01319  1.0000
  S   S2        1.0  0.10735  0.46433  0.00772  1.0000
  C   C6        1.0  0.11019  0.04358  0.02857  1.0000
  H   H7        1.0  0.11753  0.05502  0.03982  1.0000
  H   H8        1.0  0.02177  0.22078  0.03289  1.0000
  H   H9        1.0  0.11380  0.00656  0.04320  1.0000
  H   H10       1.0  0.99590  0.01959  0.06355  1.0000
  C   C7        1.0  0.09933  0.00067  0.01603  1.0000
  H   H11       1.0  0.04066  0.02460  0.03449  1.0000
  C   C8        1.0  0.02957  0.21610  0.01906  1.0000
  H   H12       1.0  0.12590  0.27792  0.00359  1.0000
  H   H13       1.0  0.02326  0.00696  0.01741  1.0000
  C   C9        1.0  0.03048  0.48342  0.00262  1.0000
  H   H14       1.0  0.00371  0.29012  0.01489  1.0000
  H   H15       1.0  0.00609  0.03102  0.03182  1.0000
  N   N1        1.0  0.02617  0.23928  0.00690  1.0000
  H   H16       1.0  0.04472  0.27660  0.00393  1.0000
  C   C10       1.0  0.99809  0.24896  0.00668  1.0000
  N   N2        1.0  0.01689  0.99351  0.04460  1.0000
  H   H17       1.0  0.16284  0.48920  0.00180  1.0000
  Fe  Fe1       1.0  0.38925  0.14679  0.57101  1.0000
  S   S3        1.0  0.38902  0.15285  0.54110  1.0000
  S   S4        1.0  0.42803  0.14900  0.58562  1.0000
  Fe  Fe2       1.0  0.33057  0.14247  0.57221  1.0000
  S   S5        1.0  0.32565  0.14878  0.54191  1.0000
  S   S6        1.0  0.29972  0.13016  0.59218  1.0000
  Fe  Fe3       1.0  0.36089  0.11972  0.53920  1.0000
  S   S7        1.0  0.37039  0.08927  0.51620  1.0000
  Fe  Fe4       1.0  0.35440  0.18134  0.54630  1.0000
  S   S8        1.0  0.35890  0.22082  0.53172  1.0000
  S   S9        1.0  0.36391  0.11183  0.56919  1.0000
  S   S10       1.0  0.35649  0.17680  0.57664  1.0000
  Fe  Fe5       1.0  0.35276  0.37749  0.54693  1.0000
  S   S11       1.0  0.39411  0.37767  0.55756  1.0000
  S   S12       1.0  0.33092  0.34088  0.55528  1.0000
  Fe  Fe6       1.0  0.35453  0.43686  0.53443  1.0000
  S   S13       1.0  0.39603  0.44010  0.54488  1.0000
  S   S14       1.0  0.32878  0.47244  0.52403  1.0000
  Fe  Fe7       1.0  0.40271  0.39991  0.53227  1.0000
  S   S15       1.0  0.43932  0.38705  0.51702  1.0000
  Fe  Fe8       1.0  0.38302  0.41735  0.56919  1.0000
  S   S16       1.0  0.39226  0.42762  0.59831  1.0000
  S   S17       1.0  0.36194  0.39723  0.52036  1.0000
  S   S18       1.0  0.34113  0.41676  0.55993  1.0000
  C   C11       1.0  0.38361  0.40465  0.61493  1.0000
  C   C12       1.0  0.37223  0.38097  0.61007  1.0000
  C   C13       1.0  0.36377  0.36386  0.62361  1.0000
  C   C14       1.0  0.36683  0.37019  0.64207  1.0000
  C   C15       1.0  0.37897  0.39342  0.64693  1.0000
  C   C16       1.0  0.38721  0.41065  0.63339  1.0000
  H   H18       1.0  0.36946  0.37612  0.59588  1.0000
  H   H19       1.0  0.35464  0.34579  0.61976  1.0000
  H   H20       1.0  0.49046  0.22527  0.57293  1.0000
  H   H21       1.0  0.39609  0.42887  0.63724  1.0000
  C   C17       1.0  0.46335  0.37699  0.53295  1.0000
  H   H22       1.0  0.45672  0.31071  0.58136  1.0000
  C   C18       1.0  0.46207  0.38673  0.55077  1.0000
  S   S19       1.0  0.28257  0.19521  0.66539  1.0000
  H   H23       1.0  0.44637  0.40078  0.55475  1.0000
  H   H24       1.0  0.32560  0.30043  0.66589  1.0000
  C   C19       1.0  0.46874  0.12231  0.51900  1.0000
  C   C20       1.0  0.47420  0.19680  0.51566  1.0000
  C   C21       1.0  0.48154  0.37880  0.56345  1.0000
  H   H25       1.0  0.34351  0.10637  0.63770  1.0000
  C   C22       1.0  0.29441  0.14855  0.61232  1.0000
  C   C23       1.0  0.29774  0.17575  0.61287  1.0000
  C   C24       1.0  0.29312  0.18995  0.62911  1.0000
  C   C25       1.0  0.28630  0.17691  0.64505  1.0000
  C   C26       1.0  0.28324  0.14966  0.64457  1.0000
  C   C27       1.0  0.28683  0.13561  0.62816  1.0000
  H   H26       1.0  0.30306  0.18593  0.60064  1.0000
  H   H27       1.0  0.29481  0.21112  0.62932  1.0000
  H   H28       1.0  0.27766  0.13949  0.65674  1.0000
  H   H29       1.0  0.28401  0.11459  0.62775  1.0000
  C   C28       1.0  0.35080  0.25395  0.53876  1.0000
  C   C29       1.0  0.35903  0.27480  0.52791  1.0000
  C   C30       1.0  0.35368  0.30142  0.53300  1.0000
  C   C31       1.0  0.33944  0.30759  0.54885  1.0000
  C   C32       1.0  0.33119  0.28676  0.55973  1.0000
  C   C33       1.0  0.33709  0.26011  0.55485  1.0000
  H   H30       1.0  0.36952  0.27033  0.51540  1.0000
  H   H31       1.0  0.35991  0.31715  0.52437  1.0000
  H   H32       1.0  0.31999  0.29124  0.57195  1.0000
  H   H33       1.0  0.33047  0.24434  0.56329  1.0000
  C   C34       1.0  0.36477  0.05491  0.51282  1.0000
  C   C35       1.0  0.35049  0.04017  0.52509  1.0000
  C   C36       1.0  0.32620  0.02845  0.44920  1.0000
  C   C37       1.0  0.37473  0.04211  0.49701  1.0000
  H   H34       1.0  0.34257  0.04957  0.53728  1.0000
  H   H35       1.0  0.38557  0.05326  0.48729  1.0000
  C   C38       1.0  0.44627  0.00719  0.49180  1.0000
  C   C39       1.0  0.44942  0.12441  0.57642  1.0000
  C   C40       1.0  0.43918  0.10329  0.56685  1.0000
  C   C41       1.0  0.43369  0.01154  0.52309  1.0000
  H   H36       1.0  0.41818  0.10233  0.56477  1.0000
  N   N3        1.0  0.29133  0.39980  0.60091  1.0000
  C   C42       1.0  0.31277  0.41537  0.60887  1.0000
  C   C43       1.0  0.26796  0.40233  0.61296  1.0000
  C   C44       1.0  0.30103  0.37165  0.60076  1.0000
  C   C45       1.0  0.28382  0.40980  0.58263  1.0000
  C   C46       1.0  0.28088  0.39284  0.56734  1.0000
  C   C47       1.0  0.27888  0.43727  0.57971  1.0000
  C   C48       1.0  0.27530  0.40303  0.55005  1.0000
  C   C49       1.0  0.27346  0.44725  0.56234  1.0000
  C   C50       1.0  0.27202  0.43018  0.54751  1.0000
  H   H37       1.0  0.30620  0.43594  0.61238  1.0000
  H   H38       1.0  0.32071  0.40666  0.62176  1.0000
  H   H39       1.0  0.32972  0.41635  0.59932  1.0000
  H   H40       1.0  0.26047  0.42322  0.61438  1.0000
  H   H41       1.0  0.27270  0.39494  0.62688  1.0000
  H   H42       1.0  0.25143  0.39086  0.60749  1.0000
  H   H43       1.0  0.28530  0.35818  0.59669  1.0000
  H   H44       1.0  0.31809  0.36844  0.59130  1.0000
  H   H45       1.0  0.30786  0.36498  0.61445  1.0000
  H   H46       1.0  0.28376  0.37165  0.56814  1.0000
  H   H47       1.0  0.27975  0.45135  0.59074  1.0000
  H   H48       1.0  0.27437  0.38976  0.53847  1.0000
  H   H49       1.0  0.27100  0.46837  0.56024  1.0000
  H   H50       1.0  0.26871  0.43806  0.53398  1.0000
  H   H51       1.0  0.48060  0.38651  0.57720  1.0000
  H   H52       1.0  0.35368  0.24519  0.59646  1.0000
  H   H53       1.0  0.44795  0.06619  0.55330  1.0000
  H   H54       1.0  0.47350  0.42395  0.49220  1.0000
  C   C51       1.0  0.46198  0.13347  0.66056  1.0000
  C   C52       1.0  0.42037  0.19167  0.50908  1.0000
  H   H55       1.0  0.39933  0.18982  0.50669  1.0000
  H   H56       1.0  0.35855  0.29005  0.60922  1.0000
  C   C53       1.0  0.34888  0.25709  0.64917  1.0000
  H   H57       1.0  0.48788  0.03971  0.64215  1.0000
  C   C54       1.0  0.32220  0.05933  0.47444  1.0000
  C   C55       1.0  0.37033  0.01519  0.49344  1.0000
  H   H58       1.0  0.44205  0.03142  0.52426  1.0000
  H   H59       1.0  0.48182  0.15349  0.54727  1.0000
  C   C56       1.0  0.38874  0.16673  0.62892  1.0000
  H   H60       1.0  0.41340  0.20858  0.55278  1.0000
  H   H61       1.0  0.34511  0.06571  0.45055  1.0000
  H   H62       1.0  0.33280  0.12573  0.66552  1.0000
  H   H63       1.0  0.43324  0.00243  0.53679  1.0000
  H   H64       1.0  0.34548  0.20804  0.61687  1.0000
  C   C57       1.0  0.35359  0.27797  0.63699  1.0000
  H   H65       1.0  0.49281  0.14346  0.49012  1.0000
  H   H66       1.0  0.40124  0.32432  0.57040  1.0000
  C   C58       1.0  0.46440  0.17099  0.51515  1.0000
  H   H67       1.0  0.44176  0.14937  0.63711  1.0000
  H   H68       1.0  0.37142  0.11496  0.62463  1.0000
  C   C59       1.0  0.43699  0.16907  0.51134  1.0000
  H   H69       1.0  0.40231  0.10761  0.65013  1.0000
  H   H70       1.0  0.38147  0.39843  0.66113  1.0000
  C   C60       1.0  0.35619  0.12303  0.63431  1.0000
  H   H71       1.0  0.33490  0.00221  0.53111  1.0000
  C   C61       1.0  0.48338  0.08387  0.56274  1.0000
  C   C62       1.0  0.45609  0.08283  0.56029  1.0000
  H   H72       1.0  0.42488  0.22028  0.63781  1.0000
  H   H73       1.0  0.41077  0.29396  0.53404  1.0000
  C   C63       1.0  0.42157  0.24979  0.55518  1.0000
  C   C64       1.0  0.34646  0.14207  0.66357  1.0000
  C   C65       1.0  0.34605  0.23163  0.64137  1.0000
  C   C66       1.0  0.35264  0.24847  0.61103  1.0000
  C   C67       1.0  0.47114  0.23222  0.56803  1.0000
  N   N4        1.0  0.48243  0.14760  0.51836  1.0000
  C   C68       1.0  0.48903  0.09347  0.65547  1.0000
  H   H74       1.0  0.34175  0.21461  0.64941  1.0000
  H   H75       1.0  0.29911  0.04728  0.49704  1.0000
  C   C69       1.0  0.38573  0.11395  0.65930  1.0000
  H   H76       1.0  0.48472  0.14187  0.58630  1.0000
  H   H77       1.0  0.32747  0.07765  0.48094  1.0000
  C   C70       1.0  0.47939  0.11362  0.66701  1.0000
  H   H78       1.0  0.45331  0.12276  0.52978  1.0000
  C   C71       1.0  0.38366  0.15808  0.64688  1.0000
  H   H79       1.0  0.41261  0.01472  0.51900  1.0000
  H   H80       1.0  0.41729  0.23401  0.50868  1.0000
  H   H81       1.0  0.48029  0.27240  0.57062  1.0000
  C   C72       1.0  0.34803  0.22754  0.62257  1.0000
  C   C73       1.0  0.45251  0.21397  0.56326  1.0000
  H   H82       1.0  0.48274  0.10527  0.52216  1.0000
  C   C74       1.0  0.40721  0.30292  0.57009  1.0000
  N   N5        1.0  0.43184  0.29750  0.55950  1.0000
  C   C75       1.0  0.45212  0.31500  0.56685  1.0000
  C   C76       1.0  0.42690  0.30505  0.54031  1.0000
  H   H83       1.0  0.46733  0.08012  0.60082  1.0000
  C   C77       1.0  0.43967  0.26900  0.56046  1.0000
  H   H84       1.0  0.37763  0.00595  0.48103  1.0000
  H   H85       1.0  0.45710  0.19296  0.56461  1.0000
  C   C78       1.0  0.45741  0.21924  0.51332  1.0000
  C   C79       1.0  0.34613  0.01323  0.52153  1.0000
  C   C80       1.0  0.35540  0.27366  0.61823  1.0000
  H   H86       1.0  0.30484  0.27265  0.66677  1.0000
  H   H87       1.0  0.44531  0.33621  0.56623  1.0000
  H   H88       1.0  0.33486  0.02432  0.43605  1.0000
  H   H89       1.0  0.44494  0.30131  0.53189  1.0000
  H   H90       1.0  0.42097  0.32644  0.53902  1.0000
  H   H91       1.0  0.35549  0.29794  0.64189  1.0000
  C   C81       1.0  0.43048  0.21667  0.51020  1.0000
  C   C82       1.0  0.30617  0.04219  0.48350  1.0000
  C   C83       1.0  0.42783  0.22277  0.55674  1.0000
  H   H92       1.0  0.40227  0.25549  0.54988  1.0000
  H   H93       1.0  0.33453  0.15956  0.65863  1.0000
  H   H94       1.0  0.39001  0.29300  0.56425  1.0000
  H   H95       1.0  0.40970  0.29628  0.58440  1.0000
  H   H96       1.0  0.38184  0.15659  0.61697  1.0000
  C   C84       1.0  0.46497  0.25938  0.56667  1.0000
  C   C85       1.0  0.40346  0.18892  0.62581  1.0000
  C   C86       1.0  0.47674  0.12553  0.57889  1.0000
  H   H97       1.0  0.42773  0.15036  0.51026  1.0000
  C   C87       1.0  0.29990  0.01821  0.47546  1.0000
  C   C88       1.0  0.40911  0.19500  0.65810  1.0000
  H   H98       1.0  0.26693  0.00293  0.43778  1.0000
  H   H99       1.0  0.34325  0.13788  0.62707  1.0000
  C   C89       1.0  0.33225  0.05245  0.45737  1.0000
  C   C90       1.0  0.41348  0.20312  0.64035  1.0000
  C   C91       1.0  0.39454  0.17278  0.66135  1.0000
  C   C92       1.0  0.30971  0.01055  0.45805  1.0000
  H   H100      1.0  0.48099  0.44772  0.52038  1.0000
  N   N6        1.0  0.36824  0.13467  0.65078  1.0000
  C   C93       1.0  0.49375  0.10543  0.57178  1.0000
  H   H101      1.0  0.40727  0.19491  0.61195  1.0000
  C   C94       1.0  0.35603  0.00047  0.50571  1.0000
  H   H102      1.0  0.45935  0.11763  0.50575  1.0000
  H   H103      1.0  0.45351  0.99398  0.48056  1.0000
  C   C95       1.0  0.48400  0.35926  0.52783  1.0000
  H   H104      1.0  0.48480  0.35136  0.51413  1.0000
  C   C96       1.0  0.45438  0.13339  0.64237  1.0000
  S   S20       1.0  0.35395  0.34945  0.65866  1.0000
  H   H105      1.0  0.45754  0.02550  0.49135  1.0000
  C   C97       1.0  0.48111  0.09235  0.63694  1.0000
  H   H106      1.0  0.47078  0.31330  0.55886  1.0000
  H   H107      1.0  0.42533  0.01261  0.48837  1.0000
  H   H108      1.0  0.48168  0.04801  0.60140  1.0000
  H   H109      1.0  0.47627  0.00982  0.54148  1.0000
  H   H110      1.0  0.28755  0.00557  0.48316  1.0000
  C   C98       1.0  0.47336  0.06414  0.61035  1.0000
  C   C99       1.0  0.46380  0.11329  0.63067  1.0000
  H   H111      1.0  0.45524  0.05713  0.61694  1.0000
  H   H112      1.0  0.45804  0.11504  0.61658  1.0000
  N   N7        1.0  0.44881  0.99446  0.50988  1.0000
  C   C100      1.0  0.48798  0.99923  0.53133  1.0000
  H   H113      1.0  0.37463  0.09621  0.66281  1.0000
  H   H114      1.0  0.48520  0.45560  0.47261  1.0000
  H   H115      1.0  0.46530  0.23873  0.51399  1.0000
  H   H116      1.0  0.30975  0.99437  0.42153  1.0000
  H   H117      1.0  0.49280  0.39589  0.49923  1.0000
  N   N8        1.0  0.49289  0.07247  0.62414  1.0000
  Fe  Fe9       1.0  0.36912  0.35320  0.68750  1.0000
  S   S21       1.0  0.37117  0.38840  0.70621  1.0000
  H   H118      1.0  0.26775  0.18341  0.75703  1.0000
  Fe  Fe10      1.0  0.39283  0.31606  0.71564  1.0000
  S   S22       1.0  0.39636  0.34770  0.73667  1.0000
  S   S23       1.0  0.40809  0.27429  0.71945  1.0000
  Fe  Fe11      1.0  0.35498  0.36179  0.72783  1.0000
  S   S24       1.0  0.32498  0.37439  0.75046  1.0000
  Fe  Fe12      1.0  0.41204  0.37105  0.71354  1.0000
  S   S25       1.0  0.44990  0.39395  0.71462  1.0000
  S   S26       1.0  0.35072  0.32774  0.70850  1.0000
  S   S27       1.0  0.41065  0.33829  0.69314  1.0000
  Fe  Fe13      1.0  0.16854  0.37265  0.78808  1.0000
  S   S28       1.0  0.17995  0.36289  0.81694  1.0000
  S   S29       1.0  0.19891  0.36995  0.76447  1.0000
  Fe  Fe14      1.0  0.10719  0.37513  0.79787  1.0000
  S   S30       1.0  0.11600  0.36404  0.82677  1.0000
  S   S31       1.0  0.06438  0.38983  0.79147  1.0000
  Fe  Fe15      1.0  0.14797  0.39294  0.82544  1.0000
  S   S32       1.0  0.14513  0.42532  0.84679  1.0000
  Fe  Fe16      1.0  0.14656  0.33543  0.81528  1.0000
  S   S33       1.0  0.15182  0.29411  0.82566  1.0000
  S   S34       1.0  0.13875  0.40522  0.79668  1.0000
  S   S35       1.0  0.13560  0.34380  0.78625  1.0000
  Fe  Fe17      1.0  0.30229  0.18982  0.73081  1.0000
  S   S36       1.0  0.30637  0.14807  0.74018  1.0000
  S   S37       1.0  0.30794  0.22296  0.75038  1.0000
  Fe  Fe18      1.0  0.28726  0.17452  0.69239  1.0000
  S   S38       1.0  0.28935  0.13128  0.69924  1.0000
  C   C101      1.0  0.02319  0.23664  0.93572  1.0000
  Fe  Fe19      1.0  0.26762  0.14398  0.72523  1.0000
  S   S39       1.0  0.23451  0.12498  0.74144  1.0000
  Fe  Fe20      1.0  0.32762  0.14041  0.71363  1.0000
  S   S40       1.0  0.36691  0.11662  0.70938  1.0000
  S   S41       1.0  0.26316  0.18648  0.71702  1.0000
  S   S42       1.0  0.32597  0.18275  0.70549  1.0000
  Fe  Fe21      1.0  0.05065  0.19753  0.81317  1.0000
  S   S43       1.0  0.05115  0.18665  0.78381  1.0000
  S   S44       1.0  0.04253  0.24015  0.82038  1.0000
  Fe  Fe22      1.0  0.05665  0.14112  0.82475  1.0000
  S   S45       1.0  0.05763  0.12550  0.79574  1.0000
  S   S46       1.0  0.05241  0.11692  0.85031  1.0000
  Fe  Fe23      1.0  0.08558  0.15851  0.79048  1.0000
  S   S47       1.0  0.11893  0.16487  0.76965  1.0000
  Fe  Fe24      1.0  0.02344  0.15512  0.79113  1.0000
  C   C102      1.0  0.11154  0.28030  0.99272  1.0000
  S   S48       1.0  0.08659  0.17182  0.81984  1.0000
  S   S49       1.0  0.02089  0.16822  0.82014  1.0000
  Fe  Fe25      1.0  0.09703  0.14642  0.95077  1.0000
  S   S50       1.0  0.12509  0.14990  0.97447  1.0000
  S   S51       1.0  0.11504  0.14326  0.92268  1.0000
  Fe  Fe26      1.0  0.04965  0.15595  0.97476  1.0000
  H   H119      1.0  0.03341  0.43545  0.81556  1.0000
  Fe  Fe27      1.0  0.09900  0.18560  0.98226  1.0000
  C   C103      1.0  0.16896  0.45530  0.97633  1.0000
  Fe  Fe28      1.0  0.09705  0.12427  0.98963  1.0000
  S   S52       1.0  0.07281  0.18316  0.95790  1.0000
  S   S53       1.0  0.07111  0.11840  0.96529  1.0000
  Fe  Fe29      1.0  0.12191  0.41273  0.94836  1.0000
  S   S54       1.0  0.12112  0.39807  0.97711  1.0000
  S   S55       1.0  0.15763  0.40213  0.93110  1.0000
  Fe  Fe30      1.0  0.06523  0.43397  0.95005  1.0000
  S   S56       1.0  0.03211  0.45634  0.93600  1.0000
  Fe  Fe31      1.0  0.09923  0.43736  0.98330  1.0000
  H   H120      1.0  0.28023  0.35790  0.72746  1.0000
  Fe  Fe32      1.0  0.08167  0.38220  0.96946  1.0000
  S   S57       1.0  0.06582  0.34037  0.97011  1.0000
  S   S58       1.0  0.10358  0.45282  0.95505  1.0000
  S   S59       1.0  0.08374  0.39557  0.94047  1.0000
  C   C104      1.0  0.04534  0.13575  0.71751  1.0000
  H   H121      1.0  0.25355  0.15310  0.80162  1.0000
  H   H122      1.0  0.04070  0.47023  0.81593  1.0000
  H   H123      1.0  0.12269  0.33256  0.95297  1.0000
  H   H124      1.0  0.48022  0.21466  0.69119  1.0000
  C   C105      1.0  0.10241  0.25774  0.98389  1.0000
  C   C106      1.0  0.07581  0.41854  0.83429  1.0000
  S   S60       1.0  0.05956  0.41995  0.97848  1.0000
  C   C107      1.0  0.08210  0.30919  0.97466  1.0000
  C   C108      1.0  0.07359  0.28670  0.96546  1.0000
  C   C109      1.0  0.08403  0.26122  0.96976  1.0000
  H   H125      1.0  0.05874  0.28898  0.95498  1.0000
  H   H126      1.0  0.07736  0.24422  0.96243  1.0000
  C   C110      1.0  0.16554  0.04423  0.94517  1.0000
  C   C111      1.0  0.09402  0.04117  0.99779  1.0000
  H   H127      1.0  0.12360  0.35430  0.93443  1.0000
  H   H128      1.0  0.13173  0.15518  0.68807  1.0000
  H   H129      1.0  0.09838  0.46241  0.82304  1.0000
  C   C112      1.0  0.06863  0.12664  0.87044  1.0000
  C   C113      1.0  0.05781  0.12087  0.88747  1.0000
  C   C114      1.0  0.07120  0.12703  0.90367  1.0000
  C   C115      1.0  0.09594  0.13817  0.90290  1.0000
  C   C116      1.0  0.10665  0.14404  0.88590  1.0000
  C   C117      1.0  0.09289  0.13868  0.86976  1.0000
  H   H130      1.0  0.03905  0.11155  0.88810  1.0000
  H   H131      1.0  0.06270  0.12253  0.91668  1.0000
  H   H132      1.0  0.12580  0.15257  0.88519  1.0000
  H   H133      1.0  0.10153  0.14298  0.85675  1.0000
  H   H134      1.0  0.40232  0.40587  0.73675  1.0000
  C   C118      1.0  0.13679  0.11617  0.72525  1.0000
  H   H135      1.0  0.37320  0.29462  0.66999  1.0000
  C   C119      1.0  0.99711  0.35555  0.84388  1.0000
  H   H136      1.0  0.43344  0.18518  0.71264  1.0000
  C   C120      1.0  0.39955  0.12867  0.71019  1.0000
  C   C121      1.0  0.40418  0.15560  0.71174  1.0000
  C   C122      1.0  0.42149  0.11068  0.70850  1.0000
  H   H137      1.0  0.38763  0.16974  0.71314  1.0000
  H   H138      1.0  0.41826  0.08979  0.70744  1.0000
  C   C123      1.0  0.20233  0.13651  0.74900  1.0000
  C   C124      1.0  0.18949  0.12224  0.76249  1.0000
  C   C125      1.0  0.16425  0.13068  0.76915  1.0000
  C   C126      1.0  0.15121  0.15345  0.76225  1.0000
  C   C127      1.0  0.16398  0.16768  0.74870  1.0000
  C   C128      1.0  0.18933  0.15938  0.74216  1.0000
  H   H139      1.0  0.19919  0.10448  0.76788  1.0000
  H   H140      1.0  0.15481  0.11940  0.77951  1.0000
  H   H141      1.0  0.15408  0.18517  0.74310  1.0000
  H   H142      1.0  0.19866  0.17049  0.73167  1.0000
  C   C129      1.0  0.15350  0.40804  0.90764  1.0000
  C   C130      1.0  0.16777  0.39227  0.89495  1.0000
  C   C131      1.0  0.16451  0.39663  0.87618  1.0000
  C   C132      1.0  0.14801  0.41766  0.87008  1.0000
  C   C133      1.0  0.13433  0.43383  0.88282  1.0000
  C   C134      1.0  0.13646  0.42859  0.90150  1.0000
  H   H143      1.0  0.18120  0.37650  0.89960  1.0000
  H   H144      1.0  0.17547  0.38433  0.86647  1.0000
  H   H145      1.0  0.12225  0.45064  0.87825  1.0000
  H   H146      1.0  0.12562  0.44104  0.91118  1.0000
  C   C135      1.0  0.12108  0.27967  0.82510  1.0000
  C   C136      1.0  0.09911  0.29322  0.81741  1.0000
  C   C137      1.0  0.07470  0.28133  0.81656  1.0000
  C   C138      1.0  0.07242  0.25569  0.82303  1.0000
  C   C139      1.0  0.09420  0.24240  0.83113  1.0000
  C   C140      1.0  0.11847  0.25451  0.83234  1.0000
  H   H147      1.0  0.10092  0.31266  0.81179  1.0000
  H   H148      1.0  0.05784  0.29158  0.81032  1.0000
  H   H149      1.0  0.09226  0.22291  0.83666  1.0000
  H   H150      1.0  0.13516  0.24429  0.83883  1.0000
  C   C141      1.0  0.03363  0.37411  0.79336  1.0000
  H   H151      1.0  0.07857  0.44007  0.87037  1.0000
  H   H152      1.0  0.07809  0.00309  0.95158  1.0000
  H   H153      1.0  0.18483  0.32024  0.75259  1.0000
  C   C142      1.0  0.00413  0.38721  0.86800  1.0000
  C   C143      1.0  0.38282  0.25907  0.73082  1.0000
  C   C144      1.0  0.36359  0.27464  0.74002  1.0000
  C   C145      1.0  0.34139  0.26310  0.74718  1.0000
  C   C146      1.0  0.33815  0.23613  0.74484  1.0000
  C   C147      1.0  0.35814  0.22028  0.73659  1.0000
  C   C148      1.0  0.38056  0.23177  0.72955  1.0000
  H   H154      1.0  0.36558  0.29569  0.74141  1.0000
  H   H155      1.0  0.32631  0.27520  0.75392  1.0000
  H   H156      1.0  0.35627  0.19919  0.73556  1.0000
  H   H157      1.0  0.39563  0.21964  0.72269  1.0000
  H   H158      1.0  0.09861  0.46141  0.84710  1.0000
  C   C149      1.0  0.03126  0.07774  0.99492  1.0000
  H   H159      1.0  0.38449  0.43635  0.74197  1.0000
  H   H160      1.0  0.46762  0.34330  0.73035  1.0000
  C   C150      1.0  0.06148  0.17230  0.73482  1.0000
  C   C151      1.0  0.28983  0.37269  0.75401  1.0000
  C   C152      1.0  0.27898  0.38050  0.77098  1.0000
  C   C153      1.0  0.25148  0.37962  0.77451  1.0000
  C   C154      1.0  0.23412  0.37109  0.76105  1.0000
  C   C155      1.0  0.24496  0.36332  0.74407  1.0000
  C   C156      1.0  0.27249  0.36398  0.74059  1.0000
  H   H161      1.0  0.29196  0.38735  0.78152  1.0000
  H   H162      1.0  0.24370  0.38581  0.78761  1.0000
  H   H163      1.0  0.23193  0.35671  0.73347  1.0000
  C   C157      1.0  0.48183  0.37849  0.71839  1.0000
  N   N9        1.0  0.19751  0.28434  0.76605  1.0000
  C   C158      1.0  0.19496  0.25551  0.76342  1.0000
  C   C159      1.0  0.18424  0.29183  0.78343  1.0000
  C   C160      1.0  0.22570  0.29100  0.76562  1.0000
  C   C161      1.0  0.23740  0.30686  0.77920  1.0000
  C   C162      1.0  0.26374  0.31372  0.77794  1.0000
  H   H164      1.0  0.16163  0.29464  0.75124  1.0000
  H   H165      1.0  0.20773  0.24422  0.77319  1.0000
  H   H166      1.0  0.20046  0.24873  0.74950  1.0000
  H   H167      1.0  0.17425  0.24960  0.76551  1.0000
  H   H168      1.0  0.18369  0.31356  0.78565  1.0000
  H   H169      1.0  0.16326  0.28609  0.78376  1.0000
  H   H170      1.0  0.19437  0.28224  0.79526  1.0000
  H   H171      1.0  0.22648  0.31505  0.79065  1.0000
  H   H172      1.0  0.27202  0.32654  0.78811  1.0000
  N   N10       1.0  0.25212  0.18697  0.78406  1.0000
  C   C163      1.0  0.27737  0.19753  0.79060  1.0000
  C   C164      1.0  0.25377  0.15795  0.78690  1.0000
  C   C165      1.0  0.22835  0.19896  0.79314  1.0000
  C   C166      1.0  0.20291  0.18992  0.78891  1.0000
  C   C167      1.0  0.22939  0.22048  0.80561  1.0000
  C   C168      1.0  0.17995  0.20174  0.79646  1.0000
  C   C169      1.0  0.20625  0.23213  0.81316  1.0000
  C   C170      1.0  0.18163  0.22290  0.80848  1.0000
  H   H173      1.0  0.27850  0.21896  0.78759  1.0000
  H   H174      1.0  0.29480  0.18784  0.78356  1.0000
  H   H175      1.0  0.28025  0.19425  0.80542  1.0000
  H   H176      1.0  0.23727  0.14781  0.78026  1.0000
  H   H177      1.0  0.27209  0.14856  0.78084  1.0000
  H   H178      1.0  0.20054  0.17373  0.77957  1.0000
  H   H179      1.0  0.24777  0.22880  0.80965  1.0000
  H   H180      1.0  0.16072  0.19442  0.79296  1.0000
  H   H181      1.0  0.20727  0.24855  0.82265  1.0000
  H   H182      1.0  0.16377  0.23217  0.81418  1.0000
  C   C171      1.0  0.18311  0.29850  0.75120  1.0000
  H   H183      1.0  0.23454  0.27097  0.73979  1.0000
  H   H184      1.0  0.19103  0.29286  0.73758  1.0000
  C   C172      1.0  0.01954  0.45725  0.84998  1.0000
  C   C173      1.0  0.25022  0.19211  0.76430  1.0000
  H   H185      1.0  0.34161  0.24301  0.69477  1.0000
  H   H186      1.0  0.24929  0.21366  0.76141  1.0000
  C   C174      1.0  0.24208  0.28254  0.75085  1.0000
  H   H187      1.0  0.03194  0.33331  0.83461  1.0000
  C   C175      1.0  0.16671  0.47897  0.94822  1.0000
  C   C176      1.0  0.27911  0.30538  0.76318  1.0000
  H   H188      1.0  0.23275  0.18330  0.75797  1.0000
  C   C177      1.0  0.00960  0.43299  0.92964  1.0000
  H   H189      1.0  0.29914  0.31183  0.76195  1.0000
  H   H190      1.0  0.39458  0.12080  0.67223  1.0000
  C   C178      1.0  0.26842  0.28956  0.74975  1.0000
  C   C179      1.0  0.10131  0.06934  0.93273  1.0000
  C   C180      1.0  0.34278  0.23838  0.67993  1.0000
  C   C181      1.0  0.01536  0.26347  0.93689  1.0000
  C   C182      1.0  0.43030  0.16432  0.71146  1.0000
  H   H191      1.0  0.07701  0.17912  0.74430  1.0000
  H   H192      1.0  0.03988  0.13429  0.75342  1.0000
  H   H193      1.0  0.06420  0.07141  0.91824  1.0000
  C   C183      1.0  0.38058  0.40699  0.77057  1.0000
  H   H194      1.0  0.09776  0.33112  0.93560  1.0000
  H   H195      1.0  0.02793  0.27708  0.93030  1.0000
  H   H196      1.0  0.37660  0.38839  0.76316  1.0000
  H   H197      1.0  0.38868  0.26218  0.67267  1.0000
  H   H198      1.0  0.28055  0.28302  0.73831  1.0000
  C   C184      1.0  0.03113  0.37978  0.86804  1.0000
  C   C185      1.0  0.10921  0.03070  0.95150  1.0000
  H   H199      1.0  0.32027  0.28470  0.68706  1.0000
  C   C186      1.0  0.12590  0.14546  0.70041  1.0000
  H   H200      1.0  0.14295  0.04839  0.97802  1.0000
  H   H201      1.0  0.02485  0.13879  0.72292  1.0000
  H   H202      1.0  0.00934  0.46035  0.83722  1.0000
  H   H203      1.0  0.03695  0.03723  0.98663  1.0000
  H   H204      1.0  0.16496  0.04056  0.93023  1.0000
  H   H205      1.0  0.17978  0.45113  0.98926  1.0000
  C   C187      1.0  0.04280  0.45040  0.88423  1.0000
  C   C188      1.0  0.10165  0.30590  0.98804  1.0000
  H   H206      1.0  0.02264  0.12860  0.94956  1.0000
  C   C189      1.0  0.04931  0.44974  0.81719  1.0000
  H   H207      1.0  0.04117  0.23042  0.92855  1.0000
  H   H208      1.0  0.03899  0.40727  0.91662  1.0000
  H   H209      1.0  0.02216  0.21513  0.98286  1.0000
  H   H210      1.0  0.16358  0.02496  0.95203  1.0000
  C   C190      1.0  0.11833  0.05490  0.94491  1.0000
  H   H211      1.0  0.18560  0.05088  0.94868  1.0000
  H   H212      1.0  0.16395  0.07534  0.97556  1.0000
  H   H213      1.0  0.15138  0.08892  0.92751  1.0000
  C   C191      1.0  0.07676  0.06008  0.92763  1.0000
  H   H214      1.0  0.15123  0.10352  0.73238  1.0000
  C   C192      1.0  0.42929  0.39998  0.76740  1.0000
  N   N11       1.0  0.14449  0.06402  0.95065  1.0000
  C   C193      1.0  0.11921  0.33375  0.93804  1.0000
  H   H215      1.0  0.99680  0.10316  0.92763  1.0000
  H   H216      1.0  0.41724  0.20578  0.66943  1.0000
  C   C194      1.0  0.15103  0.08972  0.94264  1.0000
  H   H217      1.0  0.14667  0.27234  0.93096  1.0000
  H   H218      1.0  0.17077  0.09611  0.94712  1.0000
  C   C195      1.0  0.09236  0.13792  0.72369  1.0000
  C   C196      1.0  0.14509  0.06726  0.97069  1.0000
  H   H219      1.0  0.06205  0.35475  0.85603  1.0000
  H   H220      1.0  0.00772  0.23309  0.78849  1.0000
  H   H221      1.0  0.10643  0.08788  0.92688  1.0000
  H   H222      1.0  0.39144  0.45676  0.77337  1.0000
  H   H223      1.0  0.04192  0.17715  0.74125  1.0000
  H   H224      1.0  0.04606  0.14734  0.70478  1.0000
  H   H225      1.0  0.49252  0.35297  0.77356  1.0000
  H   H226      1.0  0.04833  0.11449  0.71379  1.0000
  H   H227      1.0  0.13652  0.10570  0.94691  1.0000
  C   C197      1.0  0.13276  0.28791  0.93664  1.0000
  C   C198      1.0  0.00149  0.13158  0.94918  1.0000
  H   H228      1.0  0.12878  0.08118  0.97530  1.0000
  H   H229      1.0  0.17046  0.32042  0.94413  1.0000
  H   H230      1.0  0.13702  0.28868  0.95151  1.0000
  C   C199      1.0  0.00123  0.31880  0.93979  1.0000
  C   C200      1.0  0.00755  0.33506  0.79584  1.0000
  C   C201      1.0  0.06839  0.03632  0.93443  1.0000
  H   H231      1.0  0.11215  0.28139  0.93521  1.0000
  N   N12       1.0  0.13585  0.31387  0.92782  1.0000
  N   N13       1.0  0.06540  0.14360  0.73099  1.0000
  H   H232      1.0  0.08853  0.41407  0.84630  1.0000
  C   C202      1.0  0.01306  0.09875  0.99777  1.0000
  H   H233      1.0  0.17716  0.30665  0.92186  1.0000
  C   C203      1.0  0.45229  0.14632  0.70978  1.0000
  C   C204      1.0  0.06020  0.12946  0.74812  1.0000
  C   C205      1.0  0.16389  0.32071  0.92966  1.0000
  H   H234      1.0  0.06192  0.10766  0.74623  1.0000
  H   H235      1.0  0.00699  0.31388  0.79695  1.0000
  H   H236      1.0  0.16402  0.12544  0.70416  1.0000
  C   C206      1.0  0.11139  0.12068  0.73241  1.0000
  H   H237      1.0  0.12441  0.27141  0.90437  1.0000
  C   C207      1.0  0.02258  0.05331  0.98933  1.0000
  H   H238      1.0  0.07416  0.13513  0.75900  1.0000
  C   C208      1.0  0.08458  0.02164  0.94634  1.0000
  H   H239      1.0  0.08708  0.16342  0.70004  1.0000
  H   H240      1.0  0.38061  0.40300  0.78541  1.0000
  H   H241      1.0  0.16724  0.34090  0.92451  1.0000
  C   C209      1.0  0.12373  0.29071  0.89824  1.0000
  H   H242      1.0  0.10752  0.11102  0.74509  1.0000
  H   H243      1.0  0.05217  0.08070  0.99675  1.0000
  C   C210      1.0  0.02414  0.34840  0.84396  1.0000
  H   H244      1.0  0.04936  0.02925  0.93036  1.0000
  H   H245      1.0  0.13122  0.35665  0.90511  1.0000
  H   H246      1.0  0.47194  0.27284  0.72042  1.0000
  C   C211      1.0  0.10039  0.15004  0.70739  1.0000
  C   C212      1.0  0.45051  0.35815  0.77791  1.0000
  C   C213      1.0  0.40293  0.42427  0.74494  1.0000
  H   H247      1.0  0.16969  0.43643  0.96844  1.0000
  H   H248      1.0  0.11388  0.31601  0.85587  1.0000
  H   H249      1.0  0.08534  0.00198  0.98836  1.0000
  C   C214      1.0  0.12206  0.33881  0.87983  1.0000
  S   S61       1.0  0.11318  0.22579  0.99175  1.0000
  C   C215      1.0  0.00454  0.46164  0.86578  1.0000
  N   N14       1.0  0.06378  0.44573  0.83463  1.0000
  H   H250      1.0  0.39198  0.16698  0.67532  1.0000
  H   H251      1.0  0.36998  0.27758  0.69077  1.0000
  H   H252      1.0  0.41965  0.43531  0.73957  1.0000
  C   C216      1.0  0.00537  0.47999  0.99543  1.0000
  S   S62       1.0  0.00624  0.16449  0.97844  1.0000
  C   C217      1.0  0.00780  0.21765  0.94347  1.0000
  H   H253      1.0  0.14784  0.46004  0.97968  1.0000
  C   C218      1.0  0.12850  0.31411  0.90829  1.0000
  C   C219      1.0  0.14409  0.12863  0.70937  1.0000
  C   C220      1.0  0.04112  0.36048  0.85601  1.0000
  H   H254      1.0  0.05044  0.33463  0.79592  1.0000
  H   H255      1.0  0.11496  0.27356  0.87204  1.0000
  C   C221      1.0  0.12740  0.33816  0.89848  1.0000
  C   C222      1.0  0.11826  0.29161  0.87958  1.0000
  H   H256      1.0  0.36313  0.42063  0.76781  1.0000
  H   H257      1.0  0.35952  0.22360  0.67818  1.0000
  C   C223      1.0  0.11755  0.31556  0.87039  1.0000
  C   C224      1.0  0.08531  0.46461  0.83518  1.0000
  H   H258      1.0  0.45734  0.42597  0.75506  1.0000
  H   H259      1.0  0.08860  0.05059  0.98510  1.0000
  C   C225      1.0  0.47718  0.39070  0.76419  1.0000
  H   H260      1.0  0.02057  0.31759  0.94707  1.0000
  H   H261      1.0  0.12199  0.35738  0.87259  1.0000
  N   N15       1.0  0.40577  0.41805  0.76454  1.0000
  H   H262      1.0  0.46886  0.21357  0.72262  1.0000
  H   H263      1.0  0.45846  0.25357  0.70288  1.0000
  H   H264      1.0  0.07723  0.48538  0.83579  1.0000
  C   C226      1.0  0.44763  0.11936  0.70848  1.0000
  H   H265      1.0  0.05182  0.44806  0.89757  1.0000
  H   H266      1.0  0.04798  0.47731  0.99491  1.0000
  C   C227      1.0  0.20880  0.46978  0.96291  1.0000
  H   H267      1.0  0.12099  0.01866  0.96085  1.0000
  H   H268      1.0  0.46414  0.10507  0.70778  1.0000
  C   C228      1.0  0.04690  0.44949  0.85094  1.0000
  H   H269      1.0  0.08891  0.41541  0.82226  1.0000
  C   C229      1.0  0.47508  0.36609  0.77217  1.0000
  C   C230      1.0  0.40911  0.44296  0.77477  1.0000
  C   C231      1.0  0.42787  0.37478  0.77566  1.0000
  C   C232      1.0  0.47739  0.26122  0.70801  1.0000
  H   H270      1.0  0.41223  0.43901  0.78951  1.0000
  H   H271      1.0  0.10831  0.32294  0.99536  1.0000
  S   S63       1.0  0.48484  0.15882  0.70944  1.0000
  C   C233      1.0  0.03233  0.34679  0.79532  1.0000
  H   H272      1.0  0.42635  0.45371  0.76990  1.0000
  C   C234      1.0  0.01616  0.45828  0.88285  1.0000
  C   C235      1.0  0.00975  0.38952  0.79230  1.0000
  H   H273      1.0  0.04432  0.38895  0.87758  1.0000
  C   C236      1.0  0.05796  0.44599  0.86857  1.0000
  H   H274      1.0  0.40946  0.36718  0.78020  1.0000
  C   C237      1.0  0.45471  0.40743  0.76182  1.0000
  H   H275      1.0  0.06043  0.40359  0.83345  1.0000
  H   H276      1.0  0.16529  0.45927  0.94154  1.0000
  C   C238      1.0  0.01847  0.41000  0.92049  1.0000
  H   H277      1.0  0.21133  0.45032  0.95582  1.0000
  H   H278      1.0  0.06235  0.18443  0.72236  1.0000
  H   H279      1.0  0.06262  0.44624  0.80525  1.0000
  H   H280      1.0  0.44891  0.33882  0.78390  1.0000
  H   H281      1.0  0.14626  0.48774  0.94982  1.0000
  C   C239      1.0  0.00078  0.39045  0.91637  1.0000
  C   C240      1.0  0.03416  0.23108  0.98830  1.0000
  H   H282      1.0  0.01041  0.41060  0.79043  1.0000
  H   H283      1.0  0.99560  0.30267  0.97512  1.0000
  H   H284      1.0  0.03196  0.24785  0.97867  1.0000
  C   C241      1.0  0.48493  0.35375  0.72663  1.0000
  H   H285      1.0  0.21990  0.46841  0.97599  1.0000
  H   H286      1.0  0.01377  0.19685  0.94238  1.0000
  H   H287      1.0  0.35376  0.14686  0.67738  1.0000
  H   H288      1.0  0.48328  0.23432  0.73913  1.0000
  C   C242      1.0  0.37062  0.27471  0.67578  1.0000
  H   H289      1.0  0.00463  0.46197  0.89510  1.0000
  H   H290      1.0  0.00772  0.37255  0.90947  1.0000
  H   H291      1.0  0.05506  0.22320  0.98797  1.0000
  H   H292      1.0  0.48639  0.11441  0.68092  1.0000
  H   H293      1.0  0.99772  0.40209  0.87779  1.0000
  H   H294      1.0  0.99697  0.27068  0.80755  1.0000
  C   C243      1.0  0.32331  0.28084  0.67228  1.0000
  H   H295      1.0  0.32395  0.22903  0.67639  1.0000
  H   H296      1.0  0.00448  0.31555  0.92499  1.0000
  H   H297      1.0  0.48467  0.27517  0.69776  1.0000
  H   H298      1.0  0.21853  0.48447  0.95435  1.0000
  H   H299      1.0  0.00346  0.47119  0.98201  1.0000
  C   C244      1.0  0.48757  0.22289  0.72648  1.0000
  C   C245      1.0  0.09215  0.01355  0.99969  1.0000
  H   H300      1.0  0.45509  0.14930  0.66959  1.0000
  S   S64       1.0  0.07393  0.16058  0.99983  1.0000
  N   N16       1.0  0.18049  0.47712  0.96607  1.0000
  C   C246      1.0  0.99554  0.04970  0.98694  1.0000
  N   N17       1.0  0.34645  0.26241  0.66894  1.0000
  H   H301      1.0  0.17702  0.49129  0.93832  1.0000
  Fe  Fe33      1.0  0.39979  0.85462  0.32027  1.0000
  S   S65       1.0  0.39675  0.89195  0.30377  1.0000
  Fe  Fe34      1.0  0.41379  0.82126  0.28676  1.0000
  S   S66       1.0  0.41221  0.85570  0.26806  1.0000
  H   H302      1.0  0.14562  0.77238  0.02315  1.0000
  Fe  Fe35      1.0  0.43443  0.87594  0.29024  1.0000
  S   S67       1.0  0.47216  0.89853  0.28731  1.0000
  Fe  Fe36      1.0  0.37441  0.86774  0.28302  1.0000
  S   S68       1.0  0.33927  0.88068  0.26439  1.0000
  S   S69       1.0  0.43828  0.84031  0.30779  1.0000
  S   S70       1.0  0.37528  0.83170  0.30077  1.0000
  Fe  Fe37      1.0  0.16073  0.88429  0.19397  1.0000
  S   S71       1.0  0.15158  0.88415  0.22391  1.0000
  S   S72       1.0  0.15280  0.92103  0.17760  1.0000
  Fe  Fe38      1.0  0.17071  0.82533  0.19222  1.0000
  S   S73       1.0  0.16305  0.82124  0.22185  1.0000
  S   S74       1.0  0.17739  0.78695  0.17706  1.0000
  Fe  Fe39      1.0  0.12773  0.84898  0.21701  1.0000
  S   S75       1.0  0.08804  0.83366  0.22574  1.0000
  Fe  Fe40      1.0  0.18805  0.85645  0.22573  1.0000
  S   S76       1.0  0.21721  0.85659  0.24997  1.0000
  S   S77       1.0  0.13464  0.85149  0.18709  1.0000
  S   S78       1.0  0.19823  0.85855  0.19598  1.0000
  C   C247      1.0  0.07729  0.66241  0.11457  1.0000
  S   S79       1.0  0.31916  0.62305  0.30830  1.0000
  Fe  Fe41      1.0  0.31762  0.69632  0.29635  1.0000
  S   S80       1.0  0.33199  0.66511  0.27672  1.0000
  S   S81       1.0  0.31370  0.73856  0.28852  1.0000
  Fe  Fe42      1.0  0.29572  0.64449  0.28595  1.0000
  S   S82       1.0  0.26798  0.63087  0.26320  1.0000
  Fe  Fe43      1.0  0.35398  0.64755  0.30090  1.0000
  S   S83       1.0  0.39657  0.63129  0.30561  1.0000
  S   S84       1.0  0.28097  0.67696  0.30457  1.0000
  H   H303      1.0  0.47551  0.77513  0.25518  1.0000
  Fe  Fe44      1.0  0.08190  0.68299  0.19991  1.0000
  S   S85       1.0  0.07477  0.67653  0.22959  1.0000
  S   S86       1.0  0.07473  0.72256  0.18725  1.0000
  Fe  Fe45      1.0  0.09635  0.62621  0.19248  1.0000
  S   S87       1.0  0.09066  0.61487  0.22162  1.0000
  S   S88       1.0  0.10451  0.59578  0.17057  1.0000
  Fe  Fe46      1.0  0.05324  0.64100  0.22017  1.0000
  S   S89       1.0  0.01424  0.62493  0.22987  1.0000
  Fe  Fe47      1.0  0.11293  0.65135  0.22830  1.0000
  S   S90       1.0  0.14357  0.65597  0.25121  1.0000
  S   S91       1.0  0.05790  0.64957  0.19061  1.0000
  S   S92       1.0  0.12110  0.66069  0.19910  1.0000
  Fe  Fe48      1.0  0.07005  0.92414  0.07514  1.0000
  S   S93       1.0  0.06589  0.91193  0.04608  1.0000
  S   S94       1.0  0.03208  0.93662  0.08913  1.0000
  Fe  Fe49      1.0  0.12892  0.91236  0.07480  1.0000
  S   S95       1.0  0.12898  0.89991  0.04527  1.0000
  S   S96       1.0  0.16458  0.90364  0.09256  1.0000
  Fe  Fe50      1.0  0.10138  0.93637  0.04141  1.0000
  H   H304      1.0  0.14458  0.53986  0.21969  1.0000
  Fe  Fe51      1.0  0.09333  0.87718  0.05286  1.0000
  S   S97       1.0  0.07844  0.83541  0.04946  1.0000
  S   S98       1.0  0.10410  0.94999  0.07051  1.0000
  S   S99       1.0  0.09499  0.88826  0.08236  1.0000
  Fe  Fe52      1.0  0.12554  0.64132  0.07283  1.0000
  S   S100      1.0  0.14006  0.64344  0.04396  1.0000
  S   S101      1.0  0.15217  0.63753  0.09734  1.0000
  Fe  Fe53      1.0  0.06988  0.65701  0.06241  1.0000
  S   S102      1.0  0.07954  0.66047  0.03295  1.0000
  S   S103      1.0  0.02950  0.66987  0.07205  1.0000
  Fe  Fe54      1.0  0.10315  0.62183  0.03682  1.0000
  H   H305      1.0  0.21773  0.55255  0.20781  1.0000
  Fe  Fe55      1.0  0.11499  0.68154  0.04269  1.0000
  S   S104      1.0  0.12882  0.72043  0.03150  1.0000
  S   S105      1.0  0.09052  0.61729  0.06596  1.0000
  S   S106      1.0  0.10344  0.68055  0.07180  1.0000
  H   H306      1.0  0.17782  0.53921  0.19415  1.0000
  H   H307      1.0  0.06787  0.66384  0.10097  1.0000
  H   H308      1.0  0.23251  0.92376  0.26474  1.0000
  H   H309      1.0  0.03893  0.61621  0.08503  1.0000
  H   H310      1.0  0.12490  0.56198  0.20546  1.0000
  C   C248      1.0  0.01855  0.61893  0.08073  1.0000
  C   C249      1.0  0.10577  0.53993  0.02794  1.0000
  H   H311      1.0  0.10912  0.54914  0.04100  1.0000
  H   H312      1.0  0.01802  0.61676  0.15685  1.0000
  H   H313      1.0  0.09936  0.78121  0.24864  1.0000
  H   H314      1.0  0.00243  0.82493  0.00305  1.0000
  H   H315      1.0  0.04106  0.88139  0.08255  1.0000
  N   N18       1.0  0.21692  0.93890  0.22920  1.0000
  C   C250      1.0  0.09469  0.80394  0.04601  1.0000
  C   C251      1.0  0.11779  0.80053  0.03571  1.0000
  C   C252      1.0  0.12823  0.77486  0.03163  1.0000
  C   C253      1.0  0.11602  0.75236  0.03805  1.0000
  H   H316      1.0  0.40908  0.72652  0.28008  1.0000
  H   H317      1.0  0.19462  0.94753  0.25364  1.0000
  H   H318      1.0  0.99892  0.62726  0.18710  1.0000
  H   H319      1.0  0.12701  0.81758  0.03025  1.0000
  C   C254      1.0  0.07512  0.67380  0.14614  1.0000
  C   C255      1.0  0.03606  0.67878  0.12766  1.0000
  H   H320      1.0  0.14382  0.60450  0.19571  1.0000
  H   H321      1.0  0.16142  0.58996  0.24574  1.0000
  C   C256      1.0  0.01039  0.91224  0.08282  1.0000
  C   C257      1.0  0.11687  0.60823  0.15019  1.0000
  C   C258      1.0  0.11035  0.59644  0.13359  1.0000
  C   C259      1.0  0.12058  0.60574  0.11722  1.0000
  C   C260      1.0  0.13802  0.62633  0.11749  1.0000
  C   C261      1.0  0.14458  0.63805  0.13411  1.0000
  C   C262      1.0  0.13373  0.62929  0.15040  1.0000
  H   H322      1.0  0.09742  0.58005  0.13337  1.0000
  H   H323      1.0  0.11561  0.59649  0.10445  1.0000
  H   H324      1.0  0.15812  0.65394  0.13435  1.0000
  H   H325      1.0  0.13908  0.63832  0.16314  1.0000
  C   C263      1.0  0.01076  0.50242  0.02997  1.0000
  H   H326      1.0  0.31466  0.93580  0.25922  1.0000
  C   C264      1.0  0.29121  0.94458  0.23538  1.0000
  H   H327      1.0  0.46830  0.74152  0.27549  1.0000
  H   H328      1.0  0.01256  0.84736  0.07092  1.0000
  C   C265      1.0  0.42814  0.64419  0.30112  1.0000
  C   C266      1.0  0.43115  0.66646  0.29032  1.0000
  C   C267      1.0  0.45102  0.63108  0.30828  1.0000
  H   H329      1.0  0.41384  0.67657  0.28453  1.0000
  H   H330      1.0  0.44899  0.61376  0.31657  1.0000
  C   C268      1.0  0.23388  0.64051  0.25977  1.0000
  C   C269      1.0  0.21750  0.64962  0.27400  1.0000
  C   C270      1.0  0.19011  0.65470  0.27101  1.0000
  C   C271      1.0  0.17869  0.65120  0.25373  1.0000
  C   C272      1.0  0.19536  0.64366  0.23928  1.0000
  C   C273      1.0  0.22262  0.63788  0.24235  1.0000
  H   H331      1.0  0.22570  0.65173  0.28750  1.0000
  H   H332      1.0  0.17757  0.66076  0.28232  1.0000
  H   H333      1.0  0.18722  0.64172  0.22582  1.0000
  H   H334      1.0  0.23500  0.63088  0.23120  1.0000
  C   C274      1.0  0.15488  0.91509  0.15401  1.0000
  C   C275      1.0  0.17344  0.89638  0.14707  1.0000
  C   C276      1.0  0.17632  0.89313  0.12820  1.0000
  C   C277      1.0  0.15992  0.90774  0.11617  1.0000
  C   C278      1.0  0.14050  0.92557  0.12312  1.0000
  C   C279      1.0  0.13836  0.92963  0.14201  1.0000
  H   H335      1.0  0.18634  0.88517  0.15622  1.0000
  H   H336      1.0  0.19154  0.87951  0.12295  1.0000
  H   H337      1.0  0.12786  0.93700  0.11392  1.0000
  H   H338      1.0  0.12405  0.94420  0.14731  1.0000
  C   C280      1.0  0.14921  0.76841  0.17985  1.0000
  C   C281      1.0  0.12619  0.78039  0.18721  1.0000
  C   C282      1.0  0.10330  0.76632  0.18891  1.0000
  C   C283      1.0  0.10358  0.73967  0.18416  1.0000
  C   C284      1.0  0.12677  0.72716  0.17727  1.0000
  C   C285      1.0  0.14949  0.74168  0.17483  1.0000
  H   H339      1.0  0.12581  0.80053  0.19172  1.0000
  H   H340      1.0  0.08551  0.77604  0.19440  1.0000
  H   H341      1.0  0.12703  0.70653  0.17346  1.0000
  H   H342      1.0  0.16729  0.73220  0.16925  1.0000
  C   C286      1.0  0.39456  0.76614  0.27420  1.0000
  C   C287      1.0  0.37215  0.78279  0.27139  1.0000
  C   C288      1.0  0.34698  0.77380  0.27480  1.0000
  C   C289      1.0  0.34428  0.74792  0.28054  1.0000
  C   C290      1.0  0.36647  0.73035  0.28133  1.0000
  C   C291      1.0  0.00310  0.59209  0.00567  1.0000
  H   H343      1.0  0.37428  0.80311  0.26748  1.0000
  H   H344      1.0  0.45868  0.69155  0.27737  1.0000
  H   H345      1.0  0.00926  0.98931  0.07311  1.0000
  C   C292      1.0  0.06453  0.71843  0.10513  1.0000
  C   C293      1.0  0.30650  0.86990  0.26012  1.0000
  C   C294      1.0  0.29014  0.86143  0.27404  1.0000
  C   C295      1.0  0.26312  0.85711  0.27057  1.0000
  C   C296      1.0  0.25201  0.86070  0.25310  1.0000
  C   C297      1.0  0.26863  0.86807  0.23902  1.0000
  C   C298      1.0  0.29550  0.87293  0.24257  1.0000
  H   H346      1.0  0.29800  0.85933  0.28766  1.0000
  H   H347      1.0  0.25063  0.85138  0.28162  1.0000
  H   H348      1.0  0.26078  0.87063  0.22545  1.0000
  H   H349      1.0  0.30777  0.87965  0.23169  1.0000
  H   H350      1.0  0.36447  0.71019  0.28554  1.0000
  C   C299      1.0  0.39174  0.73952  0.27817  1.0000
  H   H351      1.0  0.09691  0.67563  0.14717  1.0000
  H   H352      1.0  0.48975  0.84302  0.28298  1.0000
  H   H353      1.0  0.27665  0.92320  0.27752  1.0000
  H   H354      1.0  0.20138  0.71949  0.27242  1.0000
  C   C300      1.0  0.05610  0.84847  0.22130  1.0000
  C   C301      1.0  0.24800  0.93050  0.25613  1.0000
  H   H355      1.0  0.02082  0.69234  0.03582  1.0000
  H   H356      1.0  0.03801  0.81107  0.21791  1.0000
  C   C302      1.0  0.47655  0.63973  0.30443  1.0000
  C   C303      1.0  0.07008  0.74404  0.09993  1.0000
  H   H357      1.0  0.03073  0.65862  0.13177  1.0000
  C   C304      1.0  0.02055  0.88650  0.07988  1.0000
  H   H358      1.0  0.08779  0.76253  0.22988  1.0000
  C   C305      1.0  0.47961  0.66150  0.29317  1.0000
  C   C306      1.0  0.27338  0.93008  0.26373  1.0000
  H   H359      1.0  0.07129  0.65288  0.14934  1.0000
  N   N19       1.0  0.12177  0.74436  0.24377  1.0000
  C   C307      1.0  0.12767  0.72729  0.22770  1.0000
  C   C308      1.0  0.10498  0.73002  0.25649  1.0000
  C   C309      1.0  0.10604  0.76797  0.23726  1.0000
  C   C310      1.0  0.14678  0.75073  0.25296  1.0000
  C   C311      1.0  0.15431  0.77705  0.25604  1.0000
  C   C312      1.0  0.16444  0.73018  0.25927  1.0000
  C   C313      1.0  0.17870  0.78227  0.26398  1.0000
  C   C314      1.0  0.18849  0.73560  0.26756  1.0000
  C   C315      1.0  0.19578  0.76160  0.26967  1.0000
  H   H360      1.0  0.13727  0.70789  0.23138  1.0000
  H   H361      1.0  0.10932  0.72276  0.22018  1.0000
  H   H362      1.0  0.14092  0.73710  0.21804  1.0000
  H   H363      1.0  0.11403  0.71035  0.26025  1.0000
  H   H364      1.0  0.08530  0.72630  0.25042  1.0000
  H   H365      1.0  0.10148  0.74154  0.26925  1.0000
  H   H366      1.0  0.11745  0.77965  0.22750  1.0000
  H   H367      1.0  0.14175  0.79399  0.25235  1.0000
  H   H368      1.0  0.15966  0.70971  0.25791  1.0000
  H   H369      1.0  0.18438  0.80255  0.26569  1.0000
  H   H370      1.0  0.21461  0.76580  0.27585  1.0000
  H   H371      1.0  0.03281  0.65020  0.01195  1.0000
  N   N20       1.0  0.15314  0.82090  0.09666  1.0000
  C   C316      1.0  0.18106  0.82742  0.09978  1.0000
  C   C317      1.0  0.14558  0.83014  0.07814  1.0000
  C   C318      1.0  0.13611  0.83613  0.10979  1.0000
  C   C319      1.0  0.15041  0.79221  0.09931  1.0000
  C   C320      1.0  0.14300  0.77493  0.08506  1.0000
  C   C321      1.0  0.15598  0.78057  0.11651  1.0000
  C   C322      1.0  0.14147  0.74778  0.08790  1.0000
  C   C323      1.0  0.15427  0.75342  0.11922  1.0000
  C   C324      1.0  0.14709  0.73704  0.10493  1.0000
  H   H372      1.0  0.18422  0.84865  0.09704  1.0000
  H   H373      1.0  0.18752  0.82376  0.11404  1.0000
  H   H374      1.0  0.19463  0.81550  0.09072  1.0000
  H   H375      1.0  0.12453  0.82645  0.07503  1.0000
  H   H376      1.0  0.15836  0.82053  0.06749  1.0000
  H   H377      1.0  0.14774  0.85181  0.07665  1.0000
  H   H378      1.0  0.14230  0.83280  0.12413  1.0000
  H   H379      1.0  0.13694  0.85779  0.10758  1.0000
  H   H380      1.0  0.11508  0.83095  0.10837  1.0000
  H   H381      1.0  0.13855  0.78176  0.07148  1.0000
  H   H382      1.0  0.16210  0.79231  0.12798  1.0000
  H   H383      1.0  0.13612  0.73494  0.07673  1.0000
  H   H384      1.0  0.15873  0.74504  0.13248  1.0000
  H   H385      1.0  0.14599  0.71594  0.10699  1.0000
  S   S107      1.0  0.42506  0.78020  0.27731  1.0000
  H   H386      1.0  0.07538  0.64158  0.11885  1.0000
  C   C325      1.0  0.19532  0.93331  0.24206  1.0000
  H   H387      1.0  0.08417  0.73877  0.05424  1.0000
  H   H388      1.0  0.30166  0.77198  0.32162  1.0000
  C   C326      1.0  0.24344  0.93841  0.23782  1.0000
  C   C327      1.0  0.17287  0.56068  0.19251  1.0000
  C   C328      1.0  0.18046  0.58079  0.24218  1.0000
  C   C329      1.0  0.09359  0.75585  0.04903  1.0000
  C   C330      1.0  0.02121  0.90853  0.13901  1.0000
  H   H389      1.0  0.06751  0.88852  0.22462  1.0000
  H   H390      1.0  0.21192  0.98116  0.23154  1.0000
  H   H391      1.0  0.00624  0.83283  0.03688  1.0000
  H   H392      1.0  0.04769  0.62069  0.00240  1.0000
  H   H393      1.0  0.30402  0.72757  0.32740  1.0000
  H   H394      1.0  0.44613  0.73493  0.32926  1.0000
  H   H395      1.0  0.04468  0.96572  0.03186  1.0000
  N   N21       1.0  0.27027  0.71278  0.24114  1.0000
  C   C331      1.0  0.26426  0.70462  0.25991  1.0000
  C   C332      1.0  0.26260  0.69118  0.22873  1.0000
  C   C333      1.0  0.29930  0.71513  0.23941  1.0000
  C   C334      1.0  0.25640  0.73855  0.23734  1.0000
  C   C335      1.0  0.23611  0.74179  0.22398  1.0000
  C   C336      1.0  0.26303  0.76147  0.24726  1.0000
  C   C337      1.0  0.22384  0.76659  0.22057  1.0000
  C   C338      1.0  0.25068  0.78613  0.24369  1.0000
  C   C339      1.0  0.23125  0.78871  0.23031  1.0000
  H   H396      1.0  0.24295  0.70087  0.26149  1.0000
  H   H397      1.0  0.27562  0.68612  0.26361  1.0000
  H   H398      1.0  0.26935  0.71969  0.27018  1.0000
  H   H399      1.0  0.24122  0.68730  0.22998  1.0000
  H   H400      1.0  0.27344  0.67212  0.23204  1.0000
  H   H401      1.0  0.26706  0.69575  0.21432  1.0000
  H   H402      1.0  0.31028  0.69573  0.24114  1.0000
  H   H403      1.0  0.30449  0.72304  0.22587  1.0000
  H   H404      1.0  0.30747  0.72836  0.24989  1.0000
  H   H405      1.0  0.22948  0.72561  0.21583  1.0000
  H   H406      1.0  0.27800  0.76056  0.25780  1.0000
  H   H407      1.0  0.20864  0.76880  0.21015  1.0000
  H   H408      1.0  0.25631  0.80345  0.25125  1.0000
  H   H409      1.0  0.22199  0.80794  0.22746  1.0000
  C   C340      1.0  0.38187  0.75552  0.32340  1.0000
  C   C341      1.0  0.03459  0.83229  0.21836  1.0000
  H   H410      1.0  0.03073  0.62413  0.04144  1.0000
  N   N22       1.0  0.06510  0.68147  0.12782  1.0000
  C   C342      1.0  0.00858  0.84331  0.21628  1.0000
  H   H411      1.0  0.26420  0.95052  0.21348  1.0000
  C   C343      1.0  0.14056  0.56099  0.21619  1.0000
  C   C344      1.0  0.02830  0.63130  0.00513  1.0000
  Fe  Fe56      1.0  0.30687  0.65773  0.32601  1.0000
  C   C345      1.0  0.04130  0.97614  0.04507  1.0000
  H   H412      1.0  0.05933  0.98729  0.04793  1.0000
  H   H413      1.0  0.17686  0.61165  0.20205  1.0000
  H   H414      1.0  0.17556  0.93476  0.23534  1.0000
  H   H415      1.0  0.11279  0.50018  0.03792  1.0000
  C   C346      1.0  0.00671  0.90133  0.16984  1.0000
  C   C347      1.0  0.03588  0.72999  0.02923  1.0000
  H   H416      1.0  0.06495  0.78388  0.06074  1.0000
  C   C348      1.0  0.15893  0.60165  0.20657  1.0000
  N   N23       1.0  0.05538  0.89490  0.16325  1.0000
  C   C349      1.0  0.00368  0.87064  0.21767  1.0000
  H   H417      1.0  0.15655  0.56255  0.18226  1.0000
  C   C350      1.0  0.21051  0.96523  0.22115  1.0000
  C   C351      1.0  0.21675  0.91874  0.21455  1.0000
  C   C352      1.0  0.21177  0.56040  0.22091  1.0000
  H   H418      1.0  0.05632  0.72247  0.02875  1.0000
  H   H419      1.0  0.05083  0.91249  0.19003  1.0000
  H   H420      1.0  0.19713  0.91851  0.20762  1.0000
  N   N24       1.0  0.16504  0.57330  0.21010  1.0000
  H   H421      1.0  0.09874  0.66570  0.11285  1.0000
  S   S108      1.0  0.34203  0.68100  0.31963  1.0000
  H   H422      1.0  0.03241  0.80824  0.03800  1.0000
  H   H423      1.0  0.07583  0.91605  0.14259  1.0000
  H   H424      1.0  0.18998  0.57026  0.18630  1.0000
  H   H425      1.0  0.49388  0.62908  0.30975  1.0000
  C   C353      1.0  0.01054  0.81118  0.03829  1.0000
  H   H426      1.0  0.06122  0.93444  0.17271  1.0000
  H   H427      1.0  0.24100  0.57121  0.26189  1.0000
  H   H428      1.0  0.08409  0.90985  0.18207  1.0000
  H   H429      1.0  0.09567  0.89077  0.15345  1.0000
  H   H430      1.0  0.04426  0.86585  0.18297  1.0000
  H   H431      1.0  0.23156  0.92215  0.20381  1.0000
  C   C354      1.0  0.07523  0.89587  0.14845  1.0000
  H   H432      1.0  0.41828  0.79130  0.32931  1.0000
  C   C355      1.0  0.08283  0.78147  0.05277  1.0000
  C   C356      1.0  0.06316  0.91371  0.17762  1.0000
  H   H433      1.0  0.05068  0.85307  0.16062  1.0000
  S   S109      1.0  0.09746  0.96550  0.01733  1.0000
  H   H434      1.0  0.19759  0.91285  0.24751  1.0000
  H   H435      1.0  0.15109  0.61230  0.21882  1.0000
  C   C357      1.0  0.08298  0.72662  0.13489  1.0000
  C   C358      1.0  0.00887  0.64355  0.07443  1.0000
  C   C359      1.0  0.09985  0.55574  0.01280  1.0000
  C   C360      1.0  0.05700  0.86780  0.17082  1.0000
  H   H436      1.0  0.38428  0.76952  0.31198  1.0000
  C   C361      1.0  0.45669  0.67492  0.28628  1.0000
  H   H437      1.0  0.07744  0.86187  0.17534  1.0000
  C   C362      1.0  0.29491  0.93713  0.25340  1.0000
  C   C363      1.0  0.02974  0.75678  0.02620  1.0000
  H   H438      1.0  0.42196  0.72381  0.31335  1.0000
  H   H439      1.0  0.02736  0.68220  0.11391  1.0000
  H   H440      1.0  0.36567  0.76395  0.33208  1.0000
  C   C364      1.0  0.18569  0.57091  0.22438  1.0000
  C   C365      1.0  0.02789  0.90160  0.15723  1.0000
  H   H441      1.0  0.02166  0.90792  0.22175  1.0000
  C   C366      1.0  0.10381  0.49958  0.00926  1.0000
  H   H442      1.0  0.01441  0.51096  0.04316  1.0000
  H   H443      1.0  0.49175  0.72782  0.24812  1.0000
  H   H444      1.0  0.19587  0.58896  0.26888  1.0000
  H   H445      1.0  0.07111  0.88166  0.13732  1.0000
  H   H446      1.0  0.06534  0.68607  0.15703  1.0000
  C   C367      1.0  0.26591  0.94520  0.22763  1.0000
  H   H447      1.0  0.02610  0.69324  0.13717  1.0000
  H   H448      1.0  0.02959  0.80166  0.00523  1.0000
  H   H449      1.0  0.01012  0.89646  0.18393  1.0000
  H   H450      1.0  0.37507  0.73682  0.31746  1.0000
  C   C368      1.0  0.02524  0.88678  0.22049  1.0000
  H   H451      1.0  0.19012  0.96652  0.21531  1.0000
  C   C369      1.0  0.23133  0.56031  0.23441  1.0000
  N   N25       1.0  0.01070  0.61545  0.01632  1.0000
  C   C370      1.0  0.05130  0.87585  0.22203  1.0000
  C   C371      1.0  0.02511  0.60693  0.03304  1.0000
  H   H452      1.0  0.13158  0.57098  0.22830  1.0000
  H   H453      1.0  0.32982  0.78730  0.27378  1.0000
  C   C372      1.0  0.00428  0.86713  0.07330  1.0000
  H   H454      1.0  0.08828  0.72131  0.14862  1.0000
  H   H455      1.0  0.08639  0.78071  0.10800  1.0000
  C   C373      1.0  0.10786  0.51210  0.02614  1.0000
  S   S110      1.0  0.09766  0.59107  0.01397  1.0000
  C   C374      1.0  0.22556  0.57046  0.25165  1.0000
  H   H456      1.0  0.05504  0.70619  0.09524  1.0000
  H   H457      1.0  0.01276  0.59439  0.04163  1.0000
  C   C375      1.0  0.08199  0.76093  0.11214  1.0000
  H   H458      1.0  0.06510  0.75075  0.08635  1.0000
  H   H459      1.0  0.09750  0.76541  0.13920  1.0000
  C   C376      1.0  0.08831  0.75228  0.12962  1.0000
  C   C377      1.0  0.07108  0.70878  0.12272  1.0000
  H   H460      1.0  0.03581  0.90961  0.12838  1.0000
  C   C378      1.0  0.20011  0.58042  0.25558  1.0000
  H   H461      1.0  0.25128  0.55279  0.23143  1.0000
  H   H462      1.0  0.22136  0.89869  0.22014  1.0000
  H   H463      1.0  0.22384  0.96975  0.20974  1.0000
  H   H464      1.0  0.04397  0.59559  0.03015  1.0000
  H   H465      1.0  0.00895  0.57879  0.08661  1.0000
  C   C379      1.0  0.03313  0.49472  0.01978  1.0000
  C   C380      1.0  0.42792  0.74105  0.32156  1.0000
  H   H466      1.0  0.43334  0.75603  0.31141  1.0000
  C   C381      1.0  0.31183  0.78138  0.33266  1.0000
  H   H467      1.0  0.00986  0.93868  0.04126  1.0000
  H   H468      1.0  0.30819  0.94929  0.22728  1.0000
  C   C382      1.0  0.01590  0.71295  0.03309  1.0000
  H   H469      1.0  0.31940  0.81438  0.31538  1.0000
  H   H470      1.0  0.04604  0.76927  0.02357  1.0000
  C   C383      1.0  0.32203  0.80588  0.32881  1.0000
  H   H471      1.0  0.04052  0.96133  0.05605  1.0000
  H   H472      1.0  0.05275  0.49727  0.02530  1.0000
  H   H473      1.0  0.48486  0.82492  0.33188  1.0000
  H   H474      1.0  0.00376  0.80556  0.05205  1.0000
  H   H475      1.0  0.39842  0.69820  0.33040  1.0000
  C   C384      1.0  0.00765  0.80378  0.00598  1.0000
  H   H476      1.0  0.04330  0.57468  0.00347  1.0000
  C   C385      1.0  0.00161  0.59781  0.08165  1.0000
  C   C386      1.0  0.16655  0.53047  0.00233  1.0000
  H   H477      1.0  0.15913  0.53222  0.01612  1.0000
  C   C387      1.0  0.00324  0.76730  0.02680  1.0000
  N   N26       1.0  0.99739  0.79588  0.02391  1.0000
  N   N27       1.0  0.40666  0.75138  0.33394  1.0000
  H   H478      1.0  0.48471  0.75886  0.29320  1.0000
  C   C388      1.0  0.48790  0.74426  0.28200  1.0000
  C   C389      1.0  0.99494  0.91461  0.13392  1.0000
  C   C390      1.0  0.99685  0.61611  0.15887  1.0000
  C   C391      1.0  0.49199  0.87688  0.33425  1.0000
  H   H479      1.0  0.49384  0.72472  0.28780  1.0000
  H   H480      1.0  0.49224  0.86906  0.32012  1.0000
  Fe  Fe57      1.0  0.41972  0.92485  0.46213  1.0000
  S   S111      1.0  0.40332  0.91132  0.48841  1.0000
  S   S112      1.0  0.46035  0.94019  0.46281  1.0000
  Fe  Fe58      1.0  0.36939  0.91596  0.44149  1.0000
  S   S113      1.0  0.34837  0.90268  0.46666  1.0000
  S   S114      1.0  0.35131  0.92042  0.41334  1.0000
  Fe  Fe59      1.0  0.36771  0.93708  0.48073  1.0000
  S   S115      1.0  0.34954  0.96645  0.50177  1.0000
  Fe  Fe60      1.0  0.38616  0.87822  0.47206  1.0000
  S   S116      1.0  0.39651  0.83538  0.48081  1.0000
  S   S117      1.0  0.38529  0.95189  0.45509  1.0000
  S   S118      1.0  0.40588  0.89032  0.44627  1.0000
  Fe  Fe61      1.0  0.35805  0.68295  0.47047  1.0000
  S   S119      1.0  0.39687  0.67429  0.45653  1.0000
  S   S120      1.0  0.34013  0.72533  0.47008  1.0000
  Fe  Fe62      1.0  0.35108  0.62260  0.47848  1.0000
  S   S121      1.0  0.38903  0.61128  0.46459  1.0000
  S   S122      1.0  0.32671  0.58979  0.49060  1.0000
  Fe  Fe63      1.0  0.40458  0.64596  0.47944  1.0000
  S   S123      1.0  0.44240  0.63877  0.49482  1.0000
  Fe  Fe64      1.0  0.37654  0.64078  0.44317  1.0000
  S   S124      1.0  0.38311  0.63026  0.41347  1.0000
  S   S125      1.0  0.36717  0.65649  0.49453  1.0000
  S   S126      1.0  0.33706  0.65028  0.45598  1.0000
  H   H481      1.0  0.27787  0.72691  0.37346  1.0000
  S   S127      1.0  0.29347  0.65789  0.35523  1.0000
  C   C392      1.0  0.35779  0.63787  0.39754  1.0000
  C   C393      1.0  0.36175  0.63092  0.37922  1.0000
  C   C394      1.0  0.34241  0.63759  0.36608  1.0000
  C   C395      1.0  0.31861  0.65053  0.37129  1.0000
  C   C396      1.0  0.31453  0.65735  0.38960  1.0000
  C   C397      1.0  0.33416  0.65124  0.40268  1.0000
  H   H482      1.0  0.37978  0.62024  0.37515  1.0000
  H   H483      1.0  0.34564  0.63206  0.35200  1.0000
  H   H484      1.0  0.29614  0.66736  0.39371  1.0000
  H   H485      1.0  0.33097  0.65693  0.41669  1.0000
  C   C398      1.0  0.46328  0.62063  0.48001  1.0000
  C   C399      1.0  0.45820  0.62138  0.46135  1.0000
  H   H486      1.0  0.34352  0.83852  0.33909  1.0000
  H   H487      1.0  0.44156  0.63311  0.45609  1.0000
  N   N28       1.0  0.30507  0.74356  0.35464  1.0000
  C   C400      1.0  0.32979  0.55652  0.49898  1.0000
  C   C401      1.0  0.35313  0.54013  0.49847  1.0000
  C   C402      1.0  0.30714  0.54632  0.50661  1.0000
  H   H488      1.0  0.37074  0.54718  0.49225  1.0000
  H   H489      1.0  0.28894  0.55840  0.50706  1.0000
  C   C403      1.0  0.36512  0.89993  0.39579  1.0000
  C   C404      1.0  0.37986  0.87667  0.39984  1.0000
  C   C405      1.0  0.39053  0.86056  0.38581  1.0000
  C   C406      1.0  0.38670  0.86749  0.36753  1.0000
  C   C407      1.0  0.37182  0.89064  0.36336  1.0000
  C   C408      1.0  0.36094  0.90672  0.37747  1.0000
  H   H490      1.0  0.38260  0.87076  0.41380  1.0000
  H   H491      1.0  0.40178  0.84259  0.38919  1.0000
  H   H492      1.0  0.36858  0.89614  0.34932  1.0000
  H   H493      1.0  0.34942  0.92456  0.37417  1.0000
  C   C409      1.0  0.38083  0.80500  0.47668  1.0000
  C   C410      1.0  0.35501  0.80408  0.46990  1.0000
  C   C411      1.0  0.34302  0.77959  0.46782  1.0000
  C   C412      1.0  0.35675  0.75560  0.47214  1.0000
  C   C413      1.0  0.38281  0.75648  0.47850  1.0000
  C   C414      1.0  0.39463  0.78099  0.48090  1.0000
  H   H494      1.0  0.34401  0.82227  0.46668  1.0000
  H   H495      1.0  0.32283  0.77925  0.46298  1.0000
  H   H496      1.0  0.39361  0.73831  0.48202  1.0000
  H   H497      1.0  0.41448  0.78134  0.48632  1.0000
  C   C415      1.0  0.47495  0.60734  0.44930  1.0000
  H   H498      1.0  0.43767  0.95842  0.52240  1.0000
  H   H499      1.0  0.44318  0.84605  0.45833  1.0000
  C   C416      1.0  0.45408  0.61953  0.39440  1.0000
  H   H500      1.0  0.42205  0.63919  0.37999  1.0000
  H   H501      1.0  0.32975  0.52820  0.55404  1.0000
  C   C417      1.0  0.46903  0.91347  0.43080  1.0000
  H   H502      1.0  0.47434  0.87461  0.36800  1.0000
  H   H503      1.0  0.44811  0.91657  0.42815  1.0000
  N   N29       1.0  0.38556  0.59431  0.53500  1.0000
  C   C418      1.0  0.36206  0.61301  0.53573  1.0000
  C   C419      1.0  0.40608  0.60496  0.54710  1.0000
  C   C420      1.0  0.39557  0.59402  0.51610  1.0000
  C   C421      1.0  0.37988  0.56712  0.54057  1.0000
  C   C422      1.0  0.35410  0.55956  0.54537  1.0000
  C   C423      1.0  0.40055  0.54718  0.54131  1.0000
  H   H504      1.0  0.44559  0.95518  0.49878  1.0000
  C   C424      1.0  0.33068  0.50439  0.51380  1.0000
  H   H505      1.0  0.47610  0.88950  0.40685  1.0000
  H   H506      1.0  0.34636  0.60711  0.52605  1.0000
  H   H507      1.0  0.35357  0.61443  0.54965  1.0000
  H   H508      1.0  0.36705  0.63335  0.53180  1.0000
  H   H509      1.0  0.39992  0.60429  0.56160  1.0000
  H   H510      1.0  0.40998  0.62584  0.54376  1.0000
  H   H511      1.0  0.42544  0.59385  0.54581  1.0000
  H   H512      1.0  0.41390  0.58135  0.51434  1.0000
  H   H513      1.0  0.38052  0.58690  0.50646  1.0000
  H   H514      1.0  0.40044  0.61410  0.51163  1.0000
  H   H515      1.0  0.33690  0.57291  0.54456  1.0000
  H   H516      1.0  0.42053  0.55126  0.53750  1.0000
  C   C425      1.0  0.39578  0.52146  0.54677  1.0000
  C   C426      1.0  0.48503  0.60560  0.48667  1.0000
  C   C427      1.0  0.48742  0.73601  0.45977  1.0000
  N   N30       1.0  0.31303  0.57529  0.43125  1.0000
  C   C428      1.0  0.31021  0.54720  0.43605  1.0000
  C   C429      1.0  0.33978  0.58305  0.43678  1.0000
  C   C430      1.0  0.29356  0.59138  0.44223  1.0000
  C   C431      1.0  0.30963  0.57874  0.41138  1.0000
  C   C432      1.0  0.28896  0.59509  0.40365  1.0000
  C   C433      1.0  0.32749  0.56562  0.39910  1.0000
  C   C434      1.0  0.28663  0.59811  0.38482  1.0000
  C   C435      1.0  0.32508  0.56898  0.38031  1.0000
  C   C436      1.0  0.30470  0.58522  0.37319  1.0000
  H   H517      1.0  0.32562  0.53397  0.42956  1.0000
  H   H518      1.0  0.31210  0.54408  0.45101  1.0000
  H   H519      1.0  0.29057  0.54035  0.43171  1.0000
  H   H520      1.0  0.35589  0.57019  0.43078  1.0000
  H   H521      1.0  0.34253  0.58206  0.45179  1.0000
  H   H522      1.0  0.34320  0.60354  0.43240  1.0000
  H   H523      1.0  0.27293  0.58580  0.43947  1.0000
  H   H524      1.0  0.29685  0.58860  0.45710  1.0000
  H   H525      1.0  0.29517  0.61287  0.43966  1.0000
  H   H526      1.0  0.27460  0.60619  0.41179  1.0000
  H   H527      1.0  0.34375  0.55297  0.40394  1.0000
  C   C437      1.0  0.32919  0.78410  0.36332  1.0000
  H   H528      1.0  0.30551  0.94356  0.45577  1.0000
  H   H529      1.0  0.27125  0.61129  0.37916  1.0000
  H   H530      1.0  0.40310  0.75962  0.37186  1.0000
  H   H531      1.0  0.28359  0.71149  0.34314  1.0000
  H   H532      1.0  0.33082  0.96294  0.46551  1.0000
  C   C438      1.0  0.35363  0.51425  0.50601  1.0000
  C   C439      1.0  0.31512  0.76969  0.35012  1.0000
  H   H533      1.0  0.33735  0.97804  0.43339  1.0000
  H   H534      1.0  0.34992  0.81942  0.36957  1.0000
  C   C440      1.0  0.40226  0.73220  0.34859  1.0000
  H   H535      1.0  0.48986  0.81778  0.35554  1.0000
  H   H536      1.0  0.36655  0.49474  0.55541  1.0000
  C   C441      1.0  0.47001  0.81869  0.48332  1.0000
  H   H537      1.0  0.33245  0.77656  0.37689  1.0000
  H   H538      1.0  0.30989  0.95994  0.42626  1.0000
  C   C442      1.0  0.43620  0.96868  0.50909  1.0000
  H   H539      1.0  0.48877  0.60465  0.50114  1.0000
  C   C443      1.0  0.48277  0.62311  0.36226  1.0000
  H   H540      1.0  0.44589  0.86587  0.47825  1.0000
  C   C444      1.0  0.47521  0.71283  0.46407  1.0000
  H   H541      1.0  0.26201  0.98811  0.45951  1.0000
  H   H542      1.0  0.47808  0.67603  0.47764  1.0000
  N   N31       1.0  0.30226  0.98527  0.44969  1.0000
  H   H543      1.0  0.41173  0.50642  0.54704  1.0000
  H   H544      1.0  0.32086  0.70509  0.36270  1.0000
  C   C445      1.0  0.48376  0.83361  0.34577  1.0000
  C   C446      1.0  0.30753  0.52069  0.51378  1.0000
  C   C447      1.0  0.37038  0.51484  0.55161  1.0000
  C   C448      1.0  0.39336  0.68696  0.35784  1.0000
  H   H545      1.0  0.47752  0.75039  0.45094  1.0000
  C   C449      1.0  0.39233  0.69477  0.37601  1.0000
  H   H546      1.0  0.26971  0.76054  0.36700  1.0000
  C   C450      1.0  0.33929  0.80860  0.35931  1.0000
  H   H547      1.0  0.26696  0.96756  0.43989  1.0000
  C   C451      1.0  0.48810  0.69401  0.47519  1.0000
  C   C452      1.0  0.34963  0.53383  0.55092  1.0000
  C   C453      1.0  0.30948  0.96305  0.46202  1.0000
  S   S128      1.0  0.40039  0.84609  0.35054  1.0000
  H   H548      1.0  0.43258  0.77599  0.34918  1.0000
  H   H549      1.0  0.44723  0.64209  0.35124  1.0000
  C   C454      1.0  0.48028  0.92438  0.44636  1.0000
  C   C455      1.0  0.28641  0.74619  0.37013  1.0000
  H   H550      1.0  0.46059  0.82631  0.49611  1.0000
  C   C456      1.0  0.45658  0.63317  0.36315  1.0000
  C   C457      1.0  0.29089  0.73110  0.33935  1.0000
  C   C458      1.0  0.47715  0.99020  0.51468  1.0000
  C   C459      1.0  0.48022  0.60927  0.39364  1.0000
  H   H551      1.0  0.30324  0.58839  0.35865  1.0000
  C   C460      1.0  0.32751  0.72527  0.35989  1.0000
  C   C461      1.0  0.33568  0.81947  0.34211  1.0000
  H   H552      1.0  0.46247  0.83921  0.34829  1.0000
  H   H553      1.0  0.45445  0.80831  0.47570  1.0000
  C   C462      1.0  0.48490  0.89837  0.41868  1.0000
  H   H554      1.0  0.47098  0.60821  0.43491  1.0000
  C   C463      1.0  0.39820  0.70531  0.34431  1.0000
  H   H555      1.0  0.33936  0.55933  0.37120  1.0000
  C   C464      1.0  0.27328  0.98601  0.44659  1.0000
  H   H556      1.0  0.38866  0.68049  0.38652  1.0000
  H   H557      1.0  0.39503  0.72693  0.39491  1.0000
  C   C465      1.0  0.44233  0.63146  0.37923  1.0000
  H   H558      1.0  0.28964  0.51352  0.51961  1.0000
  H   H559      1.0  0.39027  0.66655  0.35415  1.0000
  H   H560      1.0  0.41480  0.97101  0.50543  1.0000
  H   H561      1.0  0.49182  0.65864  0.50347  1.0000
  H   H562      1.0  0.48562  0.80354  0.48700  1.0000
  H   H563      1.0  0.46350  0.87386  0.45775  1.0000
  C   C466      1.0  0.31539  0.97937  0.43197  1.0000
  H   H564      1.0  0.37166  0.50193  0.50577  1.0000
  H   H565      1.0  0.49251  0.49798  0.45881  1.0000
  C   C467      1.0  0.39593  0.72102  0.38071  1.0000
  C   C468      1.0  0.49361  0.82959  0.45605  1.0000
  H   H566      1.0  0.39825  0.78791  0.34868  1.0000
  H   H567      1.0  0.29607  0.75301  0.38280  1.0000
  H   H568      1.0  0.49297  0.62480  0.34945  1.0000
  C   C469      1.0  0.40068  0.73961  0.36726  1.0000
  C   C470      1.0  0.45735  0.85745  0.46650  1.0000
  H   H569      1.0  0.29853  0.96408  0.47509  1.0000
  H   H570      1.0  0.45574  0.70920  0.45864  1.0000
  H   H571      1.0  0.44269  0.61805  0.40681  1.0000
  H   H572      1.0  0.33769  0.73170  0.37243  1.0000
  H   H573      1.0  0.34242  0.72338  0.34885  1.0000
  H   H574      1.0  0.47957  0.81919  0.44715  1.0000
  H   H575      1.0  0.47124  0.88451  0.33662  1.0000
  H   H576      1.0  0.48802  0.60004  0.40583  1.0000
  N   N32       1.0  0.48041  0.84059  0.47260  1.0000
  H   H577      1.0  0.48815  0.96881  0.48973  1.0000
  C   C471      1.0  0.41436  0.77763  0.34070  1.0000
  H   H578      1.0  0.47952  0.89441  0.48297  1.0000
  H   H579      1.0  0.27324  0.74342  0.33501  1.0000
  H   H580      1.0  0.19336  0.52568  0.95321  1.0000
  C   C472      1.0  0.09737  0.51537  0.99420  1.0000
  C   C473      1.0  0.18555  0.52629  0.96685  1.0000
  C   C474      1.0  0.18279  0.55098  0.97542  1.0000
  H   H581      1.0  0.09416  0.50621  0.98112  1.0000
  H   H582      1.0  0.18805  0.56866  0.96833  1.0000
  C   C475      1.0  0.17815  0.50292  0.97567  1.0000
  H   H583      1.0  0.03167  0.53680  0.98513  1.0000
  C   C476      1.0  0.01624  0.55113  0.98934  1.0000
  H   H584      1.0  0.09088  0.55511  0.98414  1.0000
  C   C477      1.0  0.09549  0.54319  0.99598  1.0000
  H   H585      1.0  0.99939  0.79166  0.99484  1.0000
  C   C478      1.0  0.16889  0.50571  0.99385  1.0000
  C   C479      1.0  0.02269  0.57284  0.99998  1.0000
  C   C480      1.0  0.17309  0.55308  0.99308  1.0000
  H   H586      1.0  0.01905  0.63626  0.99176  1.0000
  H   H587      1.0  0.17054  0.57226  0.99965  1.0000
  C   C481      1.0  0.88176  0.46829  0.01466  1.0000
  H   H588      1.0  0.93465  0.09228  0.00976  1.0000
  H   H589      1.0  0.85807  0.01713  0.01760  1.0000
  C   C482      1.0  0.86626  0.00476  0.00678  1.0000
  H   H590      1.0  0.95720  0.30421  0.01382  1.0000
  H   H591      1.0  0.95557  0.46555  0.04148  1.0000
  H   H592      1.0  0.94659  0.04247  0.01212  1.0000
  H   H593      1.0  0.96693  0.01482  0.03767  1.0000
  C   C483      1.0  0.98282  0.48765  0.00548  1.0000
  H   H594      1.0  0.87927  0.45538  0.02611  1.0000
  C   C484      1.0  0.98989  0.27548  0.01103  1.0000
  C   C485      1.0  0.95132  0.24031  0.00126  1.0000
  C   C486      1.0  0.96315  0.28391  0.01048  1.0000
  H   H595      1.0  0.93642  0.47597  0.02203  1.0000
  H   H596      1.0  0.92636  0.48692  0.04401  1.0000
  C   C487      1.0  0.94411  0.48259  0.03538  1.0000
  C   C488      1.0  0.94393  0.26640  0.00554  1.0000
  H   H597      1.0  0.92323  0.27307  0.00495  1.0000
  C   C489      1.0  0.97795  0.23168  0.00172  1.0000
  C   C490      1.0  0.96862  0.99366  0.03601  1.0000
  H   H598      1.0  0.82336  0.48895  0.01135  1.0000
  Fe  Fe65      1.0  0.58909  0.05256  0.52153  1.0000
  S   S129      1.0  0.57989  0.03951  0.54993  1.0000
  S   S130      1.0  0.59802  0.02380  0.49746  1.0000
  Fe  Fe66      1.0  0.57563  0.11258  0.53098  1.0000
  S   S131      1.0  0.56511  0.10232  0.55949  1.0000
  S   S132      1.0  0.56306  0.15592  0.52517  1.0000
  Fe  Fe67      1.0  0.60120  0.07531  0.55917  1.0000
  S   S133      1.0  0.62684  0.08078  0.58399  1.0000
  Fe  Fe68      1.0  0.54483  0.06808  0.54775  1.0000
  H   H599      1.0  0.58184  0.32011  0.62417  1.0000
  S   S134      1.0  0.61342  0.08698  0.53096  1.0000
  S   S135      1.0  0.55239  0.07957  0.51907  1.0000
  Fe  Fe69      1.0  0.60490  0.30909  0.54087  1.0000
  S   S136      1.0  0.59637  0.31716  0.57037  1.0000
  S   S137      1.0  0.61801  0.26709  0.53171  1.0000
  Fe  Fe70      1.0  0.60213  0.36988  0.53167  1.0000
  S   S138      1.0  0.59331  0.38131  0.56067  1.0000
  S   S139      1.0  0.60521  0.39927  0.50801  1.0000
  Fe  Fe71      1.0  0.62417  0.35005  0.56829  1.0000
  S   S140      1.0  0.65703  0.35393  0.58885  1.0000
  Fe  Fe72      1.0  0.56633  0.34733  0.56003  1.0000
  S   S141      1.0  0.52701  0.35198  0.57400  1.0000
  S   S142      1.0  0.63510  0.34042  0.53934  1.0000
  S   S143      1.0  0.57280  0.33754  0.53045  1.0000
  C   C491      1.0  0.64960  0.36414  0.61130  1.0000
  C   C492      1.0  0.65912  0.34881  0.62596  1.0000
  C   C493      1.0  0.65592  0.35797  0.64396  1.0000
  C   C494      1.0  0.64405  0.38299  0.64733  1.0000
  C   C495      1.0  0.63453  0.39830  0.63269  1.0000
  C   C496      1.0  0.63686  0.38873  0.61475  1.0000
  H   H600      1.0  0.66936  0.32994  0.62336  1.0000
  H   H601      1.0  0.60753  0.20674  0.56432  1.0000
  H   H602      1.0  0.62551  0.41775  0.63521  1.0000
  H   H603      1.0  0.62992  0.40091  0.60354  1.0000
  C   C497      1.0  0.60443  0.44551  0.48820  1.0000
  C   C498      1.0  0.60491  0.43448  0.50574  1.0000
  C   C499      1.0  0.60529  0.45164  0.52073  1.0000
  H   H604      1.0  0.60397  0.43258  0.47647  1.0000
  H   H605      1.0  0.60532  0.44374  0.53433  1.0000
  H   H606      1.0  0.59627  0.26794  0.60366  1.0000
  H   H607      1.0  0.66180  0.38476  0.51564  1.0000
  H   H608      1.0  0.66675  0.46174  0.48285  1.0000
  H   H609      1.0  0.51888  0.33711  0.53661  1.0000
  N   N33       1.0  0.61072  0.16384  0.58857  1.0000
  C   C500      1.0  0.61047  0.07832  0.60503  1.0000
  C   C501      1.0  0.61801  0.09382  0.61988  1.0000
  C   C502      1.0  0.60388  0.09356  0.63631  1.0000
  C   C503      1.0  0.58314  0.07656  0.63836  1.0000
  C   C504      1.0  0.57672  0.05989  0.62385  1.0000
  C   C505      1.0  0.58965  0.06145  0.60705  1.0000
  H   H610      1.0  0.63462  0.10627  0.61868  1.0000
  H   H611      1.0  0.60943  0.10605  0.64751  1.0000
  H   H612      1.0  0.60162  0.25306  0.57172  1.0000
  H   H613      1.0  0.58404  0.04904  0.59580  1.0000
  C   C506      1.0  0.57899  0.18635  0.52810  1.0000
  C   C507      1.0  0.56344  0.20960  0.53165  1.0000
  C   C508      1.0  0.57500  0.23438  0.53317  1.0000
  C   C509      1.0  0.60227  0.23632  0.53073  1.0000
  C   C510      1.0  0.61779  0.21304  0.52723  1.0000
  C   C511      1.0  0.60632  0.18821  0.52610  1.0000
  H   H614      1.0  0.54229  0.20853  0.53312  1.0000
  H   H615      1.0  0.56277  0.25204  0.53581  1.0000
  H   H616      1.0  0.63887  0.21427  0.52523  1.0000
  H   H617      1.0  0.61854  0.17065  0.52308  1.0000
  C   C512      1.0  0.67124  0.48457  0.50718  1.0000
  H   H618      1.0  0.59250  0.25938  0.65828  1.0000
  H   H619      1.0  0.67971  0.46034  0.54956  1.0000
  H   H620      1.0  0.51475  0.10611  0.57398  1.0000
  H   H621      1.0  0.70508  0.42426  0.55687  1.0000
  H   H622      1.0  0.57832  0.39193  0.62996  1.0000
  H   H623      1.0  0.60368  0.18817  0.62190  1.0000
  C   C513      1.0  0.60173  0.23866  0.58260  1.0000
  H   H624      1.0  0.52396  0.36859  0.62749  1.0000
  C   C514      1.0  0.50324  0.04809  0.63339  1.0000
  C   C515      1.0  0.50243  0.36139  0.55824  1.0000
  H   H625      1.0  0.53458  0.33636  0.61934  1.0000
  H   H626      1.0  0.66345  0.34606  0.65514  1.0000
  H   H627      1.0  0.70852  0.38972  0.55287  1.0000
  H   H628      1.0  0.66150  0.00399  0.48847  1.0000
  H   H629      1.0  0.50845  0.10285  0.60762  1.0000
  H   H630      1.0  0.52464  0.07079  0.60457  1.0000
  S   S144      1.0  0.56457  0.07595  0.65866  1.0000
  C   C516      1.0  0.55329  0.34114  0.65340  1.0000
  H   H631      1.0  0.68398  0.36780  0.53089  1.0000
  C   C517      1.0  0.61158  0.15714  0.56887  1.0000
  H   H632      1.0  0.67757  0.00696  0.45688  1.0000
  C   C518      1.0  0.63647  0.15484  0.59660  1.0000
  H   H633      1.0  0.53590  0.39746  0.50966  1.0000
  H   H634      1.0  0.54868  0.41645  0.49139  1.0000
  H   H635      1.0  0.65937  0.38898  0.55580  1.0000
  C   C519      1.0  0.50348  0.35143  0.54048  1.0000
  C   C520      1.0  0.60629  0.49021  0.50058  1.0000
  H   H636      1.0  0.63857  0.40807  0.54043  1.0000
  H   H637      1.0  0.65636  0.42400  0.55814  1.0000
  C   C521      1.0  0.67469  0.48393  0.52595  1.0000
  C   C522      1.0  0.53803  0.41793  0.50462  1.0000
  H   H638      1.0  0.69722  0.38702  0.51310  1.0000
  C   C523      1.0  0.57031  0.38146  0.64184  1.0000
  H   H639      1.0  0.59703  0.23498  0.62852  1.0000
  H   H640      1.0  0.50132  0.41157  0.47851  1.0000
  H   H641      1.0  0.58971  0.14926  0.61187  1.0000
  H   H642      1.0  0.58430  0.30934  0.65511  1.0000
  H   H643      1.0  0.56144  0.04597  0.62547  1.0000
  H   H644      1.0  0.59119  0.12750  0.59293  1.0000
  H   H645      1.0  0.59252  0.35083  0.61587  1.0000
  S   S145      1.0  0.50386  0.05730  0.55534  1.0000
  C   C524      1.0  0.56664  0.31848  0.66104  1.0000
  C   C525      1.0  0.50086  0.43735  0.52113  1.0000
  C   C526      1.0  0.50238  0.14541  0.50366  1.0000
  H   H646      1.0  0.51484  0.16289  0.50318  1.0000
  C   C527      1.0  0.50028  0.46725  0.47861  1.0000
  H   H647      1.0  0.55330  0.39396  0.64701  1.0000
  H   H648      1.0  0.62813  0.16655  0.56186  1.0000
  C   C528      1.0  0.60523  0.21177  0.57848  1.0000
  C   C529      1.0  0.59928  0.22856  0.61450  1.0000
  C   C530      1.0  0.67044  0.46106  0.49737  1.0000
  C   C531      1.0  0.54147  0.35625  0.62300  1.0000
  H   H649      1.0  0.49844  0.41845  0.52843  1.0000
  H   H650      1.0  0.52288  0.00289  0.54785  1.0000
  H   H651      1.0  0.51639  0.12801  0.50560  1.0000
  H   H652      1.0  0.50344  0.07953  0.66127  1.0000
  C   C532      1.0  0.58615  0.34059  0.62837  1.0000
  S   S146      1.0  0.57640  0.20646  0.66321  1.0000
  C   C533      1.0  0.51563  0.45847  0.49385  1.0000
  H   H653      1.0  0.54832  0.36536  0.61020  1.0000
  H   H654      1.0  0.51368  0.44947  0.52980  1.0000
  H   H655      1.0  0.59263  0.16309  0.56199  1.0000
  H   H656      1.0  0.64162  0.13380  0.59314  1.0000
  C   C534      1.0  0.60298  0.20164  0.61053  1.0000
  H   H657      1.0  0.67126  0.41943  0.49782  1.0000
  H   H658      1.0  0.65277  0.16674  0.59145  1.0000
  C   C535      1.0  0.58937  0.14876  0.59677  1.0000
  H   H659      1.0  0.51012  0.03254  0.62350  1.0000
  C   C536      1.0  0.60602  0.19238  0.59237  1.0000
  H   H660      1.0  0.72241  0.41213  0.53698  1.0000
  C   C537      1.0  0.60620  0.47921  0.51813  1.0000
  H   H661      1.0  0.61490  0.13548  0.56652  1.0000
  N   N34       1.0  0.51212  0.43272  0.50275  1.0000
  H   H662      1.0  0.55132  0.42722  0.51456  1.0000
  N   N35       1.0  0.56276  0.35441  0.63693  1.0000
  H   H663      1.0  0.63647  0.15642  0.61168  1.0000
  C   C538      1.0  0.59877  0.24705  0.60057  1.0000
  H   H664      1.0  0.60357  0.33993  0.63766  1.0000
  C   C539      1.0  0.67756  0.45976  0.53496  1.0000
  N   N36       1.0  0.68013  0.41004  0.53527  1.0000
  C   C540      1.0  0.70512  0.40908  0.54592  1.0000
  C   C541      1.0  0.65768  0.40773  0.54796  1.0000
  C   C542      1.0  0.68085  0.38648  0.52313  1.0000
  C   C543      1.0  0.67707  0.43538  0.52537  1.0000
  C   C544      1.0  0.67311  0.43676  0.50624  1.0000
  H   H665      1.0  0.50945  0.16739  0.53622  1.0000
  C   C545      1.0  0.60494  0.47312  0.48562  1.0000
  H   H666      1.0  0.56956  0.15650  0.59214  1.0000
  C   C546      1.0  0.53443  0.47600  0.50068  1.0000
  H   H667      1.0  0.58581  0.38094  0.65268  1.0000
  H   H668      1.0  0.50936  0.13283  0.53917  1.0000
  H   H669      1.0  0.51958  0.36894  0.65802  1.0000
  C   C547      1.0  0.53057  0.35153  0.66279  1.0000
  C   C548      1.0  0.51509  0.08451  0.61476  1.0000
  C   C549      1.0  0.51492  0.99537  0.53524  1.0000
  H   H670      1.0  0.60494  0.48112  0.47202  1.0000
  H   H671      1.0  0.52090  0.05161  0.64193  1.0000
  H   H672      1.0  0.54663  0.47095  0.51234  1.0000
  H   H673      1.0  0.53047  0.09037  0.62467  1.0000
  C   C550      1.0  0.50417  0.49171  0.47054  1.0000
  C   C551      1.0  0.49626  0.15052  0.53602  1.0000
  H   H674      1.0  0.49499  0.19978  0.51786  1.0000
  C   C552      1.0  0.49420  0.41545  0.49261  1.0000
  H   H675      1.0  0.60719  0.49215  0.52984  1.0000
  Fe  Fe73      1.0  0.85101  0.36013  0.78349  1.0000
  S   S147      1.0  0.83414  0.36176  0.81169  1.0000
  S   S148      1.0  0.82357  0.36105  0.75834  1.0000
  Fe  Fe74      1.0  0.90915  0.34827  0.79768  1.0000
  S   S149      1.0  0.89491  0.34769  0.82646  1.0000
  S   S150      1.0  0.95302  0.33425  0.79515  1.0000
  Fe  Fe75      1.0  0.86062  0.32598  0.81642  1.0000
  S   S151      1.0  0.84546  0.29227  0.83208  1.0000
  Fe  Fe76      1.0  0.87013  0.38366  0.81925  1.0000
  S   S152      1.0  0.87307  0.41476  0.84099  1.0000
  S   S153      1.0  0.87631  0.32278  0.78803  1.0000
  S   S154      1.0  0.88559  0.38579  0.79058  1.0000
  Fe  Fe77      1.0  0.64273  0.36768  0.69307  1.0000
  S   S155      1.0  0.63191  0.38318  0.72101  1.0000
  H   H676      1.0  0.96767  0.11497  0.79668  1.0000
  Fe  Fe78      1.0  0.65106  0.31201  0.70620  1.0000
  S   S156      1.0  0.64037  0.32299  0.73480  1.0000
  S   S157      1.0  0.66519  0.27006  0.70141  1.0000
  Fe  Fe79      1.0  0.60664  0.34776  0.72242  1.0000
  S   S158      1.0  0.56483  0.34280  0.73364  1.0000
  Fe  Fe80      1.0  0.66671  0.35694  0.73059  1.0000
  S   S159      1.0  0.69672  0.36773  0.75265  1.0000
  S   S160      1.0  0.61583  0.33384  0.69399  1.0000
  S   S161      1.0  0.67905  0.34440  0.70252  1.0000
  Fe  Fe81      1.0  0.79213  0.18280  0.78143  1.0000
  S   S162      1.0  0.80646  0.15287  0.76069  1.0000
  S   S163      1.0  0.78638  0.22546  0.77406  1.0000
  Fe  Fe82      1.0  0.78184  0.14169  0.80969  1.0000
  S   S164      1.0  0.79427  0.10840  0.79094  1.0000
  S   S165      1.0  0.76618  0.13953  0.83824  1.0000
  Fe  Fe83      1.0  0.82884  0.13352  0.78416  1.0000
  S   S166      1.0  0.87097  0.11601  0.78895  1.0000
  Fe  Fe84      1.0  0.77060  0.13121  0.76945  1.0000
  S   S167      1.0  0.74150  0.11564  0.74834  1.0000
  S   S168      1.0  0.81694  0.16548  0.80407  1.0000
  S   S169      1.0  0.75575  0.16231  0.78896  1.0000
  Fe  Fe85      1.0  0.58821  0.13697  0.71205  1.0000
  S   S170      1.0  0.60091  0.13613  0.68273  1.0000
  S   S171      1.0  0.61688  0.14003  0.73643  1.0000
  Fe  Fe86      1.0  0.52751  0.14451  0.70173  1.0000
  S   S172      1.0  0.53729  0.14447  0.67201  1.0000
  C   C553      1.0  0.50465  0.39191  0.71394  1.0000
  Fe  Fe87      1.0  0.56616  0.11077  0.67810  1.0000
  H   H677      1.0  0.82284  0.45079  0.99155  1.0000
  Fe  Fe88      1.0  0.57077  0.16962  0.67922  1.0000
  H   H678      1.0  0.97614  0.45445  0.94151  1.0000
  S   S173      1.0  0.55480  0.10894  0.70782  1.0000
  S   S174      1.0  0.55981  0.17231  0.70856  1.0000
  Fe  Fe89      1.0  0.85482  0.13728  0.94816  1.0000
  S   S175      1.0  0.86804  0.12635  0.91982  1.0000
  H   H679      1.0  0.77985  0.17835  0.72053  1.0000
  Fe  Fe90      1.0  0.86352  0.07882  0.96181  1.0000
  S   S176      1.0  0.87775  0.06503  0.93449  1.0000
  H   H680      1.0  0.54755  0.39152  0.71438  1.0000
  Fe  Fe91      1.0  0.89974  0.10208  0.93380  1.0000
  S   S177      1.0  0.94075  0.10031  0.92276  1.0000
  Fe  Fe92      1.0  0.84441  0.09047  0.92289  1.0000
  S   S178      1.0  0.82450  0.07095  0.89918  1.0000
  S   S179      1.0  0.82817  0.10249  0.95033  1.0000
  Fe  Fe93      1.0  0.89024  0.33127  0.96041  1.0000
  S   S180      1.0  0.89012  0.34042  0.93075  1.0000
  H   H681      1.0  0.87744  0.26595  0.80282  1.0000
  Fe  Fe94      1.0  0.88875  0.39186  0.97068  1.0000
  S   S181      1.0  0.88958  0.40412  0.94143  1.0000
  C   C554      1.0  0.74084  0.19199  0.74365  1.0000
  Fe  Fe95      1.0  0.86031  0.37293  0.93705  1.0000
  S   S182      1.0  0.82745  0.37895  0.91668  1.0000
  Fe  Fe96      1.0  0.91934  0.37051  0.93735  1.0000
  S   S183      1.0  0.95301  0.36844  0.91755  1.0000
  S   S184      1.0  0.85725  0.36180  0.96655  1.0000
  H   H682      1.0  0.76115  0.19192  0.74935  1.0000
  C   C555      1.0  0.97438  0.39370  0.92175  1.0000
  C   C556      1.0  0.96538  0.41682  0.93066  1.0000
  H   H683      1.0  0.94494  0.41937  0.93478  1.0000
  H   H684      1.0  0.50254  0.41109  0.70761  1.0000
  C   C557      1.0  0.78619  0.42050  0.73403  1.0000
  H   H685      1.0  0.84580  0.27744  0.95702  1.0000
  H   H686      1.0  0.96005  0.29976  0.92245  1.0000
  C   C558      1.0  0.89783  0.23375  0.96367  1.0000
  C   C559      1.0  0.88521  0.20985  0.96041  1.0000
  H   H687      1.0  0.91859  0.23304  0.96708  1.0000
  H   H688      1.0  0.89629  0.19114  0.96143  1.0000
  H   H689      1.0  0.93626  0.22671  0.99755  1.0000
  H   H690      1.0  0.72555  0.28199  0.70082  1.0000
  C   C560      1.0  0.95940  0.12117  0.93602  1.0000
  C   C561      1.0  0.94668  0.14000  0.94733  1.0000
  H   H691      1.0  0.92567  0.14415  0.94609  1.0000
  C   C562      1.0  0.81057  0.09141  0.88205  1.0000
  C   C563      1.0  0.79827  0.11593  0.88632  1.0000
  C   C564      1.0  0.78515  0.13082  0.87268  1.0000
  C   C565      1.0  0.78512  0.12178  0.85461  1.0000
  C   C566      1.0  0.79850  0.09784  0.85019  1.0000
  C   C567      1.0  0.81078  0.08247  0.86395  1.0000
  H   H692      1.0  0.79790  0.12291  0.90025  1.0000
  H   H693      1.0  0.77468  0.14924  0.87619  1.0000
  H   H694      1.0  0.79841  0.09062  0.83633  1.0000
  H   H695      1.0  0.82024  0.06349  0.86059  1.0000
  C   C568      1.0  0.70722  0.12440  0.74455  1.0000
  C   C569      1.0  0.69460  0.11501  0.72886  1.0000
  C   C570      1.0  0.66729  0.12050  0.72572  1.0000
  C   C571      1.0  0.65202  0.13508  0.73845  1.0000
  C   C572      1.0  0.66477  0.14483  0.75399  1.0000
  C   C573      1.0  0.69218  0.13990  0.75690  1.0000
  H   H696      1.0  0.70592  0.10304  0.71915  1.0000
  H   H697      1.0  0.65787  0.11268  0.71375  1.0000
  H   H698      1.0  0.65317  0.15578  0.76407  1.0000
  H   H699      1.0  0.70149  0.14742  0.76894  1.0000
  C   C574      1.0  0.90670  0.14916  0.77270  1.0000
  C   C575      1.0  0.90286  0.12816  0.78451  1.0000
  C   C576      1.0  0.92515  0.11589  0.79298  1.0000
  H   H700      1.0  0.88987  0.15866  0.76589  1.0000
  H   H701      1.0  0.92261  0.09929  0.80186  1.0000
  H   H702      1.0  0.71222  0.23747  0.70535  1.0000
  H   H703      1.0  0.89153  0.46621  0.96905  1.0000
  C   C577      1.0  0.93044  0.08826  0.99518  1.0000
  C   C578      1.0  0.63470  0.09622  0.78349  1.0000
  H   H704      1.0  0.83799  0.43567  0.92988  1.0000
  C   C579      1.0  0.64164  0.25211  0.68981  1.0000
  C   C580      1.0  0.63899  0.22549  0.69399  1.0000
  C   C581      1.0  0.61907  0.21134  0.68570  1.0000
  C   C582      1.0  0.53577  0.31826  0.68613  1.0000
  H   H705      1.0  0.71166  0.46158  0.69826  1.0000
  H   H706      1.0  0.70828  0.16993  0.72024  1.0000
  H   H707      1.0  0.65179  0.21597  0.70402  1.0000
  H   H708      1.0  0.61661  0.19102  0.68940  1.0000
  H   H709      1.0  0.90908  0.08390  0.99421  1.0000
  C   C583      1.0  0.73842  0.42166  0.73145  1.0000
  C   C584      1.0  0.86007  0.40470  0.86186  1.0000
  C   C585      1.0  0.83989  0.38677  0.86251  1.0000
  C   C586      1.0  0.82942  0.37943  0.87932  1.0000
  C   C587      1.0  0.83993  0.38900  0.89559  1.0000
  C   C588      1.0  0.86035  0.40664  0.89488  1.0000
  C   C589      1.0  0.87001  0.41485  0.87810  1.0000
  H   H710      1.0  0.83181  0.37913  0.85004  1.0000
  H   H711      1.0  0.81327  0.36623  0.87965  1.0000
  H   H712      1.0  0.86832  0.41461  0.90720  1.0000
  H   H713      1.0  0.88527  0.42906  0.87771  1.0000
  C   C590      1.0  0.82566  0.27516  0.81699  1.0000
  C   C591      1.0  0.81937  0.28587  0.79995  1.0000
  C   C592      1.0  0.80661  0.27079  0.78690  1.0000
  C   C593      1.0  0.79995  0.24509  0.79097  1.0000
  C   C594      1.0  0.80443  0.23514  0.80844  1.0000
  C   C595      1.0  0.81756  0.25006  0.82143  1.0000
  H   H714      1.0  0.82480  0.30559  0.79663  1.0000
  H   H715      1.0  0.80274  0.27880  0.77350  1.0000
  H   H716      1.0  0.79784  0.21595  0.81198  1.0000
  H   H717      1.0  0.82203  0.24188  0.83468  1.0000
  C   C596      1.0  0.78825  0.36006  0.75751  1.0000
  C   C597      1.0  0.77568  0.35407  0.74094  1.0000
  C   C598      1.0  0.74775  0.35531  0.73930  1.0000
  C   C599      1.0  0.73195  0.36311  0.75417  1.0000
  C   C600      1.0  0.74450  0.36846  0.77082  1.0000
  C   C601      1.0  0.77236  0.36672  0.77254  1.0000
  H   H718      1.0  0.78769  0.34906  0.72918  1.0000
  H   H719      1.0  0.73856  0.35117  0.72639  1.0000
  H   H720      1.0  0.73261  0.37457  0.78244  1.0000
  H   H721      1.0  0.78158  0.37152  0.78535  1.0000
  H   H722      1.0  0.92054  0.05964  0.96601  1.0000
  H   H723      1.0  0.72352  0.37781  0.69562  1.0000
  H   H724      1.0  0.82337  0.23547  0.95165  1.0000
  H   H725      1.0  0.96686  0.38997  0.79201  1.0000
  H   H726      1.0  0.73310  0.17264  0.74732  1.0000
  H   H727      1.0  0.64726  0.10979  0.80933  1.0000
  C   C602      1.0  0.53330  0.35652  0.72661  1.0000
  H   H728      1.0  0.73275  0.07262  0.79868  1.0000
  C   C603      1.0  0.71352  0.19050  0.71704  1.0000
  N   N37       1.0  0.83819  0.29276  0.88921  1.0000
  C   C604      1.0  0.82705  0.30950  0.90416  1.0000
  C   C605      1.0  0.85789  0.30783  0.87914  1.0000
  C   C606      1.0  0.81634  0.28740  0.87634  1.0000
  C   C607      1.0  0.85095  0.26848  0.89704  1.0000
  C   C608      1.0  0.84013  0.24319  0.89515  1.0000
  C   C609      1.0  0.87424  0.26990  0.90775  1.0000
  C   C610      1.0  0.85228  0.22082  0.90322  1.0000
  C   C611      1.0  0.88640  0.24735  0.91554  1.0000
  C   C612      1.0  0.87546  0.22286  0.91325  1.0000
  H   H729      1.0  0.84262  0.31624  0.91357  1.0000
  H   H730      1.0  0.81645  0.32764  0.89894  1.0000
  H   H731      1.0  0.81284  0.29862  0.91246  1.0000
  H   H732      1.0  0.87267  0.31671  0.88821  1.0000
  H   H733      1.0  0.84841  0.32469  0.87150  1.0000
  H   H734      1.0  0.86861  0.29499  0.86896  1.0000
  H   H735      1.0  0.79929  0.27884  0.88330  1.0000
  H   H736      1.0  0.80840  0.30577  0.86961  1.0000
  H   H737      1.0  0.82331  0.27382  0.86522  1.0000
  H   H738      1.0  0.82210  0.24016  0.88772  1.0000
  H   H739      1.0  0.88293  0.28855  0.91050  1.0000
  H   H740      1.0  0.84339  0.20182  0.90208  1.0000
  H   H741      1.0  0.90392  0.24896  0.92391  1.0000
  H   H742      1.0  0.88448  0.20552  0.91976  1.0000
  H   H743      1.0  0.71184  0.08735  0.83477  1.0000
  C   C613      1.0  0.77294  0.23220  0.72600  1.0000
  C   C614      1.0  0.85818  0.21020  0.95621  1.0000
  H   H744      1.0  0.94189  0.29038  0.94206  1.0000
  N   N38       1.0  0.81628  0.00684  0.93828  1.0000
  S   S185      1.0  0.64169  0.39612  0.66957  1.0000
  H   H745      1.0  0.83282  0.47053  0.93036  1.0000
  H   H746      1.0  0.82918  0.03877  0.95511  1.0000
  C   C615      1.0  0.52273  0.25056  0.71727  1.0000
  C   C616      1.0  0.55787  0.30733  0.67715  1.0000
  C   C617      1.0  0.88382  0.25840  0.96256  1.0000
  H   H747      1.0  0.75986  0.42194  0.75683  1.0000
  H   H748      1.0  0.93266  0.10671  0.98732  1.0000
  H   H749      1.0  0.96010  0.11549  0.88601  1.0000
  N   N39       1.0  0.70115  0.09980  0.80765  1.0000
  C   C618      1.0  0.76133  0.42181  0.74212  1.0000
  C   C619      1.0  0.66822  0.07664  0.76378  1.0000
  C   C620      1.0  0.93251  0.15742  0.76927  1.0000
  N   N40       1.0  0.71608  0.41936  0.70037  1.0000
  N   N41       1.0  0.98245  0.30006  0.94737  1.0000
  H   H750      1.0  0.78546  0.46785  0.93611  1.0000
  C   C621      1.0  0.69889  0.12818  0.81283  1.0000
  C   C622      1.0  0.57053  0.25554  0.71390  1.0000
  S   S186      1.0  0.88582  0.42184  0.99455  1.0000
  S   S187      1.0  0.92161  0.36031  0.96696  1.0000
  N   N42       1.0  0.71837  0.28258  0.77339  1.0000
  C   C623      1.0  0.70110  0.30690  0.77530  1.0000
  C   C624      1.0  0.73268  0.27859  0.79089  1.0000
  C   C625      1.0  0.73843  0.28687  0.75919  1.0000
  C   C626      1.0  0.70213  0.26020  0.76807  1.0000
  C   C627      1.0  0.70065  0.23693  0.77869  1.0000
  C   C628      1.0  0.68666  0.26150  0.75193  1.0000
  C   C629      1.0  0.68417  0.21670  0.77357  1.0000
  C   C630      1.0  0.67010  0.24129  0.74707  1.0000
  C   C631      1.0  0.66881  0.21897  0.75786  1.0000
  H   H751      1.0  0.68485  0.30411  0.78515  1.0000
  H   H752      1.0  0.71235  0.32400  0.78008  1.0000
  H   H753      1.0  0.69180  0.31312  0.76222  1.0000
  H   H754      1.0  0.74505  0.29558  0.79431  1.0000
  H   H755      1.0  0.74655  0.26094  0.79031  1.0000
  H   H756      1.0  0.71877  0.27638  0.80240  1.0000
  H   H757      1.0  0.72931  0.29244  0.74593  1.0000
  H   H758      1.0  0.75150  0.30317  0.76296  1.0000
  H   H759      1.0  0.75138  0.26874  0.75706  1.0000
  H   H760      1.0  0.71205  0.23385  0.79098  1.0000
  H   H761      1.0  0.68695  0.27835  0.74299  1.0000
  H   H762      1.0  0.68325  0.19916  0.78185  1.0000
  H   H763      1.0  0.65803  0.24305  0.73489  1.0000
  H   H764      1.0  0.65584  0.20342  0.75398  1.0000
  C   C632      1.0  0.97633  0.07048  0.99034  1.0000
  C   C633      1.0  0.81650  0.47302  0.96615  1.0000
  S   S188      1.0  0.88832  0.11473  0.96214  1.0000
  H   H765      1.0  0.51235  0.32465  0.73815  1.0000
  C   C634      1.0  0.91930  0.25861  0.79888  1.0000
  H   H766      1.0  0.67706  0.08830  0.83019  1.0000
  H   H767      1.0  0.94588  0.34223  0.85209  1.0000
  C   C635      1.0  0.69110  0.41711  0.71068  1.0000
  H   H768      1.0  0.69189  0.39916  0.71933  1.0000
  H   H769      1.0  0.85861  0.00754  0.93639  1.0000
  C   C636      1.0  0.92378  0.12072  0.87072  1.0000
  H   H770      1.0  0.92115  0.13895  0.82612  1.0000
  C   C637      1.0  0.68109  0.09393  0.79366  1.0000
  H   H771      1.0  0.67997  0.13376  0.81974  1.0000
  C   C638      1.0  0.71341  0.44372  0.68937  1.0000
  C   C639      1.0  0.83678  0.45311  0.93919  1.0000
  H   H772      1.0  0.79921  0.26432  0.72825  1.0000
  N   N43       1.0  0.49738  0.23949  0.71165  1.0000
  H   H773      1.0  0.85037  0.15098  0.83946  1.0000
  H   H774      1.0  0.58883  0.25080  0.70679  1.0000
  C   C640      1.0  0.95617  0.13415  0.84187  1.0000
  H   H775      1.0  0.58881  0.28129  0.73304  1.0000
  C   C641      1.0  0.87080  0.01601  0.98965  1.0000
  H   H776      1.0  0.86786  0.21882  0.80503  1.0000
  H   H777      1.0  0.62734  0.28473  0.67334  1.0000
  C   C642      1.0  0.74815  0.22347  0.71991  1.0000
  H   H778      1.0  0.98385  0.46809  0.86480  1.0000
  C   C643      1.0  0.99183  0.27200  0.94617  1.0000
  H   H779      1.0  0.71200  0.19243  0.70201  1.0000
  N   N44       1.0  0.74041  0.19625  0.72375  1.0000
  H   H780      1.0  0.87891  0.16864  0.84616  1.0000
  H   H781      1.0  0.97326  0.32924  0.96824  1.0000
  C   C644      1.0  0.71869  0.39623  0.68790  1.0000
  H   H782      1.0  0.93524  0.17323  0.75976  1.0000
  S   S189      1.0  0.86306  0.05059  0.98634  1.0000
  H   H783      1.0  0.88585  0.00788  0.96282  1.0000
  C   C645      1.0  0.76549  0.42000  0.70434  1.0000
  H   H784      1.0  0.90434  0.18462  0.80264  1.0000
  H   H785      1.0  0.84120  0.02210  0.91737  1.0000
  H   H786      1.0  0.50229  0.20657  0.72985  1.0000
  H   H787      1.0  0.98266  0.21130  0.99806  1.0000
  H   H788      1.0  0.73321  0.10529  0.78905  1.0000
  H   H789      1.0  0.79365  0.03689  0.95331  1.0000
  H   H790      1.0  0.88453  0.08437  0.84782  1.0000
  C   C646      1.0  0.98854  0.14892  0.96143  1.0000
  C   C647      1.0  0.94066  0.23960  0.79705  1.0000
  H   H791      1.0  0.76901  0.29612  0.71207  1.0000
  C   C648      1.0  0.57064  0.27248  0.72883  1.0000
  C   C649      1.0  0.86732  0.12631  0.86792  1.0000
  H   H792      1.0  0.67369  0.41562  0.70147  1.0000
  C   C650      1.0  0.78030  0.25809  0.72318  1.0000
  H   H793      1.0  0.71479  0.13353  0.82252  1.0000
  C   C651      1.0  0.95082  0.12479  0.79009  1.0000
  H   H794      1.0  0.78670  0.21914  0.73331  1.0000
  C   C652      1.0  0.90859  0.20531  0.80165  1.0000
  H   H795      1.0  0.50608  0.27276  0.74041  1.0000
  S   S190      1.0  0.84076  0.18067  0.95265  1.0000
  H   H796      1.0  0.67376  0.06789  0.75077  1.0000
  C   C653      1.0  0.98601  0.09541  0.99539  1.0000
  H   H797      1.0  0.85596  0.10075  0.83748  1.0000
  C   C654      1.0  0.84102  0.00579  0.92745  1.0000
  H   H798      1.0  0.75393  0.15613  0.71770  1.0000
  H   H799      1.0  0.68675  0.43467  0.71951  1.0000
  C   C655      1.0  0.78827  0.41980  0.71518  1.0000
  S   S191      1.0  0.90056  0.28786  0.96782  1.0000
  C   C656      1.0  0.65390  0.10070  0.79673  1.0000
  H   H800      1.0  0.81207  0.04915  0.93488  1.0000
  H   H801      1.0  0.84562  0.12793  0.86537  1.0000
  H   H802      1.0  0.80387  0.41950  0.74244  1.0000
  H   H803      1.0  0.94946  0.19669  0.79765  1.0000
  H   H804      1.0  0.95337  0.04605  0.96218  1.0000
  H   H805      1.0  0.87216  0.14303  0.87702  1.0000
  H   H806      1.0  0.80771  0.41872  0.70898  1.0000
  C   C657      1.0  0.91160  0.12771  0.85384  1.0000
  H   H807      1.0  0.97268  0.21048  0.95855  1.0000
  H   H808      1.0  0.69550  0.44373  0.68048  1.0000
  H   H809      1.0  0.70772  0.07553  0.77306  1.0000
  C   C658      1.0  0.96117  0.15351  0.96031  1.0000
  C   C659      1.0  0.87747  0.10237  0.84032  1.0000
  H   H810      1.0  0.91263  0.11483  0.88239  1.0000
  H   H811      1.0  0.87074  0.10745  0.87545  1.0000
  C   C660      1.0  0.97674  0.25209  0.95400  1.0000
  H   H812      1.0  0.96886  0.13892  0.83061  1.0000
  C   C661      1.0  0.76330  0.27602  0.71413  1.0000
  N   N45       1.0  0.95752  0.38246  0.85545  1.0000
  H   H813      1.0  0.88765  0.10192  0.82691  1.0000
  H   H814      1.0  0.95113  0.16738  0.96948  1.0000
  H   H815      1.0  0.72888  0.20770  0.75084  1.0000
  N   N46       1.0  0.88269  0.12667  0.85074  1.0000
  C   C662      1.0  0.88850  0.47426  0.98255  1.0000
  C   C663      1.0  0.87240  0.14984  0.84010  1.0000
  C   C664      1.0  0.95721  0.30364  0.93723  1.0000
  C   C665      1.0  0.84425  0.23487  0.95491  1.0000
  H   H816      1.0  0.87868  0.14888  0.82562  1.0000
  C   C666      1.0  0.72878  0.09401  0.80153  1.0000
  C   C667      1.0  0.95126  0.12088  0.87300  1.0000
  C   C668      1.0  0.60227  0.22357  0.67284  1.0000
  C   C669      1.0  0.52367  0.26756  0.73264  1.0000
  H   H817      1.0  0.74344  0.09950  0.81209  1.0000
  H   H818      1.0  0.96134  0.40543  0.83114  1.0000
  C   C670      1.0  0.88804  0.22449  0.80301  1.0000
  C   C671      1.0  0.53024  0.38084  0.71775  1.0000
  C   C672      1.0  0.68764  0.08129  0.77683  1.0000
  H   H819      1.0  0.96371  0.28238  0.81146  1.0000
  H   H820      1.0  0.92803  0.39712  0.83617  1.0000
  H   H821      1.0  0.80604  0.42026  0.97236  1.0000
  C   C673      1.0  0.94911  0.38973  0.83671  1.0000
  H   H822      1.0  0.98973  0.21367  0.80364  1.0000
  C   C674      1.0  0.73137  0.24221  0.71061  1.0000
  C   C675      1.0  0.62499  0.26432  0.67684  1.0000
  H   H823      1.0  0.92804  0.41025  0.86650  1.0000
  H   H824      1.0  0.94890  0.35317  0.87530  1.0000
  H   H825      1.0  0.79180  0.01799  0.91528  1.0000
  C   C676      1.0  0.75943  0.17685  0.71514  1.0000
  C   C677      1.0  0.94964  0.40501  0.86758  1.0000
  H   H826      1.0  0.70048  0.14095  0.80071  1.0000
  H   H827      1.0  0.54755  0.29166  0.74984  1.0000
  H   H828      1.0  0.69801  0.06227  0.82066  1.0000
  C   C678      1.0  0.69679  0.08375  0.82403  1.0000
  H   H829      1.0  0.92100  0.36429  0.86173  1.0000
  H   H830      1.0  0.77395  0.44833  0.95448  1.0000
  H   H831      1.0  0.51330  0.20533  0.69703  1.0000
  H   H832      1.0  0.78900  0.43267  0.93478  1.0000
  H   H833      1.0  0.96084  0.25352  0.76512  1.0000
  C   C679      1.0  0.94188  0.06299  0.96841  1.0000
  H   H834      1.0  0.84115  0.42334  0.96897  1.0000
  C   C680      1.0  0.94274  0.35949  0.86137  1.0000
  C   C681      1.0  0.73983  0.42035  0.71215  1.0000
  H   H835      1.0  0.85662  0.45510  0.94552  1.0000
  H   H836      1.0  0.69805  0.20378  0.72343  1.0000
  C   C682      1.0  0.82023  0.49176  0.99689  1.0000
  C   C683      1.0  0.60548  0.24994  0.66822  1.0000
  C   C684      1.0  0.73890  0.26807  0.70785  1.0000
  H   H837      1.0  0.52966  0.31008  0.69894  1.0000
  C   C685      1.0  0.92873  0.13419  0.83946  1.0000
  H   H838      1.0  0.76815  0.41951  0.68979  1.0000
  C   C686      1.0  0.79371  0.00241  0.92592  1.0000
  H   H839      1.0  0.92243  0.27954  0.79809  1.0000
  C   C687      1.0  0.79002  0.44984  0.94429  1.0000
  H   H840      1.0  0.95338  0.40022  0.88215  1.0000
  C   C688      1.0  0.85697  0.25878  0.95789  1.0000
  H   H841      1.0  0.54853  0.23180  0.69633  1.0000
  C   C689      1.0  0.98495  0.37784  0.79313  1.0000
  H   H842      1.0  0.96013  0.42300  0.86398  1.0000
  C   C690      1.0  0.93457  0.21260  0.79871  1.0000
  N   N47       1.0  0.81623  0.45040  0.95331  1.0000
  H   H843      1.0  0.94857  0.32404  0.93881  1.0000
  N   N48       1.0  0.96779  0.24819  0.79374  1.0000
  C   C691      1.0  0.89343  0.25106  0.80170  1.0000
  C   C692      1.0  0.97781  0.30764  0.96666  1.0000
  C   C693      1.0  0.95474  0.14542  0.77802  1.0000
  H   H844      1.0  0.82145  0.40786  0.95211  1.0000
  C   C694      1.0  0.81982  0.46988  0.98524  1.0000
  C   C695      1.0  0.98689  0.11744  0.93658  1.0000
  H   H845      1.0  0.95842  0.25708  0.96103  1.0000
  H   H846      1.0  0.76018  0.17971  0.70017  1.0000
  H   H847      1.0  0.97639  0.25257  0.82221  1.0000
  C   C696      1.0  0.51042  0.34317  0.73104  1.0000
  H   H848      1.0  0.62709  0.08170  0.75653  1.0000
  H   H849      1.0  0.50648  0.23415  0.68315  1.0000
  C   C697      1.0  0.49954  0.22284  0.69498  1.0000
  C   C698      1.0  0.98296  0.43668  0.93439  1.0000
  H   H850      1.0  0.71993  0.42176  0.73876  1.0000
  C   C699      1.0  0.64188  0.08435  0.76701  1.0000
  C   C700      1.0  0.82145  0.42441  0.96215  1.0000
  C   C701      1.0  0.96743  0.12755  0.85861  1.0000
  H   H851      1.0  0.50492  0.34882  0.68600  1.0000
  C   C702      1.0  0.81264  0.03402  0.94581  1.0000
  H   H852      1.0  0.73068  0.44598  0.68032  1.0000
  H   H853      1.0  0.94915  0.02348  0.99130  1.0000
  H   H854      1.0  0.96058  0.29791  0.97254  1.0000
  C   C703      1.0  0.54730  0.27830  0.73827  1.0000
  H   H855      1.0  0.95055  0.37272  0.82710  1.0000
  H   H856      1.0  0.94685  0.08091  0.96070  1.0000
  H   H857      1.0  0.61417  0.10236  0.78581  1.0000
  N   N49       1.0  0.94777  0.06612  0.98800  1.0000
  C   C704      1.0  0.54701  0.24474  0.70805  1.0000
  C   C705      1.0  0.88546  0.45713  0.99718  1.0000
  C   C706      1.0  0.88161  0.99962  0.97592  1.0000
  H   H858      1.0  0.98248  0.21309  0.77953  1.0000
  H   H859      1.0  0.56875  0.29053  0.68302  1.0000
  C   C707      1.0  0.98366  0.35043  0.79470  1.0000
  C   C708      1.0  0.97646  0.26417  0.80941  1.0000
  C   C709      1.0  0.96817  0.26455  0.77710  1.0000
  H   H860      1.0  0.95573  0.28311  0.77839  1.0000
  C   C710      1.0  0.98463  0.22537  0.95260  1.0000
  H   H861      1.0  0.97322  0.11285  0.99731  1.0000
  C   C711      1.0  0.98626  0.37536  0.85579  1.0000
  H   H862      1.0  0.73439  0.39822  0.67757  1.0000
  H   H863      1.0  0.49623  0.39647  0.75923  1.0000
  H   H864      1.0  0.98472  0.34534  0.83441  1.0000
  S   S192      1.0  0.98705  0.15558  0.77251  1.0000
  H   H865      1.0  0.70011  0.39333  0.68007  1.0000
  H   H866      1.0  0.98877  0.12731  0.86037  1.0000
  H   H867      1.0  0.81032  0.01154  0.97645  1.0000
  H   H868      1.0  0.77476  0.00264  0.93358  1.0000
  H   H869      1.0  0.98982  0.03063  0.98209  1.0000
  C   C712      1.0  0.94046  0.04184  0.99762  1.0000
  H   H870      1.0  0.91869  0.03946  0.99736  1.0000
  C   C713      1.0  0.52199  0.34017  0.67887  1.0000
  C   C714      1.0  0.98764  0.22595  0.79121  1.0000
  H   H871      1.0  0.98847  0.27083  0.77401  1.0000
  H   H872      1.0  0.96377  0.48467  0.99928  1.0000
  H   H873      1.0  0.99350  0.33970  0.94114  1.0000
  Fe  Fe97      1.0  0.87014  0.86913  0.21434  1.0000
  S   S193      1.0  0.86153  0.85887  0.18517  1.0000
  S   S194      1.0  0.83925  0.87668  0.23691  1.0000
  Fe  Fe98      1.0  0.93125  0.87071  0.20733  1.0000
  S   S195      1.0  0.92609  0.86025  0.17798  1.0000
  S   S196      1.0  0.97125  0.88584  0.21636  1.0000
  Fe  Fe99      1.0  0.89107  0.88869  0.17817  1.0000
  S   S197      1.0  0.88795  0.91851  0.15571  1.0000
  Fe  Fe100     1.0  0.89734  0.83128  0.18771  1.0000
  S   S198      1.0  0.90028  0.79115  0.17453  1.0000
  S   S199      1.0  0.89740  0.90135  0.20697  1.0000
  S   S200      1.0  0.90468  0.83929  0.21740  1.0000
  Fe  Fe101     1.0  0.66363  0.87575  0.30678  1.0000
  S   S201      1.0  0.64974  0.89021  0.27925  1.0000
  Fe  Fe102     1.0  0.67603  0.82059  0.29325  1.0000
  S   S202      1.0  0.66224  0.83042  0.26517  1.0000
  S   S203      1.0  0.69129  0.77895  0.29775  1.0000
  Fe  Fe103     1.0  0.68599  0.86655  0.26862  1.0000
  S   S204      1.0  0.71290  0.87498  0.24435  1.0000
  Fe  Fe104     1.0  0.62771  0.85259  0.27839  1.0000
  S   S205      1.0  0.58537  0.84194  0.27141  1.0000
  S   S206      1.0  0.70126  0.85547  0.29640  1.0000
  S   S207      1.0  0.64006  0.83962  0.30626  1.0000
  Fe  Fe105     1.0  0.80879  0.68746  0.19444  1.0000
  S   S208      1.0  0.81907  0.68616  0.22394  1.0000
  S   S209      1.0  0.79706  0.72735  0.18310  1.0000
  Fe  Fe106     1.0  0.82132  0.62919  0.18926  1.0000
  S   S210      1.0  0.83226  0.62353  0.21889  1.0000
  S   S211      1.0  0.83122  0.59682  0.16858  1.0000
  Fe  Fe107     1.0  0.79522  0.64969  0.22467  1.0000
  S   S212      1.0  0.76704  0.64822  0.24945  1.0000
  Fe  Fe108     1.0  0.85474  0.66060  0.21563  1.0000
  S   S213      1.0  0.89619  0.67490  0.22184  1.0000
  S   S214      1.0  0.78309  0.65253  0.19517  1.0000
  S   S215      1.0  0.84546  0.66453  0.18602  1.0000
  Fe  Fe109     1.0  0.58904  0.62159  0.31933  1.0000
  S   S216      1.0  0.57796  0.62218  0.28967  1.0000
  Fe  Fe110     1.0  0.59724  0.67971  0.32027  1.0000
  S   S217      1.0  0.58706  0.68492  0.29078  1.0000
  C   C715      1.0  0.90969  0.73156  0.03780  1.0000
  Fe  Fe111     1.0  0.55306  0.65887  0.29676  1.0000
  H   H874      1.0  0.92805  0.72868  0.04521  1.0000
  Fe  Fe112     1.0  0.61311  0.64796  0.28648  1.0000
  S   S218      1.0  0.64157  0.64100  0.26223  1.0000
  C   C716      1.0  0.79219  0.93998  0.20950  1.0000
  S   S219      1.0  0.62543  0.64468  0.31582  1.0000
  Fe  Fe113     1.0  0.86327  0.87559  0.05768  1.0000
  S   S220      1.0  0.84925  0.87114  0.02875  1.0000
  S   S221      1.0  0.83678  0.87984  0.08217  1.0000
  Fe  Fe114     1.0  0.91968  0.86213  0.04794  1.0000
  S   S222      1.0  0.91066  0.85680  0.01835  1.0000
  S   S223      1.0  0.95885  0.84891  0.05974  1.0000
  Fe  Fe115     1.0  0.88486  0.89451  0.02150  1.0000
  C   C717      1.0  0.50673  0.85499  0.28157  1.0000
  Fe  Fe116     1.0  0.87626  0.83416  0.02811  1.0000
  S   S224      1.0  0.86377  0.79373  0.01777  1.0000
  S   S225      1.0  0.89698  0.90103  0.05069  1.0000
  S   S226      1.0  0.88718  0.83747  0.05734  1.0000
  Fe  Fe117     1.0  0.85788  0.60395  0.06421  1.0000
  S   S227      1.0  0.85665  0.61529  0.03449  1.0000
  S   S228      1.0  0.82433  0.61630  0.08323  1.0000
  Fe  Fe118     1.0  0.91622  0.58885  0.06261  1.0000
  S   S229      1.0  0.91926  0.59947  0.03336  1.0000
  S   S230      1.0  0.95408  0.57496  0.07616  1.0000
  Fe  Fe119     1.0  0.89423  0.63610  0.04053  1.0000
  S   S231      1.0  0.91078  0.67712  0.03613  1.0000
  Fe  Fe120     1.0  0.88196  0.57728  0.03003  1.0000
  H   H875      1.0  0.85906  0.94958  0.20560  1.0000
  S   S232      1.0  0.89376  0.62627  0.07020  1.0000
  S   S233      1.0  0.88034  0.56490  0.05936  1.0000
  C   C718      1.0  0.88093  0.49599  0.01749  1.0000
  C   C719      1.0  0.55975  0.93762  0.31128  1.0000
  C   C720      1.0  0.94019  0.82601  0.13376  1.0000
  H   H876      1.0  0.51984  0.71387  0.26026  1.0000
  H   H877      1.0  0.81003  0.91249  0.17995  1.0000
  N   N50       1.0  0.96063  0.50589  0.03380  1.0000
  C   C721      1.0  0.97529  0.60127  0.07588  1.0000
  C   C722      1.0  0.96599  0.62585  0.06942  1.0000
  C   C723      1.0  0.49598  0.77776  0.26033  1.0000
  C   C724      1.0  0.53373  0.75790  0.27693  1.0000
  C   C725      1.0  0.87633  0.76151  0.02399  1.0000
  H   H878      1.0  0.50737  0.78430  0.24845  1.0000
  C   C726      1.0  0.87215  0.71336  0.02275  1.0000
  C   C727      1.0  0.89606  0.70931  0.03216  1.0000
  C   C728      1.0  0.74237  0.93437  0.22636  1.0000
  H   H879      1.0  0.90805  0.85257  0.09718  1.0000
  C   C729      1.0  0.94509  0.52728  0.02443  1.0000
  H   H880      1.0  0.84431  0.74211  0.01094  1.0000
  H   H881      1.0  0.76338  0.93648  0.25162  1.0000
  H   H882      1.0  0.90889  0.57759  0.14869  1.0000
  H   H883      1.0  0.95899  0.81887  0.12718  1.0000
  C   C730      1.0  0.97658  0.66438  0.22020  1.0000
  H   H884      1.0  0.52428  0.73862  0.24340  1.0000
  C   C731      1.0  0.96722  0.89905  0.07269  1.0000
  C   C732      1.0  0.91894  0.77347  0.08417  1.0000
  H   H885      1.0  0.94665  0.90398  0.06985  1.0000
  C   C733      1.0  0.83044  0.60366  0.14499  1.0000
  C   C734      1.0  0.84533  0.58720  0.13300  1.0000
  C   C735      1.0  0.84457  0.59163  0.11413  1.0000
  C   C736      1.0  0.82808  0.61196  0.10700  1.0000
  C   C737      1.0  0.81338  0.62858  0.11900  1.0000
  C   C738      1.0  0.81495  0.62478  0.13793  1.0000
  H   H886      1.0  0.85711  0.57063  0.13829  1.0000
  H   H887      1.0  0.85578  0.57856  0.10503  1.0000
  H   H888      1.0  0.80032  0.64414  0.11366  1.0000
  H   H889      1.0  0.80329  0.63748  0.14701  1.0000
  C   C739      1.0  0.73207  0.64590  0.25261  1.0000
  C   C740      1.0  0.71466  0.64121  0.23825  1.0000
  C   C741      1.0  0.68720  0.63967  0.24151  1.0000
  C   C742      1.0  0.67652  0.64329  0.25907  1.0000
  C   C743      1.0  0.69388  0.64823  0.27342  1.0000
  C   C744      1.0  0.72141  0.64916  0.27023  1.0000
  H   H890      1.0  0.72235  0.63859  0.22462  1.0000
  H   H891      1.0  0.67410  0.63586  0.23024  1.0000
  H   H892      1.0  0.68612  0.65123  0.28700  1.0000
  H   H893      1.0  0.73456  0.65280  0.28150  1.0000
  C   C745      1.0  0.95035  0.67490  0.21857  1.0000
  C   C746      1.0  0.92866  0.65977  0.22293  1.0000
  C   C747      1.0  0.93352  0.63385  0.22893  1.0000
  H   H894      1.0  0.94690  0.69500  0.21401  1.0000
  H   H895      1.0  0.91712  0.62208  0.23264  1.0000
  H   H896      1.0  0.92728  0.81389  0.08363  1.0000
  H   H897      1.0  0.82598  0.90033  0.20019  1.0000
  C   C748      1.0  0.66364  0.73506  0.30401  1.0000
  C   C749      1.0  0.65669  0.71246  0.25034  1.0000
  H   H898      1.0  0.56991  0.93593  0.29787  1.0000
  C   C750      1.0  0.55438  0.85819  0.27655  1.0000
  H   H899      1.0  0.72578  0.73391  0.28274  1.0000
  H   H900      1.0  0.67500  0.72600  0.29300  1.0000
  H   H901      1.0  0.56794  0.89764  0.27552  1.0000
  H   H902      1.0  0.53431  0.82174  0.27733  1.0000
  H   H903      1.0  0.60427  0.76913  0.29716  1.0000
  H   H904      1.0  0.66211  0.55793  0.26446  1.0000
  C   C751      1.0  0.71402  0.61061  0.31577  1.0000
  H   H905      1.0  0.87769  0.50407  0.03099  1.0000
  H   H906      1.0  0.72683  0.93084  0.19938  1.0000
  H   H907      1.0  0.92469  0.86927  0.11494  1.0000
  H   H908      1.0  0.93899  0.52150  0.01050  1.0000
  C   C752      1.0  0.64448  0.72078  0.31282  1.0000
  C   C753      1.0  0.92121  0.79824  0.09235  1.0000
  C   C754      1.0  0.98781  0.63297  0.02207  1.0000
  C   C755      1.0  0.87396  0.90721  0.13538  1.0000
  C   C756      1.0  0.88536  0.91349  0.11872  1.0000
  C   C757      1.0  0.87447  0.90458  0.10233  1.0000
  C   C758      1.0  0.85162  0.89011  0.10252  1.0000
  C   C759      1.0  0.84012  0.88402  0.11919  1.0000
  C   C760      1.0  0.85147  0.89221  0.13561  1.0000
  H   H909      1.0  0.90267  0.92520  0.11847  1.0000
  H   H910      1.0  0.88330  0.90961  0.08954  1.0000
  H   H911      1.0  0.82239  0.87289  0.11939  1.0000
  H   H912      1.0  0.84250  0.88738  0.14841  1.0000
  H   H913      1.0  0.96255  0.75528  0.03110  1.0000
  C   C761      1.0  0.64114  0.73575  0.25167  1.0000
  C   C762      1.0  0.62975  0.73238  0.32707  1.0000
  C   C763      1.0  0.94581  0.98078  0.03097  1.0000
  H   H914      1.0  0.56749  0.88565  0.32001  1.0000
  C   C764      1.0  0.87081  0.77426  0.17528  1.0000
  C   C765      1.0  0.87115  0.74759  0.17025  1.0000
  C   C766      1.0  0.84832  0.73323  0.17217  1.0000
  C   C767      1.0  0.82497  0.74560  0.17880  1.0000
  C   C768      1.0  0.82429  0.77259  0.18287  1.0000
  C   C769      1.0  0.84733  0.78674  0.18154  1.0000
  H   H915      1.0  0.88926  0.73782  0.16539  1.0000
  H   H916      1.0  0.84875  0.71266  0.16838  1.0000
  H   H917      1.0  0.80621  0.78236  0.18779  1.0000
  H   H918      1.0  0.84685  0.80714  0.18567  1.0000
  C   C770      1.0  0.80421  0.87381  0.23865  1.0000
  C   C771      1.0  0.78802  0.86927  0.22358  1.0000
  C   C772      1.0  0.76024  0.86889  0.22565  1.0000
  C   C773      1.0  0.74823  0.87231  0.24283  1.0000
  C   C774      1.0  0.76454  0.87570  0.25798  1.0000
  C   C775      1.0  0.79223  0.87673  0.25585  1.0000
  H   H919      1.0  0.79673  0.86656  0.21028  1.0000
  H   H920      1.0  0.74790  0.86634  0.21380  1.0000
  H   H921      1.0  0.75574  0.87852  0.27127  1.0000
  H   H922      1.0  0.80445  0.88011  0.26765  1.0000
  N   N51       1.0  0.83803  0.69826  0.08394  1.0000
  C   C776      1.0  0.80998  0.69290  0.08754  1.0000
  C   C777      1.0  0.84487  0.68711  0.06573  1.0000
  C   C778      1.0  0.85497  0.68378  0.09744  1.0000
  C   C779      1.0  0.84163  0.72704  0.08552  1.0000
  C   C780      1.0  0.83704  0.74038  0.10234  1.0000
  C   C781      1.0  0.84876  0.74278  0.07053  1.0000
  C   C782      1.0  0.83946  0.76767  0.10402  1.0000
  C   C783      1.0  0.85094  0.77008  0.07233  1.0000
  C   C784      1.0  0.84631  0.78251  0.08902  1.0000
  H   H923      1.0  0.79651  0.70426  0.07814  1.0000
  H   H924      1.0  0.80614  0.67157  0.08568  1.0000
  H   H925      1.0  0.80395  0.69816  0.10167  1.0000
  H   H926      1.0  0.83198  0.69595  0.05487  1.0000
  H   H927      1.0  0.84218  0.66542  0.06507  1.0000
  H   H928      1.0  0.86592  0.69002  0.06226  1.0000
  H   H929      1.0  0.85350  0.66199  0.09600  1.0000
  H   H930      1.0  0.87613  0.68821  0.09568  1.0000
  H   H931      1.0  0.84920  0.68852  0.11168  1.0000
  H   H932      1.0  0.83109  0.72987  0.11428  1.0000
  H   H933      1.0  0.85246  0.73460  0.05717  1.0000
  H   H934      1.0  0.83567  0.77743  0.11699  1.0000
  H   H935      1.0  0.85596  0.78175  0.06060  1.0000
  H   H936      1.0  0.84781  0.80374  0.09025  1.0000
  H   H937      1.0  0.76939  0.93561  0.18448  1.0000
  H   H938      1.0  0.65096  0.57521  0.32936  1.0000
  H   H939      1.0  0.92872  0.94340  0.02564  1.0000
  C   C785      1.0  0.87164  0.97750  0.01000  1.0000
  S   S234      1.0  0.56200  0.65635  0.32656  1.0000
  C   C786      1.0  0.55349  0.77013  0.26672  1.0000
  N   N52       1.0  0.66233  0.56845  0.29302  1.0000
  H   H940      1.0  0.75688  0.72352  0.27242  1.0000
  H   H941      1.0  0.97372  0.62218  0.03052  1.0000
  H   H942      1.0  0.54993  0.77657  0.25294  1.0000
  H   H943      1.0  0.65124  0.52841  0.28819  1.0000
  C   C787      1.0  0.81645  0.96398  0.18692  1.0000
  H   H944      1.0  0.70866  0.59693  0.28893  1.0000
  C   C788      1.0  0.90877  0.77986  0.12120  1.0000
  H   H945      1.0  0.95661  0.54533  0.02334  1.0000
  N   N53       1.0  0.88142  0.75340  0.23666  1.0000
  C   C789      1.0  0.87782  0.72914  0.24730  1.0000
  C   C790      1.0  0.88960  0.74580  0.21792  1.0000
  C   C791      1.0  0.90362  0.76743  0.24499  1.0000
  C   C792      1.0  0.85610  0.76931  0.23634  1.0000
  C   C793      1.0  0.83360  0.75962  0.22738  1.0000
  C   C794      1.0  0.85251  0.79393  0.24559  1.0000
  C   C795      1.0  0.80926  0.77388  0.22733  1.0000
  C   C796      1.0  0.82799  0.80784  0.24566  1.0000
  C   C797      1.0  0.80649  0.79805  0.23639  1.0000
  H   H946      1.0  0.86326  0.71626  0.24081  1.0000
  H   H947      1.0  0.89661  0.71689  0.24849  1.0000
  H   H948      1.0  0.87064  0.73391  0.26126  1.0000
  H   H949      1.0  0.87551  0.73283  0.21105  1.0000
  H   H950      1.0  0.90891  0.73432  0.21773  1.0000
  H   H951      1.0  0.89161  0.76357  0.20935  1.0000
  H   H952      1.0  0.90004  0.77185  0.25963  1.0000
  H   H953      1.0  0.92255  0.75530  0.24434  1.0000
  H   H954      1.0  0.90699  0.78617  0.23772  1.0000
  H   H955      1.0  0.83466  0.74103  0.22012  1.0000
  H   H956      1.0  0.86830  0.80307  0.25280  1.0000
  H   H957      1.0  0.79269  0.76628  0.21987  1.0000
  H   H958      1.0  0.82577  0.82655  0.25282  1.0000
  H   H959      1.0  0.78776  0.80938  0.23613  1.0000
  S   S235      1.0  0.65743  0.90145  0.33167  1.0000
  H   H960      1.0  0.94327  0.84668  0.10076  1.0000
  H   H961      1.0  0.63491  0.60116  0.28838  1.0000
  C   C798      1.0  0.56607  0.75351  0.30188  1.0000
  H   H962      1.0  0.91831  0.56854  0.17150  1.0000
  C   C799      1.0  0.91584  0.80228  0.11114  1.0000
  H   H963      1.0  0.52271  0.83542  0.31654  1.0000
  H   H964      1.0  0.95432  0.91887  0.14272  1.0000
  C   C800      1.0  0.96977  0.93871  0.03319  1.0000
  C   C801      1.0  0.67726  0.58330  0.30673  1.0000
  H   H965      1.0  0.64103  0.77795  0.25427  1.0000
  H   H966      1.0  0.52314  0.91903  0.28059  1.0000
  H   H967      1.0  0.84391  0.93054  0.22252  1.0000
  C   C802      1.0  0.73502  0.72382  0.27066  1.0000
  C   C803      1.0  0.89342  0.83583  0.13004  1.0000
  H   H968      1.0  0.90322  0.64932  0.15718  1.0000
  C   C804      1.0  0.53201  0.84297  0.27838  1.0000
  H   H969      1.0  0.80255  0.96024  0.17559  1.0000
  C   C805      1.0  0.95313  0.60770  0.14735  1.0000
  C   C806      1.0  0.55110  0.88568  0.27767  1.0000
  C   C807      1.0  0.69720  0.73724  0.25230  1.0000
  H   H970      1.0  0.73003  0.77547  0.26622  1.0000
  H   H971      1.0  0.92292  0.77096  0.06981  1.0000
  H   H972      1.0  0.87632  0.83725  0.12046  1.0000
  C   C808      1.0  0.82483  0.91715  0.19053  1.0000
  C   C809      1.0  0.63489  0.57985  0.29177  1.0000
  C   C810      1.0  0.76489  0.93734  0.23694  1.0000
  C   C811      1.0  0.56300  0.82898  0.32417  1.0000
  C   C812      1.0  0.70499  0.61151  0.33363  1.0000
  C   C813      1.0  0.66770  0.76116  0.30916  1.0000
  C   C814      1.0  0.76881  0.93673  0.19914  1.0000
  H   H973      1.0  0.97559  0.93840  0.08182  1.0000
  S   S236      1.0  0.88197  0.54844  0.00543  1.0000
  H   H974      1.0  0.80624  0.94101  0.23783  1.0000
  C   C815      1.0  0.67389  0.56902  0.27448  1.0000
  C   C816      1.0  0.91152  0.75202  0.09437  1.0000
  C   C817      1.0  0.95889  0.62068  0.17879  1.0000
  H   H975      1.0  0.97502  0.66603  0.06407  1.0000
  C   C818      1.0  0.98253  0.64707  0.06907  1.0000
  H   H976      1.0  0.69439  0.56005  0.27419  1.0000
  C   C819      1.0  0.60018  0.94161  0.32788  1.0000
  H   H977      1.0  0.95200  0.62549  0.19231  1.0000
  C   C820      1.0  0.98151  0.63870  0.22662  1.0000
  H   H978      1.0  0.59302  0.78424  0.26615  1.0000
  C   C821      1.0  0.73694  0.76408  0.25396  1.0000
  H   H979      1.0  0.75894  0.76339  0.25455  1.0000
  H   H980      1.0  0.97748  0.50008  0.06058  1.0000
  C   C822      1.0  0.96868  0.80357  0.02437  1.0000
  H   H981      1.0  0.73087  0.77541  0.24161  1.0000
  C   C823      1.0  0.90654  0.75519  0.11288  1.0000
  C   C824      1.0  0.68073  0.76069  0.25335  1.0000
  N   N54       1.0  0.72644  0.73718  0.25364  1.0000
  H   H982      1.0  0.87597  0.62800  0.15747  1.0000
  H   H983      1.0  0.60017  0.88937  0.32931  1.0000
  H   H984      1.0  0.90723  0.63741  0.19003  1.0000
  H   H985      1.0  0.62374  0.57807  0.30465  1.0000
  H   H986      1.0  0.96486  0.90715  0.17462  1.0000
  H   H987      1.0  0.83610  0.96569  0.22100  1.0000
  H   H988      1.0  0.68866  0.77993  0.25492  1.0000
  C   C825      1.0  0.90389  0.61653  0.18623  1.0000
  N   N55       1.0  0.91830  0.82814  0.12033  1.0000
  C   C826      1.0  0.96614  0.51531  0.05254  1.0000
  N   N56       1.0  0.50757  0.75321  0.26871  1.0000
  H   H989      1.0  0.92652  0.53297  0.03189  1.0000
  N   N57       1.0  0.91284  0.61040  0.16739  1.0000
  C   C827      1.0  0.98354  0.91847  0.07960  1.0000
  H   H990      1.0  0.94612  0.62865  0.06444  1.0000
  H   H991      1.0  0.95748  0.79329  0.01362  1.0000
  H   H992      1.0  0.69544  0.69453  0.24999  1.0000
  S   S237      1.0  0.51141  0.67241  0.28692  1.0000
  C   C828      1.0  0.68427  0.71312  0.25068  1.0000
  C   C829      1.0  0.78952  0.93996  0.22874  1.0000
  H   H993      1.0  0.97722  0.53377  0.05249  1.0000
  H   H994      1.0  0.76069  0.72353  0.23802  1.0000
  H   H995      1.0  0.59366  0.89800  0.30658  1.0000
  C   C830      1.0  0.90605  0.58284  0.16326  1.0000
  H   H996      1.0  0.72937  0.70294  0.27094  1.0000
  C   C831      1.0  0.73874  0.72266  0.23796  1.0000
  H   H997      1.0  0.73129  0.73091  0.22482  1.0000
  H   H998      1.0  0.90066  0.62337  0.14049  1.0000
  H   H999      1.0  0.80993  0.98296  0.19357  1.0000
  H   H1000     1.0  0.83598  0.96672  0.18037  1.0000
  N   N58       1.0  0.81799  0.94216  0.20029  1.0000
  C   C832      1.0  0.94157  0.61315  0.16463  1.0000
  C   C833      1.0  0.98326  0.74925  0.03050  1.0000
  C   C834      1.0  0.89765  0.62854  0.15505  1.0000
  H   H1001     1.0  0.99226  0.83060  0.21418  1.0000
  H   H1002     1.0  0.88494  0.57948  0.16632  1.0000
  C   C835      1.0  0.89988  0.75746  0.03382  1.0000
  H   H1003     1.0  0.68181  0.53150  0.30048  1.0000
  C   C836      1.0  0.98037  0.60918  0.14457  1.0000
  H   H1004     1.0  0.88860  0.82181  0.14094  1.0000
  H   H1005     1.0  0.96501  0.82517  0.02219  1.0000
  H   H1006     1.0  0.65055  0.53814  0.31149  1.0000
  H   H1007     1.0  0.73486  0.70126  0.23802  1.0000
  H   H1008     1.0  0.62320  0.57008  0.28103  1.0000
  H   H1009     1.0  0.91401  0.60325  0.19632  1.0000
  H   H1010     1.0  0.90089  0.73852  0.12089  1.0000
  H   H1011     1.0  0.65627  0.79287  0.32753  1.0000
  H   H1012     1.0  0.88227  0.61390  0.18788  1.0000
  C   C837      1.0  0.98480  0.49876  0.02320  1.0000
  C   C838      1.0  0.84011  0.94729  0.21297  1.0000
  C   C839      1.0  0.97779  0.87347  0.06929  1.0000
  H   H1013     1.0  0.94120  0.60194  0.13590  1.0000
  H   H1014     1.0  0.86150  0.69656  0.01814  1.0000
  H   H1015     1.0  0.59489  0.96266  0.33113  1.0000
  H   H1016     1.0  0.94368  0.84541  0.14030  1.0000
  H   H1017     1.0  0.96334  0.60367  0.23597  1.0000
  C   C840      1.0  0.54097  0.74925  0.29470  1.0000
  C   C841      1.0  0.74433  0.93399  0.20750  1.0000
  H   H1018     1.0  0.52787  0.73861  0.30321  1.0000
  C   C842      1.0  0.94645  0.95337  0.02945  1.0000
  C   C843      1.0  0.63391  0.75844  0.33234  1.0000
  C   C844      1.0  0.57847  0.77431  0.27407  1.0000
  H   H1019     1.0  0.64732  0.69372  0.24926  1.0000
  H   H1020     1.0  0.49471  0.79426  0.27038  1.0000
  H   H1021     1.0  0.90511  0.78119  0.13565  1.0000
  H   H1022     1.0  0.90964  0.73295  0.08788  1.0000
  H   H1023     1.0  0.56873  0.82111  0.31090  1.0000
  C   C845      1.0  0.86250  0.73927  0.01859  1.0000
  C   C846      1.0  0.92384  0.84997  0.10770  1.0000
  C   C847      1.0  0.58476  0.76605  0.29161  1.0000
  H   H1024     1.0  0.91076  0.77433  0.03796  1.0000
  C   C848      1.0  0.66147  0.54042  0.29854  1.0000
  C   C849      1.0  0.95979  0.62350  0.23090  1.0000
  C   C850      1.0  0.65313  0.75982  0.25308  1.0000
  H   H1025     1.0  0.97413  0.70910  0.03664  1.0000
  H   H1026     1.0  0.57129  0.74656  0.31537  1.0000
  H   H1027     1.0  0.93598  0.81213  0.14495  1.0000
  H   H1028     1.0  0.86751  0.96921  0.02314  1.0000
  H   H1029     1.0  0.95988  0.79951  0.03786  1.0000
  H   H1030     1.0  0.55522  0.95909  0.31346  1.0000
  N   N59       1.0  0.57634  0.92591  0.32611  1.0000
  H   H1031     1.0  0.67417  0.58959  0.26926  1.0000
  C   C851      1.0  0.70055  0.59665  0.30248  1.0000
  C   C852      1.0  0.52571  0.89774  0.28050  1.0000
  H   H1032     1.0  0.89474  0.85528  0.13697  1.0000
  H   H1033     1.0  0.61224  0.94086  0.31521  1.0000
  H   H1034     1.0  0.84426  0.91782  0.18351  1.0000
  H   H1035     1.0  0.61977  0.73508  0.25173  1.0000
  C   C853      1.0  0.58463  0.89858  0.32038  1.0000
  H   H1036     1.0  0.99301  0.67636  0.21689  1.0000
  C   C854      1.0  0.66862  0.58466  0.32508  1.0000
  H   H1037     1.0  0.72353  0.93129  0.23283  1.0000
  C   C855      1.0  0.88361  0.51313  0.00283  1.0000
  H   H1038     1.0  0.64131  0.70071  0.30863  1.0000
  H   H1039     1.0  0.73154  0.62092  0.31214  1.0000
  C   C856      1.0  0.51099  0.73257  0.25446  1.0000
  H   H1040     1.0  0.96997  0.91731  0.03251  1.0000
  H   H1041     1.0  0.98873  0.60461  0.13129  1.0000
  C   C857      1.0  0.97466  0.91401  0.14667  1.0000
  H   H1042     1.0  0.54083  0.92746  0.30999  1.0000
  H   H1043     1.0  0.99035  0.92005  0.11999  1.0000
  C   C858      1.0  0.65280  0.77288  0.32331  1.0000
  C   C859      1.0  0.98965  0.72250  0.03364  1.0000
  C   C860      1.0  0.53672  0.83740  0.32750  1.0000
  C   C861      1.0  0.98058  0.90742  0.16461  1.0000
  H   H1044     1.0  0.94757  0.52036  0.06019  1.0000
  C   C862      1.0  0.50345  0.88250  0.28266  1.0000
  H   H1045     1.0  0.97697  0.64184  0.01025  1.0000
  H   H1046     1.0  0.92733  0.99193  0.02846  1.0000
  H   H1047     1.0  0.96043  0.60204  0.00329  1.0000
  C   C863      1.0  0.98609  0.62196  0.17591  1.0000
  C   C864      1.0  0.99299  0.97940  0.03934  1.0000
  C   C865      1.0  0.99272  0.95138  0.03815  1.0000
  H   H1048     1.0  0.99413  0.64981  0.03058  1.0000
  Fe  Fe121     1.0  0.59780  0.87102  0.45955  1.0000
  S   S238      1.0  0.60091  0.88618  0.43103  1.0000
  S   S239      1.0  0.60135  0.89766  0.48489  1.0000
  Fe  Fe122     1.0  0.58841  0.81299  0.44639  1.0000
  S   S240      1.0  0.59101  0.82522  0.41724  1.0000
  S   S241      1.0  0.57328  0.77106  0.44696  1.0000
  Fe  Fe123     1.0  0.62508  0.84869  0.42576  1.0000
  S   S242      1.0  0.66106  0.84428  0.40805  1.0000
  Fe  Fe124     1.0  0.56664  0.86100  0.42520  1.0000
  S   S243      1.0  0.53134  0.87304  0.40838  1.0000
  S   S244      1.0  0.62477  0.83443  0.45465  1.0000
  S   S245      1.0  0.56146  0.84807  0.45388  1.0000
  Fe  Fe125     1.0  0.60350  0.55455  0.47451  1.0000
  S   S246      1.0  0.59009  0.54484  0.44610  1.0000
  S   S247      1.0  0.60931  0.52512  0.49827  1.0000
  Fe  Fe126     1.0  0.60047  0.61574  0.46653  1.0000
  S   S248      1.0  0.58585  0.60952  0.43824  1.0000
  S   S249      1.0  0.60888  0.65712  0.47725  1.0000
  Fe  Fe127     1.0  0.56075  0.57888  0.45017  1.0000
  S   S250      1.0  0.51889  0.57707  0.44036  1.0000
  Fe  Fe128     1.0  0.61671  0.57652  0.43685  1.0000
  S   S251      1.0  0.64325  0.57780  0.41234  1.0000
  S   S252      1.0  0.57252  0.58756  0.47891  1.0000
  S   S253      1.0  0.63296  0.58379  0.46487  1.0000
  H   H1049     1.0  0.50825  0.95229  0.36672  1.0000
  H   H1050     1.0  0.67886  0.88590  0.46864  1.0000
  C   C866      1.0  0.62684  0.58014  0.39127  1.0000
  C   C867      1.0  0.60992  0.56062  0.38571  1.0000
  C   C868      1.0  0.59863  0.56151  0.36826  1.0000
  C   C869      1.0  0.60316  0.58257  0.35660  1.0000
  C   C870      1.0  0.61967  0.60240  0.36228  1.0000
  C   C871      1.0  0.63204  0.60078  0.37940  1.0000
  H   H1051     1.0  0.60635  0.54430  0.39464  1.0000
  H   H1052     1.0  0.58637  0.54578  0.36383  1.0000
  H   H1053     1.0  0.62341  0.61865  0.35335  1.0000
  H   H1054     1.0  0.64567  0.61553  0.38349  1.0000
  H   H1055     1.0  0.51014  0.81514  0.45924  1.0000
  C   C872      1.0  0.51188  0.89407  0.42228  1.0000
  C   C873      1.0  0.64327  0.74639  0.38309  1.0000
  H   H1056     1.0  0.55271  0.98026  0.52588  1.0000
  C   C874      1.0  0.51586  0.89579  0.49696  1.0000
  H   H1057     1.0  0.59067  0.74276  0.38343  1.0000
  C   C875      1.0  0.55100  0.68674  0.50350  1.0000
  C   C876      1.0  0.53440  0.65439  0.48299  1.0000
  C   C877      1.0  0.52468  0.57945  0.36167  1.0000
  H   H1058     1.0  0.51831  0.57951  0.47971  1.0000
  C   C878      1.0  0.65797  0.85916  0.38650  1.0000
  C   C879      1.0  0.67000  0.84682  0.37133  1.0000
  C   C880      1.0  0.66913  0.85923  0.35428  1.0000
  C   C881      1.0  0.65728  0.88458  0.35253  1.0000
  C   C882      1.0  0.64538  0.89695  0.36774  1.0000
  C   C883      1.0  0.64499  0.88396  0.38453  1.0000
  H   H1059     1.0  0.68018  0.82770  0.37276  1.0000
  C   C884      1.0  0.52311  0.50817  0.47741  1.0000
  H   H1060     1.0  0.63658  0.91671  0.36658  1.0000
  H   H1061     1.0  0.63553  0.89362  0.39608  1.0000
  C   C885      1.0  0.58640  0.73946  0.45384  1.0000
  C   C886      1.0  0.57553  0.71677  0.44633  1.0000
  C   C887      1.0  0.58334  0.69131  0.45255  1.0000
  C   C888      1.0  0.60175  0.68822  0.46669  1.0000
  C   C889      1.0  0.61302  0.71090  0.47393  1.0000
  C   C890      1.0  0.60563  0.73635  0.46743  1.0000
  H   H1062     1.0  0.56059  0.71888  0.43582  1.0000
  H   H1063     1.0  0.57458  0.67414  0.44670  1.0000
  H   H1064     1.0  0.62718  0.70880  0.48494  1.0000
  H   H1065     1.0  0.61405  0.75357  0.47347  1.0000
  H   H1066     1.0  0.67172  0.93426  0.42131  1.0000
  C   C891      1.0  0.52322  0.90567  0.43753  1.0000
  C   C892      1.0  0.53347  0.58790  0.39318  1.0000
  H   H1067     1.0  0.54412  0.90270  0.44027  1.0000
  H   H1068     1.0  0.54514  0.72639  0.48232  1.0000
  C   C893      1.0  0.59996  0.94337  0.50577  1.0000
  C   C894      1.0  0.59842  0.93283  0.48803  1.0000
  C   C895      1.0  0.59574  0.95048  0.47350  1.0000
  H   H1069     1.0  0.60226  0.93008  0.51716  1.0000
  H   H1070     1.0  0.59458  0.94290  0.45977  1.0000
  N   N60       1.0  0.52306  0.60004  0.37610  1.0000
  H   H1071     1.0  0.54882  0.65944  0.47235  1.0000
  S   S254      1.0  0.58753  0.58374  0.33518  1.0000
  H   H1072     1.0  0.59847  0.77417  0.39257  1.0000
  H   H1073     1.0  0.60135  0.97858  0.52261  1.0000
  C   C896      1.0  0.54204  0.85513  0.50001  1.0000
  H   H1074     1.0  0.54480  0.56982  0.36078  1.0000
  C   C897      1.0  0.52674  0.94104  0.36444  1.0000
  H   H1075     1.0  0.67853  0.84960  0.34265  1.0000
  H   H1076     1.0  0.51335  0.91687  0.49927  1.0000
  N   N61       1.0  0.62667  0.74252  0.39938  1.0000
  C   C898      1.0  0.63722  0.75895  0.41430  1.0000
  H   H1077     1.0  0.63517  0.73708  0.37066  1.0000
  C   C899      1.0  0.59928  0.75263  0.39548  1.0000
  C   C900      1.0  0.62649  0.71403  0.40375  1.0000
  C   C901      1.0  0.61805  0.69566  0.39053  1.0000
  C   C902      1.0  0.63427  0.70366  0.42099  1.0000
  C   C903      1.0  0.61787  0.66866  0.39421  1.0000
  C   C904      1.0  0.63415  0.67655  0.42447  1.0000
  C   C905      1.0  0.62608  0.65909  0.41110  1.0000
  H   H1078     1.0  0.52623  0.52700  0.47099  1.0000
  H   H1079     1.0  0.56180  0.61428  0.37081  1.0000
  H   H1080     1.0  0.62468  0.75838  0.42669  1.0000
  C   C906      1.0  0.51348  0.69811  0.48272  1.0000
  H   H1081     1.0  0.53532  0.96356  0.49676  1.0000
  H   H1082     1.0  0.54665  0.70459  0.51203  1.0000
  H   H1083     1.0  0.58609  0.74949  0.40731  1.0000
  H   H1084     1.0  0.67547  0.59912  0.35222  1.0000
  H   H1085     1.0  0.59300  0.90115  0.35754  1.0000
  H   H1086     1.0  0.61156  0.70203  0.37718  1.0000
  H   H1087     1.0  0.64031  0.71602  0.43211  1.0000
  H   H1088     1.0  0.65788  0.75247  0.41790  1.0000
  H   H1089     1.0  0.64010  0.66898  0.43771  1.0000
  H   H1090     1.0  0.62619  0.63808  0.41388  1.0000
  H   H1091     1.0  0.53344  0.60246  0.40459  1.0000
  C   C907      1.0  0.53868  0.88220  0.50307  1.0000
  H   H1092     1.0  0.55401  0.89275  0.50995  1.0000
  C   C908      1.0  0.67855  0.96483  0.45218  1.0000
  C   C909      1.0  0.52278  0.84162  0.49053  1.0000
  C   C910      1.0  0.66137  0.96162  0.48803  1.0000
  H   H1093     1.0  0.55280  0.51332  0.49784  1.0000
  H   H1094     1.0  0.51622  0.92956  0.46146  1.0000
  H   H1095     1.0  0.54448  0.85738  0.37166  1.0000
  H   H1096     1.0  0.66368  0.73769  0.38511  1.0000
  H   H1097     1.0  0.67452  0.50234  0.53353  1.0000
  C   C911      1.0  0.56276  0.91327  0.37609  1.0000
  C   C912      1.0  0.54860  0.84971  0.35820  1.0000
  H   H1098     1.0  0.52242  0.75811  0.46276  1.0000
  H   H1099     1.0  0.50729  0.88575  0.36860  1.0000
  H   H1100     1.0  0.53012  0.92846  0.39229  1.0000
  H   H1101     1.0  0.55433  0.58016  0.39172  1.0000
  H   H1102     1.0  0.50195  0.84562  0.44782  1.0000
  H   H1103     1.0  0.56007  0.84477  0.50456  1.0000
  H   H1104     1.0  0.71732  0.90813  0.45665  1.0000
  H   H1105     1.0  0.59356  0.99143  0.46528  1.0000
  H   H1106     1.0  0.51055  0.56375  0.36427  1.0000
  H   H1107     1.0  0.63768  0.78016  0.41043  1.0000
  H   H1108     1.0  0.52185  0.57087  0.39740  1.0000
  H   H1109     1.0  0.64185  0.92566  0.43248  1.0000
  N   N62       1.0  0.67726  0.91562  0.44764  1.0000
  C   C913      1.0  0.70582  0.91088  0.44382  1.0000
  C   C914      1.0  0.66755  0.89140  0.45613  1.0000
  C   C915      1.0  0.66294  0.91932  0.43012  1.0000
  C   C916      1.0  0.67340  0.93954  0.45919  1.0000
  N   N63       1.0  0.52677  0.67772  0.49436  1.0000
  C   C917      1.0  0.50865  0.66951  0.50889  1.0000
  C   C918      1.0  0.54068  0.62146  0.37126  1.0000
  H   H1110     1.0  0.56658  0.69119  0.49358  1.0000
  H   H1111     1.0  0.53903  0.63792  0.38133  1.0000
  H   H1112     1.0  0.58977  0.84269  0.36529  1.0000
  H   H1113     1.0  0.70953  0.89288  0.43523  1.0000
  C   C919      1.0  0.49543  0.61085  0.37750  1.0000
  H   H1114     1.0  0.64621  0.89401  0.45971  1.0000
  C   C920      1.0  0.50746  0.92103  0.44949  1.0000
  H   H1115     1.0  0.66962  0.87396  0.44683  1.0000
  H   H1116     1.0  0.53616  0.62975  0.35761  1.0000
  H   H1117     1.0  0.66341  0.90077  0.42189  1.0000
  H   H1118     1.0  0.66045  0.92040  0.48422  1.0000
  C   C921      1.0  0.57485  0.84123  0.35474  1.0000
  C   C922      1.0  0.50190  0.59160  0.47455  1.0000
  C   C923      1.0  0.53807  0.50040  0.49252  1.0000
  H   H1119     1.0  0.61147  0.65508  0.38383  1.0000
  H   H1120     1.0  0.64489  0.76769  0.37985  1.0000
  H   H1121     1.0  0.51715  0.64632  0.47583  1.0000
  C   C924      1.0  0.66500  0.93858  0.47760  1.0000
  C   C925      1.0  0.52866  0.84810  0.34461  1.0000
  C   C926      1.0  0.52191  0.97323  0.50648  1.0000
  C   C927      1.0  0.49651  0.88252  0.48745  1.0000
  H   H1122     1.0  0.54384  0.63816  0.49120  1.0000
  H   H1123     1.0  0.56032  0.67114  0.51235  1.0000
  C   C928      1.0  0.49963  0.85501  0.48363  1.0000
  H   H1124     1.0  0.68569  0.96711  0.43850  1.0000
  C   C929      1.0  0.59514  0.97810  0.47668  1.0000
  H   H1125     1.0  0.71548  0.62238  0.34389  1.0000
  H   H1126     1.0  0.51878  0.65575  0.51868  1.0000
  H   H1127     1.0  0.57219  0.90281  0.38739  1.0000
  C   C930      1.0  0.57441  0.91229  0.35890  1.0000
  H   H1128     1.0  0.71420  0.92763  0.43645  1.0000
  C   C931      1.0  0.59930  0.97098  0.50894  1.0000
  C   C932      1.0  0.53903  0.92772  0.37888  1.0000
  C   C933      1.0  0.52551  0.72186  0.47787  1.0000
  C   C934      1.0  0.53184  0.98262  0.52282  1.0000
  H   H1129     1.0  0.66819  0.50334  0.50029  1.0000
  H   H1130     1.0  0.61344  0.93418  0.33895  1.0000
  C   C935      1.0  0.58201  0.83080  0.33780  1.0000
  C   C936      1.0  0.68241  0.59846  0.33829  1.0000
  H   H1131     1.0  0.52044  0.58758  0.34792  1.0000
  H   H1132     1.0  0.52661  0.82075  0.48810  1.0000
  S   S255      1.0  0.60580  0.71447  0.33805  1.0000
  N   N64       1.0  0.50059  0.85661  0.34778  1.0000
  H   H1133     1.0  0.62241  0.76754  0.34325  1.0000
  C   C937      1.0  0.67428  0.98777  0.46264  1.0000
  H   H1134     1.0  0.50026  0.85355  0.37708  1.0000
  C   C938      1.0  0.49707  0.59280  0.45582  1.0000
  C   C939      1.0  0.53829  0.94027  0.34717  1.0000
  H   H1135     1.0  0.60234  0.82412  0.33522  1.0000
  H   H1136     1.0  0.50032  0.68690  0.51661  1.0000
  H   H1137     1.0  0.52789  0.95143  0.33670  1.0000
  C   C940      1.0  0.56263  0.92580  0.34388  1.0000
  H   H1138     1.0  0.65447  0.96052  0.50192  1.0000
  C   C941      1.0  0.51257  0.74042  0.46655  1.0000
  C   C942      1.0  0.49552  0.86812  0.36613  1.0000
  C   C943      1.0  0.49492  0.97663  0.50252  1.0000
  H   H1139     1.0  0.50493  0.89400  0.33465  1.0000
  C   C944      1.0  0.66548  0.98617  0.48049  1.0000
  C   C945      1.0  0.59691  0.98866  0.49441  1.0000
  C   C946      1.0  0.99018  0.54800  0.98393  1.0000
  H   H1140     1.0  0.98532  0.53125  0.97553  1.0000
  H   H1141     1.0  0.83003  0.91913  0.95666  1.0000
  H   H1142     1.0  0.82569  0.95337  0.93347  1.0000
  C   C947      1.0  0.88684  0.97235  0.97910  1.0000
  C   C948      1.0  0.88749  0.50197  0.98537  1.0000
  H   H1143     1.0  0.82428  0.93035  0.98912  1.0000
  C   C949      1.0  0.82296  0.95925  0.94750  1.0000
  C   C950      1.0  0.82520  0.93943  0.96061  1.0000
  H   H1144     1.0  0.89469  0.95987  0.96822  1.0000
  H   H1145     1.0  0.88954  0.51490  0.97388  1.0000
  H   H1146     1.0  0.95012  0.56412  0.98491  1.0000
  C   C951      1.0  0.81420  0.52102  0.97141  1.0000
  C   C952      1.0  0.81776  0.51725  0.98999  1.0000
  H   H1147     1.0  0.84386  0.98723  0.91949  1.0000
  C   C953      1.0  0.97043  0.56655  0.98919  1.0000
  C   C954      1.0  0.81590  0.97168  0.98419  1.0000
  C   C955      1.0  0.82178  0.94565  0.97893  1.0000
  H   H1148     1.0  0.81243  0.54094  0.96613  1.0000
  H   H1149     1.0  0.79591  0.98315  0.91866  1.0000
  C   C956      1.0  0.81774  0.98613  0.95242  1.0000
  C   C957      1.0  0.81401  0.99175  0.97124  1.0000
  C   C958      1.0  0.88167  0.96093  0.99608  1.0000
  H   H1150     1.0  0.81371  0.97645  0.99851  1.0000
  S   S256      1.0  0.88755  0.92597  0.99886  1.0000
  H   H1151     1.0  0.81911  0.53411  0.99905  1.0000
  C   C959      1.0  0.97666  0.58833  0.99989  1.0000
  H   H1152     1.0  0.81043  0.50328  0.94536  1.0000
  C   C960      1.0  0.81332  0.49930  0.95964  1.0000
