data_image0
_chemical_formula_structural       C2H4C5SH2FeCHSCHCHCFeC2HCH2CHCNCHC2HCFeCHCFeH2CHCHCHC2NCHSCFeSCHCSH2SHC2H8CHC3H3CHCSHCHCHCHSH5CSCSC3H2SH3C3HCHCHC2SCNH3CH3NHCHC2H6CHFeC5HNCH2CHCFeCSHFeCSHSFeCH2SHSHFeHSHC4HC2H2CSH3FeSFeSHNH2C2HCH3CHC4SHCH3CSH7C2H3CH2CHCSC7HC2HFeC2NH2SC2HCHCH3SNC2H6CH2C2HSH2CSH2CH5C2NCFeHFeH3FeCHCSCH2C2SHSH2SH2CSCSC2SCFeCHCSCHC3H2CHCHCH8C3FeCH2CH2CHCHC5NHCH2CNH4CHCSFeC2S2C2HFe2H2FeCH4SHC3HCNSCHS2C2H3SFeSHCH3SCSH3CHSFeCHCH2NHCHCHCSCHC4H4C3HCH2CH2CFeH6SNH2CFeC2H7CS2HCHSCHCSHCHFeN2C2H3C2H2CHCHSCFeCHC5H3CH3CHC2SHSH2C2H2C2HC4NCH2CHC2H3CFeHCSCH6CH2CSCH5C2H2SCH2SFe2HC3HNC3HSCHCH2C2H7SCH2CHC2SCHSHC2HC2HSC2H2FeHNH2C2HCHCH3C2SHC2SCFeHCH2CSH2C3HSHFeC4H2C3HCHC2HC3HNH2CHC2HCH2C2HCFeH2FeSHFeC3H3C2H5CHCHCFeH3C2H2C2SNHSC2H4CS2CHCSCSH2C2SC3NHCHCH6CHCH2SCHSFeH2FeHFeSFeCSCHCH2SHCHC3SHCH2C2H3CH3CH2C3HC2H3CHFeS2HC3SC2H2NH2FeCH2C2H2CHSHC2HC2HSCHC2SHNHFeH3C2HSH2CH2CFeHC3HCSC2SHSHCSHFeCH2CH3FeSH2
_chemical_formula_sum              "C360 H432 S96 Fe48 N24"
_cell_length_a       28.3608
_cell_length_b       27.6184
_cell_length_c       26.0739
_cell_angle_alpha    75.1787
_cell_angle_beta     54.5755
_cell_angle_gamma    93.0009

_space_group_name_H-M_alt    "P 1"
_space_group_IT_number       1

loop_
  _space_group_symop_operation_xyz
  'x, y, z'

loop_
  _atom_site_type_symbol
  _atom_site_label
  _atom_site_symmetry_multiplicity
  _atom_site_fract_x
  _atom_site_fract_y
  _atom_site_fract_z
  _atom_site_occupancy
  C   C1        1.0  0.00402  0.14760  0.05660  1.0000
  C   C2        1.0  0.89887  0.02663  0.05640  1.0000
  H   H1        1.0  0.79513  0.26039  0.98742  1.0000
  H   H2        1.0  0.82267  0.18555  0.01117  1.0000
  H   H3        1.0  0.79932  0.92472  0.01680  1.0000
  H   H4        1.0  0.96702  0.03712  0.95238  1.0000
  C   C3        1.0  0.66699  0.87076  0.05229  1.0000
  C   C4        1.0  0.79949  0.06040  0.02180  1.0000
  C   C5        1.0  0.62944  0.86347  0.12203  1.0000
  C   C6        1.0  0.75178  0.90801  0.04591  1.0000
  C   C7        1.0  0.69325  0.27208  0.93408  1.0000
  S   S1        1.0  0.03814  0.25054  0.03470  1.0000
  H   H5        1.0  0.66785  0.27616  0.91552  1.0000
  H   H6        1.0  0.98512  0.06691  0.06889  1.0000
  Fe  Fe1       1.0  0.58480  0.06664  0.10920  1.0000
  C   C8        1.0  0.00033  0.09496  0.08181  1.0000
  H   H7        1.0  0.82339  0.08595  0.12685  1.0000
  S   S2        1.0  0.90865  0.13084  0.94170  1.0000
  C   C9        1.0  0.76618  0.26279  0.97304  1.0000
  H   H8        1.0  0.57649  0.92878  0.91201  1.0000
  C   C10       1.0  0.57807  0.29021  0.01529  1.0000
  H   H9        1.0  0.61263  0.19986  0.90860  1.0000
  C   C11       1.0  0.57826  0.83367  0.06370  1.0000
  Fe  Fe2       1.0  0.99803  0.26335  0.98144  1.0000
  C   C12       1.0  0.73688  0.04512  0.06952  1.0000
  C   C13       1.0  0.70556  0.08031  0.09708  1.0000
  H   H10       1.0  0.82381  0.03296  0.00129  1.0000
  C   C14       1.0  0.67272  0.27875  0.99555  1.0000
  H   H11       1.0  0.64145  0.93117  0.97706  1.0000
  H   H12       1.0  0.76046  0.89914  0.96240  1.0000
  C   C15       1.0  0.78597  0.08786  0.89417  1.0000
  H   H13       1.0  0.70033  0.28091  0.05787  1.0000
  C   C16       1.0  0.66049  0.89900  0.96069  1.0000
  N   N1        1.0  0.61428  0.29014  0.03950  1.0000
  C   C17       1.0  0.78443  0.25548  0.91385  1.0000
  H   H14       1.0  0.99014  0.15999  0.02559  1.0000
  C   C18       1.0  0.83052  0.11113  0.00096  1.0000
  C   C19       1.0  0.87407  0.92156  0.07572  1.0000
  H   H15       1.0  0.78621  0.05134  0.92433  1.0000
  C   C20       1.0  0.73657  0.13101  0.07586  1.0000
  Fe  Fe3       1.0  0.90633  0.30497  0.96885  1.0000
  C   C21       1.0  0.84081  0.93843  0.13025  1.0000
  H   H16       1.0  0.74557  0.07962  0.89713  1.0000
  C   C22       1.0  0.85184  0.99168  0.12216  1.0000
  Fe  Fe4       1.0  0.60520  0.09306  0.97563  1.0000
  H   H17       1.0  0.06370  0.19642  0.12011  1.0000
  H   H18       1.0  0.91104  0.06770  0.04526  1.0000
  C   C23       1.0  0.79894  0.14635  0.02773  1.0000
  H   H19       1.0  0.59991  0.32189  0.96640  1.0000
  C   C24       1.0  0.93186  0.00939  0.00220  1.0000
  H   H20       1.0  0.94539  0.94392  0.96947  1.0000
  C   C25       1.0  0.91949  0.95701  0.01174  1.0000
  H   H21       1.0  0.77978  0.11653  0.91953  1.0000
  C   C26       1.0  0.71141  0.27440  0.01334  1.0000
  C   C27       1.0  0.02758  0.18424  0.06985  1.0000
  N   N2        1.0  0.64434  0.85440  0.01882  1.0000
  C   C28       1.0  0.72896  0.89347  0.01521  1.0000
  H   H22       1.0  0.86479  0.88066  0.08335  1.0000
  S   S3        1.0  0.90283  0.22818  0.02867  1.0000
  C   C29       1.0  0.01951  0.07921  0.12070  1.0000
  Fe  Fe5       1.0  0.94165  0.20936  0.93516  1.0000
  S   S4        1.0  0.60243  0.14089  0.03403  1.0000
  C   C30       1.0  0.04531  0.16814  0.11007  1.0000
  H   H23       1.0  0.71282  0.00600  0.08563  1.0000
  C   C31       1.0  0.71375  0.90016  0.11432  1.0000
  S   S5        1.0  0.59684  0.01987  0.04569  1.0000
  H   H24       1.0  0.71239  0.15849  0.09657  1.0000
  H   H25       1.0  0.64325  0.88779  0.93521  1.0000
  S   S6        1.0  0.03697  0.23935  0.89186  1.0000
  H   H26       1.0  0.70958  0.91465  0.92132  1.0000
  C   C32       1.0  0.57816  0.25070  0.10819  1.0000
  C   C33       1.0  0.74791  0.26005  0.89440  1.0000
  H   H27       1.0  0.06534  0.96312  0.03171  1.0000
  H   H28       1.0  0.07082  0.92654  0.95127  1.0000
  H   H29       1.0  0.82725  0.24694  0.88282  1.0000
  H   H30       1.0  0.58209  0.84517  0.15493  1.0000
  H   H31       1.0  0.73517  0.94866  0.23222  1.0000
  H   H32       1.0  0.58265  0.97179  0.28656  1.0000
  H   H33       1.0  0.80662  0.90925  0.17908  1.0000
  H   H34       1.0  0.87558  0.99754  0.20666  1.0000
  C   C34       1.0  0.58805  0.15403  0.33610  1.0000
  H   H35       1.0  0.70662  0.90693  0.34085  1.0000
  C   C35       1.0  0.94432  0.18761  0.31043  1.0000
  C   C36       1.0  0.70066  0.29102  0.17775  1.0000
  C   C37       1.0  0.94612  0.14653  0.35456  1.0000
  H   H36       1.0  0.68611  0.10815  0.21456  1.0000
  H   H37       1.0  0.87801  0.08129  0.14189  1.0000
  H   H38       1.0  0.78766  0.23855  0.33464  1.0000
  C   C38       1.0  0.94844  0.07888  0.31005  1.0000
  H   H39       1.0  0.96272  0.18916  0.26010  1.0000
  C   C39       1.0  0.82473  0.12876  0.30317  1.0000
  S   S7        1.0  0.62794  0.06077  0.15955  1.0000
  H   H40       1.0  0.68470  0.27891  0.31534  1.0000
  C   C40       1.0  0.04082  0.13171  0.27288  1.0000
  H   H41       1.0  0.81435  0.94217  0.24836  1.0000
  C   C41       1.0  0.86781  0.15010  0.23339  1.0000
  H   H42       1.0  0.99933  0.03733  0.36340  1.0000
  C   C42       1.0  0.68884  0.18434  0.29714  1.0000
  H   H43       1.0  0.94859  0.10520  0.26981  1.0000
  S   S8        1.0  0.80680  0.06196  0.34290  1.0000
  H   H44       1.0  0.80297  0.07676  0.20870  1.0000
  H   H45       1.0  0.97119  0.04910  0.29052  1.0000
  H   H46       1.0  0.90077  0.05879  0.35316  1.0000
  H   H47       1.0  0.06333  0.15368  0.28666  1.0000
  H   H48       1.0  0.63306  0.31883  0.17412  1.0000
  C   C43       1.0  0.85203  0.23501  0.23640  1.0000
  S   S9        1.0  0.82891  0.32714  0.35137  1.0000
  C   C44       1.0  0.81029  0.21403  0.30645  1.0000
  S   S10       1.0  0.86842  0.30060  0.19240  1.0000
  C   C45       1.0  0.75152  0.99138  0.21371  1.0000
  C   C46       1.0  0.75310  0.30468  0.16978  1.0000
  C   C47       1.0  0.60939  0.12745  0.29080  1.0000
  H   H49       1.0  0.72355  0.00327  0.25829  1.0000
  H   H50       1.0  0.57893  0.10638  0.28684  1.0000
  S   S11       1.0  0.65366  0.84081  0.30817  1.0000
  H   H51       1.0  0.68040  0.25080  0.19227  1.0000
  H   H52       1.0  0.89099  0.12572  0.20507  1.0000
  H   H53       1.0  0.80149  0.99688  0.27472  1.0000
  C   C48       1.0  0.91914  0.22777  0.33015  1.0000
  C   C49       1.0  0.82727  0.98518  0.22968  1.0000
  C   C50       1.0  0.63509  0.26936  0.34637  1.0000
  H   H54       1.0  0.74180  0.00821  0.17821  1.0000
  C   C51       1.0  0.62742  0.18356  0.34043  1.0000
  H   H55       1.0  0.77491  0.27526  0.17621  1.0000
  C   C52       1.0  0.66996  0.12875  0.24954  1.0000
  H   H56       1.0  0.00829  0.29324  0.13644  1.0000
  C   C53       1.0  0.88053  0.20303  0.19996  1.0000
  C   C54       1.0  0.70968  0.15718  0.25268  1.0000
  S   S12       1.0  0.02499  0.01571  0.14352  1.0000
  C   C55       1.0  0.83087  0.06563  0.16340  1.0000
  N   N3        1.0  0.81626  0.00854  0.18078  1.0000
  H   H57       1.0  0.04637  0.15949  0.22946  1.0000
  H   H58       1.0  0.62369  0.28247  0.31175  1.0000
  H   H59       1.0  0.62368  0.87199  0.20545  1.0000
  C   C56       1.0  0.04091  0.11564  0.13571  1.0000
  H   H60       1.0  0.91821  0.25857  0.29562  1.0000
  H   H61       1.0  0.75708  0.15903  0.21989  1.0000
  H   H62       1.0  0.91268  0.21927  0.14578  1.0000
  N   N4        1.0  0.97704  0.10649  0.33098  1.0000
  H   H63       1.0  0.72148  0.20694  0.29646  1.0000
  C   C57       1.0  0.79584  0.16066  0.33978  1.0000
  H   H64       1.0  0.05567  0.10335  0.16574  1.0000
  C   C58       1.0  0.06266  0.31988  0.21015  1.0000
  C   C59       1.0  0.65279  0.87838  0.15207  1.0000
  H   H65       1.0  0.05761  0.28289  0.29756  1.0000
  H   H66       1.0  0.61965  0.29322  0.37907  1.0000
  H   H67       1.0  0.06642  0.10299  0.25429  1.0000
  H   H68       1.0  0.73140  0.91053  0.13853  1.0000
  H   H69       1.0  0.60017  0.24987  0.13223  1.0000
  H   H70       1.0  0.64847  0.21936  0.56218  1.0000
  C   C60       1.0  0.70019  0.27157  0.59819  1.0000
  H   H71       1.0  0.87782  0.26049  0.40836  1.0000
  Fe  Fe6       1.0  0.60924  0.95902  0.55311  1.0000
  C   C61       1.0  0.97578  0.06680  0.38280  1.0000
  C   C62       1.0  0.89481  0.18801  0.43910  1.0000
  C   C63       1.0  0.74619  0.20067  0.59563  1.0000
  C   C64       1.0  0.62559  0.19747  0.42964  1.0000
  C   C65       1.0  0.87445  0.97014  0.57316  1.0000
  H   H72       1.0  0.87676  0.18865  0.48864  1.0000
  N   N5        1.0  0.60712  0.21339  0.38634  1.0000
  C   C66       1.0  0.57589  0.88141  0.49670  1.0000
  H   H73       1.0  0.67483  0.20853  0.40107  1.0000
  H   H74       1.0  0.61017  0.15473  0.45566  1.0000
  C   C67       1.0  0.63577  0.90402  0.44062  1.0000
  H   H75       1.0  0.73976  0.29505  0.54582  1.0000
  C   C68       1.0  0.90751  0.29394  0.50474  1.0000
  Fe  Fe7       1.0  0.95856  0.20707  0.55247  1.0000
  C   C69       1.0  0.80624  0.04086  0.61679  1.0000
  S   S13       1.0  0.66477  0.32429  0.49105  1.0000
  H   H76       1.0  0.91691  0.11717  0.45775  1.0000
  Fe  Fe8       1.0  0.72784  0.03794  0.45131  1.0000
  C   C70       1.0  0.90156  0.01816  0.56512  1.0000
  S   S14       1.0  0.70119  0.95693  0.52094  1.0000
  H   H77       1.0  0.92911  0.04516  0.42767  1.0000
  S   S15       1.0  0.63701  0.03756  0.47859  1.0000
  Fe  Fe9       1.0  0.62036  0.06689  0.55862  1.0000
  C   C71       1.0  0.91890  0.14718  0.42030  1.0000
  H   H78       1.0  0.76227  0.14423  0.39361  1.0000
  H   H79       1.0  0.99938  0.28977  0.44847  1.0000
  S   S16       1.0  0.88310  0.24351  0.57793  1.0000
  H   H80       1.0  0.90062  0.94261  0.55664  1.0000
  S   S17       1.0  0.04406  0.24978  0.52384  1.0000
  H   H81       1.0  0.79201  0.91976  0.61087  1.0000
  Fe  Fe10      1.0  0.04215  0.17449  0.58394  1.0000
  H   H82       1.0  0.78633  0.22252  0.54300  1.0000
  S   S18       1.0  0.97795  0.03349  0.52844  1.0000
  H   H83       1.0  0.72661  0.22674  0.50713  1.0000
  C   C72       1.0  0.81314  0.95729  0.60360  1.0000
  C   C73       1.0  0.68567  0.20590  0.55972  1.0000
  C   C74       1.0  0.89549  0.22849  0.39392  1.0000
  C   C75       1.0  0.86743  0.05362  0.58660  1.0000
  H   H84       1.0  0.67777  0.16395  0.56759  1.0000
  C   C76       1.0  0.86668  0.31912  0.50310  1.0000
  C   C77       1.0  0.96729  0.30824  0.44728  1.0000
  H   H85       1.0  0.88809  0.09085  0.58019  1.0000
  H   H86       1.0  0.82120  0.30971  0.54801  1.0000
  C   C78       1.0  0.77898  0.99254  0.62575  1.0000
  S   S19       1.0  0.00242  0.18147  0.46400  1.0000
  H   H87       1.0  0.66362  0.93125  0.44179  1.0000
  H   H88       1.0  0.60690  0.21586  0.46875  1.0000
  H   H89       1.0  0.99841  0.08445  0.39954  1.0000
  Fe  Fe11      1.0  0.68028  0.99386  0.59672  1.0000
  S   S20       1.0  0.71427  0.07491  0.52462  1.0000
  Fe  Fe12      1.0  0.00326  0.11149  0.52868  1.0000
  S   S21       1.0  0.95234  0.13404  0.61996  1.0000
  H   H90       1.0  0.66148  0.28556  0.60560  1.0000
  N   N6        1.0  0.69128  0.21537  0.60962  1.0000
  H   H91       1.0  0.74232  0.15869  0.60306  1.0000
  H   H92       1.0  0.75636  0.20959  0.62783  1.0000
  C   C79       1.0  0.62413  0.85542  0.38133  1.0000
  C   C80       1.0  0.65999  0.89065  0.38320  1.0000
  H   H93       1.0  0.76773  0.06508  0.80186  1.0000
  C   C81       1.0  0.05709  0.10712  0.69381  1.0000
  H   H94       1.0  0.59171  0.88700  0.72183  1.0000
  H   H95       1.0  0.79988  0.14750  0.78444  1.0000
  H   H96       1.0  0.94271  0.99009  0.72311  1.0000
  C   C82       1.0  0.89751  0.04285  0.77220  1.0000
  H   H97       1.0  0.02946  0.28393  0.71451  1.0000
  C   C83       1.0  0.61039  0.85406  0.71327  1.0000
  C   C84       1.0  0.63625  0.18665  0.67894  1.0000
  C   C85       1.0  0.80637  0.04954  0.78564  1.0000
  C   C86       1.0  0.63786  0.83600  0.74188  1.0000
  S   S22       1.0  0.93813  0.28344  0.87865  1.0000
  H   H98       1.0  0.77986  0.06806  0.63425  1.0000
  C   C87       1.0  0.84898  0.06662  0.79384  1.0000
  H   H99       1.0  0.77728  0.27249  0.66377  1.0000
  H   H100      1.0  0.63407  0.29270  0.84365  1.0000
  H   H101      1.0  0.98995  0.24655  0.66603  1.0000
  C   C88       1.0  0.06391  0.00741  0.74365  1.0000
  S   S23       1.0  0.70159  0.97509  0.66873  1.0000
  H   H102      1.0  0.70607  0.28087  0.63353  1.0000
  H   H103      1.0  0.86897  0.96471  0.70624  1.0000
  H   H104      1.0  0.89553  0.09006  0.85690  1.0000
  H   H105      1.0  0.78118  0.00152  0.74746  1.0000
  H   H106      1.0  0.87939  0.17031  0.73182  1.0000
  H   H107      1.0  0.03369  0.02436  0.83277  1.0000
  H   H108      1.0  0.93291  0.28987  0.63557  1.0000
  C   C89       1.0  0.66078  0.26820  0.81856  1.0000
  C   C90       1.0  0.98110  0.28251  0.67456  1.0000
  H   H109      1.0  0.58028  0.06985  0.69524  1.0000
  H   H110      1.0  0.59115  0.00239  0.76836  1.0000
  H   H111      1.0  0.75867  0.18146  0.72768  1.0000
  C   C91       1.0  0.73109  0.20537  0.75349  1.0000
  H   H112      1.0  0.83270  0.18572  0.80661  1.0000
  H   H113      1.0  0.58485  0.84614  0.65357  1.0000
  C   C92       1.0  0.60708  0.83015  0.67382  1.0000
  H   H114      1.0  0.02792  0.11316  0.78841  1.0000
  C   C93       1.0  0.94834  0.30803  0.65715  1.0000
  S   S24       1.0  0.67328  0.11910  0.86412  1.0000
  C   C94       1.0  0.63718  0.15296  0.72955  1.0000
  C   C95       1.0  0.74172  0.25692  0.71714  1.0000
  C   C96       1.0  0.81339  0.01286  0.75496  1.0000
  C   C97       1.0  0.70695  0.28846  0.74925  1.0000
  C   C98       1.0  0.86264  0.99184  0.73203  1.0000
  C   C99       1.0  0.04161  0.08862  0.75829  1.0000
  C   C100      1.0  0.64897  0.21586  0.85523  1.0000
  H   H115      1.0  0.88617  0.15430  0.84613  1.0000
  C   C101      1.0  0.00339  0.30345  0.70194  1.0000
  C   C102      1.0  0.89196  0.12279  0.82508  1.0000
  H   H116      1.0  0.67779  0.14438  0.71964  1.0000
  Fe  Fe13      1.0  0.02987  0.31540  0.84437  1.0000
  C   C103      1.0  0.04440  0.03840  0.78357  1.0000
  C   C104      1.0  0.83829  0.15460  0.78505  1.0000
  N   N7        1.0  0.84183  0.10717  0.82389  1.0000
  H   H117      1.0  0.93178  0.05259  0.77700  1.0000
  H   H118      1.0  0.93542  0.13794  0.77366  1.0000
  S   S25       1.0  0.05777  0.17075  0.65971  1.0000
  C   C105      1.0  0.68448  0.18450  0.82247  1.0000
  C   C106      1.0  0.90422  0.00637  0.74130  1.0000
  H   H119      1.0  0.76189  0.25445  0.84830  1.0000
  C   C107      1.0  0.58485  0.12916  0.79562  1.0000
  H   H120      1.0  0.58694  0.10384  0.83331  1.0000
  C   C108      1.0  0.57953  0.19380  0.69849  1.0000
  H   H121      1.0  0.57516  0.21863  0.66277  1.0000
  H   H122      1.0  0.64023  0.85500  0.77223  1.0000
  H   H123      1.0  0.86249  0.32295  0.63757  1.0000
  S   S26       1.0  0.58538  0.98809  0.63552  1.0000
  N   N8        1.0  0.78520  0.45262  0.10898  1.0000
  C   C109      1.0  0.83987  0.38863  0.93785  1.0000
  C   C110      1.0  0.78910  0.40242  0.94801  1.0000
  H   H124      1.0  0.75380  0.44497  0.90154  1.0000
  H   H125      1.0  0.58399  0.56891  0.99513  1.0000
  H   H126      1.0  0.65318  0.79735  0.97241  1.0000
  H   H127      1.0  0.66367  0.78024  0.03565  1.0000
  H   H128      1.0  0.74916  0.48128  0.05632  1.0000
  H   H129      1.0  0.72110  0.82729  0.95441  1.0000
  C   C111      1.0  0.79327  0.43499  0.89384  1.0000
  H   H130      1.0  0.81760  0.52176  0.02422  1.0000
  H   H131      1.0  0.86650  0.50450  0.07214  1.0000
  C   C112      1.0  0.84551  0.46230  0.09209  1.0000
  C   C113      1.0  0.79257  0.48044  0.04693  1.0000
  H   H132      1.0  0.05663  0.43725  0.08582  1.0000
  S   S27       1.0  0.99758  0.34181  0.93117  1.0000
  H   H133      1.0  0.62752  0.67124  0.05927  1.0000
  H   H134      1.0  0.74657  0.38748  0.99756  1.0000
  C   C114      1.0  0.62401  0.34180  0.04367  1.0000
  S   S28       1.0  0.83244  0.34499  0.00537  1.0000
  H   H135      1.0  0.58110  0.35288  0.07342  1.0000
  H   H136      1.0  0.81738  0.46199  0.00848  1.0000
  C   C115      1.0  0.67187  0.81325  0.99406  1.0000
  H   H137      1.0  0.87618  0.44582  0.05330  1.0000
  H   H138      1.0  0.65316  0.37238  0.99273  1.0000
  H   H139      1.0  0.64622  0.58588  0.05034  1.0000
  H   H140      1.0  0.64527  0.34323  0.06816  1.0000
  H   H141      1.0  0.99479  0.35283  0.10752  1.0000
  C   C116      1.0  0.62995  0.59277  0.09630  1.0000
  C   C117      1.0  0.61966  0.64115  0.10121  1.0000
  N   N9        1.0  0.07211  0.36135  0.10552  1.0000
  C   C118      1.0  0.07102  0.41285  0.11299  1.0000
  Fe  Fe14      1.0  0.59297  0.76925  0.33044  1.0000
  H   H142      1.0  0.74320  0.45713  0.20681  1.0000
  Fe  Fe15      1.0  0.84199  0.35062  0.25468  1.0000
  H   H143      1.0  0.68918  0.64582  0.30842  1.0000
  H   H144      1.0  0.82200  0.36464  0.14109  1.0000
  H   H145      1.0  0.03938  0.41019  0.16629  1.0000
  Fe  Fe16      1.0  0.82212  0.45728  0.25951  1.0000
  C   C119      1.0  0.59850  0.65029  0.16061  1.0000
  H   H146      1.0  0.05829  0.50776  0.20724  1.0000
  C   C120      1.0  0.58851  0.61097  0.21460  1.0000
  S   S29       1.0  0.62968  0.71211  0.27874  1.0000
  C   C121      1.0  0.61726  0.55285  0.15151  1.0000
  H   H147      1.0  0.76633  0.51783  0.14271  1.0000
  H   H148      1.0  0.57432  0.61812  0.25960  1.0000
  C   C122      1.0  0.75145  0.54764  0.26324  1.0000
  C   C123      1.0  0.74692  0.59818  0.26127  1.0000
  S   S30       1.0  0.76110  0.38161  0.29355  1.0000
  H   H149      1.0  0.70147  0.47002  0.17632  1.0000
  S   S31       1.0  0.82054  0.53506  0.20818  1.0000
  H   H150      1.0  0.03197  0.35729  0.34332  1.0000
  H   H151      1.0  0.78631  0.63026  0.22498  1.0000
  S   S32       1.0  0.58247  0.71011  0.16754  1.0000
  H   H152      1.0  0.84332  0.44572  0.13725  1.0000
  H   H153      1.0  0.70365  0.46767  0.31142  1.0000
  C   C124      1.0  0.64521  0.51541  0.35594  1.0000
  S   S33       1.0  0.62715  0.49178  0.14554  1.0000
  C   C125      1.0  0.78021  0.35676  0.14911  1.0000
  S   S34       1.0  0.96608  0.41301  0.30900  1.0000
  C   C126      1.0  0.69178  0.60711  0.30796  1.0000
  C   C127      1.0  0.74745  0.47539  0.16073  1.0000
  S   S35       1.0  0.90429  0.42772  0.21117  1.0000
  C   C128      1.0  0.59664  0.56202  0.21061  1.0000
  Fe  Fe17      1.0  0.88650  0.40627  0.31045  1.0000
  C   C129      1.0  0.70051  0.50640  0.31060  1.0000
  H   H154      1.0  0.58809  0.53172  0.25288  1.0000
  C   C130      1.0  0.64081  0.56566  0.35537  1.0000
  S   S36       1.0  0.80863  0.44167  0.35655  1.0000
  C   C131      1.0  0.75596  0.39696  0.13457  1.0000
  H   H155      1.0  0.67940  0.40965  0.13747  1.0000
  C   C132      1.0  0.70129  0.38146  0.14578  1.0000
  C   C133      1.0  0.67434  0.32936  0.16680  1.0000
  C   C134      1.0  0.01065  0.33374  0.13599  1.0000
  H   H156      1.0  0.97737  0.33211  0.18847  1.0000
  H   H157      1.0  0.02351  0.33378  0.23911  1.0000
  C   C135      1.0  0.64065  0.47243  0.56846  1.0000
  H   H158      1.0  0.68929  0.74435  0.53011  1.0000
  C   C136      1.0  0.94417  0.36962  0.38525  1.0000
  H   H159      1.0  0.67468  0.42255  0.50749  1.0000
  C   C137      1.0  0.98578  0.34654  0.38778  1.0000
  H   H160      1.0  0.71649  0.80397  0.53177  1.0000
  H   H161      1.0  0.90748  0.46006  0.59637  1.0000
  H   H162      1.0  0.77240  0.45395  0.57713  1.0000
  H   H163      1.0  0.85261  0.37468  0.44133  1.0000
  H   H164      1.0  0.63916  0.55452  0.48650  1.0000
  H   H165      1.0  0.93324  0.36522  0.56207  1.0000
  H   H166      1.0  0.75496  0.41142  0.51476  1.0000
  H   H167      1.0  0.65420  0.39252  0.39652  1.0000
  C   C138      1.0  0.59759  0.78249  0.59412  1.0000
  C   C139      1.0  0.72601  0.43500  0.53976  1.0000
  C   C140      1.0  0.67931  0.44167  0.53617  1.0000
  Fe  Fe18      1.0  0.75221  0.36420  0.38812  1.0000
  C   C141      1.0  0.68999  0.76294  0.56296  1.0000
  H   H168      1.0  0.62884  0.46976  0.47193  1.0000
  H   H169      1.0  0.62155  0.82337  0.55959  1.0000
  C   C142      1.0  0.61076  0.36748  0.43791  1.0000
  H   H170      1.0  0.71483  0.74272  0.57875  1.0000
  H   H171      1.0  0.97810  0.44569  0.56879  1.0000
  C   C143      1.0  0.73601  0.45902  0.57470  1.0000
  H   H172      1.0  0.60581  0.48343  0.39152  1.0000
  C   C144      1.0  0.88463  0.35617  0.44298  1.0000
  H   H173      1.0  0.59660  0.55792  0.56955  1.0000
  C   C145      1.0  0.89040  0.36346  0.60992  1.0000
  C   C146      1.0  0.59692  0.53631  0.53886  1.0000
  C   C147      1.0  0.65172  0.49571  0.60437  1.0000
  C   C148      1.0  0.69906  0.48949  0.60664  1.0000
  C   C149      1.0  0.60320  0.33120  0.49208  1.0000
  N   N10       1.0  0.59040  0.48011  0.56644  1.0000
  H   H174      1.0  0.86515  0.38596  0.59666  1.0000
  C   C150      1.0  0.93114  0.43939  0.61373  1.0000
  H   H175      1.0  0.59451  0.76094  0.56502  1.0000
  H   H176      1.0  0.57669  0.41247  0.54506  1.0000
  C   C151      1.0  0.58651  0.45535  0.52432  1.0000
  N   N11       1.0  0.62859  0.76003  0.62115  1.0000
  H   H177      1.0  0.62408  0.51934  0.63081  1.0000
  H   H178      1.0  0.58794  0.34227  0.63424  1.0000
  H   H179      1.0  0.81698  0.33547  0.74392  1.0000
  H   H180      1.0  0.64430  0.65431  0.77776  1.0000
  C   C152      1.0  0.90013  0.44385  0.82070  1.0000
  H   H181      1.0  0.93188  0.45974  0.64506  1.0000
  C   C153      1.0  0.60148  0.59175  0.77157  1.0000
  S   S37       1.0  0.72357  0.35230  0.69868  1.0000
  Fe  Fe19      1.0  0.68895  0.51989  0.74218  1.0000
  C   C154      1.0  0.59624  0.70476  0.66297  1.0000
  C   C155      1.0  0.60264  0.62723  0.80094  1.0000
  S   S38       1.0  0.77007  0.48946  0.69001  1.0000
  S   S39       1.0  0.69016  0.51631  0.82826  1.0000
  C   C156      1.0  0.95861  0.37491  0.69711  1.0000
  C   C157      1.0  0.58670  0.34127  0.71784  1.0000
  H   H182      1.0  0.67802  0.73653  0.68584  1.0000
  Fe  Fe20      1.0  0.70616  0.41078  0.74922  1.0000
  Fe  Fe21      1.0  0.76615  0.47905  0.78047  1.0000
  H   H183      1.0  0.94962  0.40969  0.70870  1.0000
  H   H184      1.0  0.57595  0.33433  0.80679  1.0000
  Fe  Fe22      1.0  0.63046  0.43679  0.87666  1.0000
  C   C158      1.0  0.84208  0.37690  0.71506  1.0000
  H   H185      1.0  0.00902  0.36575  0.73506  1.0000
  H   H186      1.0  0.63118  0.36694  0.68624  1.0000
  H   H187      1.0  0.84636  0.39238  0.74803  1.0000
  H   H188      1.0  0.94338  0.46094  0.77189  1.0000
  S   S40       1.0  0.85432  0.49418  0.76124  1.0000
  H   H189      1.0  0.81401  0.39781  0.70560  1.0000
  C   C159      1.0  0.99204  0.34954  0.71329  1.0000
  C   C160      1.0  0.66198  0.79367  0.73155  1.0000
  C   C161      1.0  0.65903  0.76944  0.69217  1.0000
  H   H190      1.0  0.68283  0.77945  0.75445  1.0000
  C   C162      1.0  0.63157  0.78695  0.66197  1.0000
  N   N12       1.0  0.90098  0.38319  0.65126  1.0000
  S   S41       1.0  0.66810  0.58885  0.69986  1.0000
  C   C163      1.0  0.93684  0.35566  0.66714  1.0000
  H   H191      1.0  0.62257  0.68268  0.67447  1.0000
  S   S42       1.0  0.70640  0.39857  0.83709  1.0000
  S   S43       1.0  0.62533  0.44190  0.79292  1.0000
  C   C164      1.0  0.89549  0.40949  0.87427  1.0000
  C   C165      1.0  0.84880  0.45551  0.83007  1.0000
  H   H192      1.0  0.93508  0.39984  0.86665  1.0000
  H   H193      1.0  0.58560  0.68425  0.63790  1.0000
  H   H194      1.0  0.70708  0.50889  0.63309  1.0000
  S   S44       1.0  0.17519  0.10412  0.06467  1.0000
  Fe  Fe23      1.0  0.24500  0.06419  0.00998  1.0000
  S   S45       1.0  0.27068  0.05427  0.07718  1.0000
  H   H195      1.0  0.37125  0.26042  0.92737  1.0000
  C   C166      1.0  0.44705  0.83673  0.04053  1.0000
  H   H196      1.0  0.37140  0.89561  0.91876  1.0000
  H   H197      1.0  0.55457  0.86263  0.08436  1.0000
  H   H198      1.0  0.42365  0.19217  0.91619  1.0000
  S   S46       1.0  0.50747  0.07803  0.02440  1.0000
  C   C167      1.0  0.42886  0.85707  0.09154  1.0000
  S   S47       1.0  0.31424  0.09256  0.89873  1.0000
  H   H199      1.0  0.20191  0.26660  0.11482  1.0000
  H   H200      1.0  0.50407  0.95015  0.88219  1.0000
  H   H201      1.0  0.12988  0.13939  0.96271  1.0000
  C   C168      1.0  0.39748  0.96156  0.99673  1.0000
  H   H202      1.0  0.20151  0.91971  0.93312  1.0000
  S   S48       1.0  0.18160  0.98562  0.06634  1.0000
  Fe  Fe24      1.0  0.11231  0.02482  0.12694  1.0000
  C   C169      1.0  0.51674  0.92931  0.01287  1.0000
  H   H203      1.0  0.52882  0.27907  0.91463  1.0000
  C   C170      1.0  0.08931  0.98749  0.97946  1.0000
  H   H204      1.0  0.49196  0.20078  0.90676  1.0000
  H   H205      1.0  0.43638  0.94764  0.98832  1.0000
  N   N13       1.0  0.45864  0.26880  0.90495  1.0000
  H   H206      1.0  0.09120  0.14756  0.89798  1.0000
  C   C171      1.0  0.50039  0.86245  0.97588  1.0000
  H   H207      1.0  0.38539  0.25358  0.11399  1.0000
  C   C172      1.0  0.53560  0.90839  0.96233  1.0000
  H   H208      1.0  0.42185  0.19527  0.98489  1.0000
  C   C173      1.0  0.44862  0.21176  0.92911  1.0000
  S   S49       1.0  0.52375  0.84034  0.90951  1.0000
  C   C174      1.0  0.24637  0.93746  0.88632  1.0000
  H   H209      1.0  0.37280  0.27078  0.99087  1.0000
  C   C175      1.0  0.14757  0.07302  0.89024  1.0000
  C   C176      1.0  0.39970  0.28128  0.93533  1.0000
  C   C177      1.0  0.11650  0.03967  0.95799  1.0000
  C   C178      1.0  0.48677  0.29065  0.93041  1.0000
  H   H210      1.0  0.45717  0.27671  0.98636  1.0000
  H   H211      1.0  0.11199  0.05292  0.99580  1.0000
  H   H212      1.0  0.41681  0.88545  0.94607  1.0000
  H   H213      1.0  0.56961  0.21123  0.10757  1.0000
  C   C179      1.0  0.17570  0.14449  0.91642  1.0000
  C   C180      1.0  0.46319  0.90376  0.07743  1.0000
  C   C181      1.0  0.37817  0.90082  0.95515  1.0000
  H   H214      1.0  0.17055  0.31647  0.05390  1.0000
  C   C182      1.0  0.14423  0.31050  0.10681  1.0000
  H   H215      1.0  0.53309  0.29611  0.05101  1.0000
  H   H216      1.0  0.31715  0.96395  0.93870  1.0000
  C   C183      1.0  0.09216  0.96695  0.93445  1.0000
  H   H217      1.0  0.54294  0.96577  0.00143  1.0000
  H   H218      1.0  0.33827  0.87574  0.00624  1.0000
  C   C184      1.0  0.33033  0.97009  0.96973  1.0000
  Fe  Fe25      1.0  0.50351  0.12096  0.08836  1.0000
  H   H219      1.0  0.20016  0.12190  0.93077  1.0000
  H   H220      1.0  0.57041  0.25281  0.00945  1.0000
  H   H221      1.0  0.35863  0.93852  0.04990  1.0000
  H   H222      1.0  0.40556  0.00272  0.99257  1.0000
  H   H223      1.0  0.29244  0.94615  0.02285  1.0000
  H   H224      1.0  0.24257  0.01447  0.88905  1.0000
  S   S50       1.0  0.45905  0.18576  0.10599  1.0000
  N   N14       1.0  0.38708  0.95586  0.94876  1.0000
  H   H225      1.0  0.33394  0.01108  0.96666  1.0000
  H   H226      1.0  0.27926  0.17979  0.94654  1.0000
  C   C185      1.0  0.30630  0.19322  0.89244  1.0000
  Fe  Fe26      1.0  0.49822  0.00836  0.09948  1.0000
  C   C186      1.0  0.36303  0.21596  0.12326  1.0000
  C   C187      1.0  0.39050  0.17518  0.12054  1.0000
  H   H227      1.0  0.40554  0.32346  0.91383  1.0000
  H   H228      1.0  0.19855  0.18622  0.89630  1.0000
  H   H229      1.0  0.29840  0.27180  0.88265  1.0000
  H   H230      1.0  0.38269  0.09470  0.13131  1.0000
  H   H231      1.0  0.28488  0.23961  0.14151  1.0000
  H   H232      1.0  0.43416  0.84411  0.24618  1.0000
  H   H233      1.0  0.15782  0.87793  0.14478  1.0000
  C   C188      1.0  0.34078  0.28938  0.22587  1.0000
  S   S51       1.0  0.23103  0.91499  0.17754  1.0000
  S   S52       1.0  0.15682  0.27164  0.33444  1.0000
  H   H234      1.0  0.33470  0.10495  0.31485  1.0000
  C   C189      1.0  0.44443  0.86280  0.27167  1.0000
  H   H235      1.0  0.33261  0.32118  0.20027  1.0000
  S   S53       1.0  0.52870  0.23627  0.27156  1.0000
  C   C190      1.0  0.35975  0.20841  0.29510  1.0000
  H   H236      1.0  0.38766  0.83705  0.14162  1.0000
  C   C191      1.0  0.30206  0.98549  0.24160  1.0000
  S   S54       1.0  0.12673  0.01162  0.20503  1.0000
  H   H237      1.0  0.27212  0.98468  0.22715  1.0000
  C   C192      1.0  0.16281  0.28147  0.14137  1.0000
  H   H238      1.0  0.27949  0.07933  0.16629  1.0000
  Fe  Fe27      1.0  0.20143  0.97864  0.13943  1.0000
  N   N15       1.0  0.48888  0.93660  0.37110  1.0000
  N   N16       1.0  0.26634  0.14651  0.33763  1.0000
  C   C193      1.0  0.30613  0.20795  0.13932  1.0000
  C   C194      1.0  0.22284  0.95706  0.36202  1.0000
  H   H239      1.0  0.31218  0.02481  0.24177  1.0000
  H   H240      1.0  0.51518  0.92457  0.18100  1.0000
  H   H241      1.0  0.53933  0.96719  0.23702  1.0000
  C   C195      1.0  0.41201  0.84161  0.34112  1.0000
  C   C196      1.0  0.49014  0.90805  0.23501  1.0000
  H   H242      1.0  0.22907  0.14996  0.28471  1.0000
  H   H243      1.0  0.31729  0.11698  0.25806  1.0000
  C   C197      1.0  0.17543  0.96529  0.35878  1.0000
  H   H244      1.0  0.51358  0.15220  0.23463  1.0000
  C   C198      1.0  0.43049  0.09796  0.32149  1.0000
  H   H245      1.0  0.36413  0.93607  0.27238  1.0000
  S   S55       1.0  0.20472  0.14896  0.17526  1.0000
  C   C199      1.0  0.26523  0.82995  0.14612  1.0000
  Fe  Fe28      1.0  0.50273  0.30773  0.29487  1.0000
  C   C200      1.0  0.47602  0.14347  0.28689  1.0000
  H   H246      1.0  0.23813  0.86277  0.35523  1.0000
  C   C201      1.0  0.30377  0.11790  0.15139  1.0000
  C   C202      1.0  0.47691  0.98857  0.36396  1.0000
  C   C203      1.0  0.27640  0.15887  0.15355  1.0000
  C   C204      1.0  0.20835  0.31266  0.33093  1.0000
  C   C205      1.0  0.36161  0.12637  0.13294  1.0000
  H   H247      1.0  0.18906  0.17160  0.35507  1.0000
  H   H248      1.0  0.17631  0.96154  0.31792  1.0000
  H   H249      1.0  0.34429  0.97974  0.20001  1.0000
  C   C206      1.0  0.29752  0.10732  0.31167  1.0000
  H   H250      1.0  0.56661  0.95521  0.36677  1.0000
  H   H251      1.0  0.54073  0.15157  0.36627  1.0000
  H   H252      1.0  0.18250  0.10395  0.36830  1.0000
  C   C207      1.0  0.47230  0.91117  0.33811  1.0000
  H   H253      1.0  0.50395  0.01442  0.31038  1.0000
  C   C208      1.0  0.38954  0.29812  0.22582  1.0000
  C   C209      1.0  0.08165  0.29072  0.24418  1.0000
  S   S56       1.0  0.43780  0.93070  0.14008  1.0000
  H   H254      1.0  0.43744  0.26419  0.25961  1.0000
  S   S57       1.0  0.48521  0.05001  0.16845  1.0000
  H   H255      1.0  0.29493  0.83631  0.15836  1.0000
  H   H256      1.0  0.43285  0.07200  0.29573  1.0000
  C   C210      1.0  0.39934  0.25752  0.25992  1.0000
  C   C211      1.0  0.50373  0.93212  0.26757  1.0000
  H   H257      1.0  0.26446  0.23670  0.25815  1.0000
  H   H258      1.0  0.29679  0.88448  0.26565  1.0000
  C   C212      1.0  0.30120  0.24032  0.26046  1.0000
  C   C213      1.0  0.21456  0.14292  0.33637  1.0000
  H   H259      1.0  0.14660  0.24927  0.23607  1.0000
  C   C214      1.0  0.13170  0.27166  0.20978  1.0000
  C   C215      1.0  0.30897  0.19838  0.29726  1.0000
  C   C216      1.0  0.32411  0.94330  0.31509  1.0000
  C   C217      1.0  0.55363  0.94258  0.33835  1.0000
  N   N17       1.0  0.27597  0.94526  0.30765  1.0000
  C   C218      1.0  0.25794  0.89434  0.30666  1.0000
  H   H260      1.0  0.36892  0.17827  0.32099  1.0000
  H   H261      1.0  0.22416  0.89358  0.29757  1.0000
  C   C219      1.0  0.22705  0.86229  0.15326  1.0000
  H   H262      1.0  0.33959  0.98050  0.31656  1.0000
  C   C220      1.0  0.47200  0.17850  0.31890  1.0000
  C   C221      1.0  0.18837  0.85382  0.13780  1.0000
  H   H263      1.0  0.30932  0.91117  0.36119  1.0000
  H   H264      1.0  0.56561  0.90523  0.33459  1.0000
  H   H265      1.0  0.26665  0.06794  0.34031  1.0000
  C   C222      1.0  0.22628  0.29532  0.37101  1.0000
  Fe  Fe29      1.0  0.19494  0.08784  0.13785  1.0000
  H   H266      1.0  0.53365  0.25793  0.14243  1.0000
  C   C223      1.0  0.27395  0.32717  0.35989  1.0000
  S   S58       1.0  0.41393  0.31166  0.38127  1.0000
  C   C224      1.0  0.42541  0.86540  0.37408  1.0000
  H   H267      1.0  0.49422  0.82872  0.53821  1.0000
  H   H268      1.0  0.16213  0.97563  0.51203  1.0000
  H   H269      1.0  0.27763  0.12783  0.41517  1.0000
  H   H270      1.0  0.51047  0.05181  0.57341  1.0000
  H   H271      1.0  0.42891  0.98565  0.38652  1.0000
  H   H272      1.0  0.28993  0.31323  0.38839  1.0000
  C   C225      1.0  0.24253  0.13298  0.40877  1.0000
  H   H273      1.0  0.40638  0.90418  0.47300  1.0000
  H   H274      1.0  0.48747  0.00861  0.38945  1.0000
  C   C226      1.0  0.56410  0.83351  0.43721  1.0000
  S   S59       1.0  0.23033  0.03873  0.61169  1.0000
  C   C227      1.0  0.38191  0.08613  0.38904  1.0000
  H   H275      1.0  0.34217  0.11048  0.47470  1.0000
  H   H276      1.0  0.22232  0.22318  0.52535  1.0000
  H   H277      1.0  0.46191  0.86739  0.45298  1.0000
  H   H278      1.0  0.18965  0.13864  0.61632  1.0000
  H   H279      1.0  0.34119  0.23682  0.59432  1.0000
  C   C228      1.0  0.49685  0.30542  0.54793  1.0000
  C   C229      1.0  0.42375  0.16656  0.38680  1.0000
  H   H280      1.0  0.25467  0.28103  0.52541  1.0000
  H   H281      1.0  0.45297  0.28087  0.58985  1.0000
  S   S60       1.0  0.54444  0.89585  0.57000  1.0000
  C   C230      1.0  0.54601  0.30049  0.54760  1.0000
  H   H282      1.0  0.53978  0.27258  0.58993  1.0000
  H   H283      1.0  0.31382  0.17194  0.57006  1.0000
  S   S61       1.0  0.57240  0.12836  0.58788  1.0000
  Fe  Fe30      1.0  0.08768  0.21896  0.43970  1.0000
  Fe  Fe31      1.0  0.28292  0.99923  0.53862  1.0000
  H   H284      1.0  0.51727  0.16480  0.46365  1.0000
  C   C231      1.0  0.37927  0.11981  0.42224  1.0000
  C   C232      1.0  0.54117  0.20618  0.43122  1.0000
  C   C233      1.0  0.12105  0.98198  0.46335  1.0000
  H   H285      1.0  0.22313  0.16384  0.42842  1.0000
  N   N18       1.0  0.24269  0.21024  0.59525  1.0000
  C   C234      1.0  0.12559  0.97788  0.40858  1.0000
  C   C235      1.0  0.22365  0.24156  0.55798  1.0000
  C   C236      1.0  0.21621  0.96060  0.41931  1.0000
  H   H286      1.0  0.29384  0.17943  0.51570  1.0000
  S   S62       1.0  0.34787  0.99248  0.56096  1.0000
  C   C237      1.0  0.29905  0.19865  0.54540  1.0000
  H   H287      1.0  0.52738  0.22841  0.46587  1.0000
  C   C238      1.0  0.46888  0.15371  0.62491  1.0000
  H   H288      1.0  0.33570  0.23459  0.50934  1.0000
  H   H289      1.0  0.24907  0.95394  0.42723  1.0000
  C   C239      1.0  0.42651  0.07087  0.60697  1.0000
  C   C240      1.0  0.16616  0.97319  0.46880  1.0000
  H   H290      1.0  0.20724  0.09575  0.44172  1.0000
  H   H291      1.0  0.20561  0.25658  0.40789  1.0000
  H   H292      1.0  0.42103  0.19308  0.41204  1.0000
  H   H293      1.0  0.08977  0.98392  0.40528  1.0000
  H   H294      1.0  0.17769  0.24619  0.59196  1.0000
  H   H295      1.0  0.52455  0.22031  0.40193  1.0000
  H   H296      1.0  0.47003  0.92601  0.46725  1.0000
  S   S63       1.0  0.32371  0.03052  0.42938  1.0000
  C   C241      1.0  0.45525  0.90720  0.44408  1.0000
  H   H297      1.0  0.39902  0.84668  0.42764  1.0000
  H   H298      1.0  0.08197  0.99122  0.50216  1.0000
  C   C242      1.0  0.54030  0.84610  0.49496  1.0000
  H   H299      1.0  0.40987  0.03851  0.60086  1.0000
  C   C243      1.0  0.48327  0.07832  0.59167  1.0000
  C   C244      1.0  0.50388  0.11927  0.60184  1.0000
  S   S64       1.0  0.09327  0.14675  0.49676  1.0000
  C   C245      1.0  0.30167  0.24863  0.62740  1.0000
  H   H300      1.0  0.08686  0.08951  0.60546  1.0000
  S   S65       1.0  0.22179  0.92016  0.61160  1.0000
  H   H301      1.0  0.29994  0.84488  0.77489  1.0000
  C   C246      1.0  0.07876  0.02581  0.67965  1.0000
  C   C247      1.0  0.19692  0.16033  0.64275  1.0000
  H   H302      1.0  0.40426  0.24149  0.69843  1.0000
  C   C248      1.0  0.33015  0.15883  0.85818  1.0000
  C   C249      1.0  0.34115  0.84523  0.77104  1.0000
  H   H303      1.0  0.16711  0.29686  0.74805  1.0000
  S   S66       1.0  0.31860  0.84686  0.65403  1.0000
  C   C250      1.0  0.36650  0.17667  0.78823  1.0000
  C   C251      1.0  0.43457  0.02477  0.83447  1.0000
  H   H304      1.0  0.40745  0.00263  0.72222  1.0000
  H   H305      1.0  0.48446  0.17437  0.77761  1.0000
  Fe  Fe32      1.0  0.28365  0.91578  0.63887  1.0000
  H   H306      1.0  0.26020  0.18455  0.78841  1.0000
  N   N19       1.0  0.17445  0.12898  0.86658  1.0000
  H   H307      1.0  0.13995  0.15271  0.81144  1.0000
  H   H308      1.0  0.34539  0.05521  0.78348  1.0000
  C   C252      1.0  0.36226  0.98339  0.76700  1.0000
  C   C253      1.0  0.39870  0.92450  0.67636  1.0000
  H   H309      1.0  0.41983  0.89948  0.64576  1.0000
  C   C254      1.0  0.30576  0.27622  0.66338  1.0000
  H   H310      1.0  0.41183  0.87750  0.79987  1.0000
  C   C255      1.0  0.35193  0.26255  0.78616  1.0000
  H   H311      1.0  0.48020  0.08246  0.73595  1.0000
  H   H312      1.0  0.45494  0.87292  0.71769  1.0000
  H   H313      1.0  0.43424  0.96079  0.64975  1.0000
  C   C256      1.0  0.49525  0.28910  0.83060  1.0000
  C   C257      1.0  0.55403  0.32228  0.78777  1.0000
  S   S67       1.0  0.07777  0.94859  0.76865  1.0000
  H   H314      1.0  0.09441  0.00201  0.64857  1.0000
  C   C258      1.0  0.12212  0.99855  0.86779  1.0000
  C   C259      1.0  0.47232  0.27550  0.79875  1.0000
  S   S68       1.0  0.31733  0.09372  0.65889  1.0000
  C   C260      1.0  0.54737  0.00908  0.78722  1.0000
  Fe  Fe33      1.0  0.29090  0.02669  0.63960  1.0000
  H   H315      1.0  0.26117  0.31544  0.73406  1.0000
  C   C261      1.0  0.50526  0.29495  0.72884  1.0000
  H   H316      1.0  0.42863  0.24963  0.82783  1.0000
  H   H317      1.0  0.48629  0.28485  0.70576  1.0000
  C   C262      1.0  0.41238  0.14633  0.64002  1.0000
  S   S69       1.0  0.23294  0.94954  0.72002  1.0000
  H   H318      1.0  0.21036  0.13502  0.67037  1.0000
  H   H319      1.0  0.48951  0.11766  0.86390  1.0000
  C   C263      1.0  0.43937  0.98732  0.87894  1.0000
  C   C264      1.0  0.53007  0.13724  0.81306  1.0000
  C   C265      1.0  0.20464  0.28317  0.71469  1.0000
  H   H320      1.0  0.39249  0.03237  0.84905  1.0000
  S   S70       1.0  0.36705  0.32666  0.73806  1.0000
  H   H321      1.0  0.15270  0.16590  0.68064  1.0000
  Fe  Fe34      1.0  0.17515  0.95921  0.68773  1.0000
  C   C266      1.0  0.13898  0.15895  0.85248  1.0000
  C   C267      1.0  0.32732  0.01370  0.80229  1.0000
  C   C268      1.0  0.26938  0.99083  0.86168  1.0000
  C   C269      1.0  0.42693  0.89608  0.74796  1.0000
  H   H322      1.0  0.36213  0.93340  0.67389  1.0000
  H   H323      1.0  0.38499  0.17260  0.65896  1.0000
  C   C270      1.0  0.54125  0.04658  0.74572  1.0000
  C   C271      1.0  0.23713  0.14380  0.80402  1.0000
  C   C272      1.0  0.31720  0.24527  0.85630  1.0000
  H   H324      1.0  0.38577  0.15030  0.76172  1.0000
  C   C273      1.0  0.19992  0.25570  0.67911  1.0000
  H   H325      1.0  0.15599  0.20129  0.83730  1.0000
  C   C274      1.0  0.37669  0.22819  0.75240  1.0000
  C   C275      1.0  0.33913  0.92941  0.78847  1.0000
  H   H326      1.0  0.12393  0.98252  0.83293  1.0000
  C   C276      1.0  0.25746  0.29358  0.70682  1.0000
  C   C277      1.0  0.49722  0.97961  0.85266  1.0000
  C   C278      1.0  0.14922  0.05084  0.84586  1.0000
  H   H327      1.0  0.26372  0.11838  0.81088  1.0000
  N   N20       1.0  0.37539  0.89899  0.74711  1.0000
  H   H328      1.0  0.15781  0.24879  0.68719  1.0000
  H   H329      1.0  0.24032  0.14139  0.76030  1.0000
  C   C279      1.0  0.52734  0.16919  0.76445  1.0000
  H   H330      1.0  0.45673  0.93496  0.72673  1.0000
  C   C280      1.0  0.48484  0.05374  0.76886  1.0000
  C   C281      1.0  0.28055  0.90690  0.85060  1.0000
  H   H331      1.0  0.17108  0.07375  0.79388  1.0000
  C   C282      1.0  0.56245  0.32754  0.68844  1.0000
  H   H332      1.0  0.34723  0.28517  0.65642  1.0000
  H   H333      1.0  0.25992  0.86585  0.87230  1.0000
  C   C283      1.0  0.39062  0.10426  0.63254  1.0000
  C   C284      1.0  0.07451  0.07533  0.65519  1.0000
  H   H334      1.0  0.48480  0.18543  0.63269  1.0000
  C   C285      1.0  0.24863  0.23824  0.63345  1.0000
  Fe  Fe35      1.0  0.41517  0.66357  0.95942  1.0000
  H   H335      1.0  0.29663  0.76595  0.11453  1.0000
  H   H336      1.0  0.49631  0.33365  0.91304  1.0000
  Fe  Fe36      1.0  0.33213  0.40575  0.90920  1.0000
  S   S71       1.0  0.26622  0.36990  0.89947  1.0000
  H   H337      1.0  0.30204  0.47102  0.00416  1.0000
  Fe  Fe37      1.0  0.45577  0.77749  0.92889  1.0000
  C   C286      1.0  0.48343  0.40042  0.99132  1.0000
  C   C287      1.0  0.37988  0.38205  0.00106  1.0000
  C   C288      1.0  0.49715  0.58925  0.89401  1.0000
  H   H338      1.0  0.47212  0.61470  0.04531  1.0000
  H   H339      1.0  0.52264  0.45681  0.89433  1.0000
  H   H340      1.0  0.25778  0.53657  0.99198  1.0000
  C   C289      1.0  0.54273  0.54554  0.00857  1.0000
  C   C290      1.0  0.48334  0.42767  0.93831  1.0000
  H   H341      1.0  0.09236  0.39291  0.00774  1.0000
  H   H342      1.0  0.15824  0.80680  0.10272  1.0000
  H   H343      1.0  0.24609  0.71840  0.95440  1.0000
  H   H344      1.0  0.15635  0.39303  0.00555  1.0000
  H   H345      1.0  0.18327  0.57562  0.99246  1.0000
  C   C291      1.0  0.18832  0.81336  0.11450  1.0000
  H   H346      1.0  0.55545  0.51546  0.98472  1.0000
  C   C292      1.0  0.16022  0.68864  0.98171  1.0000
  H   H347      1.0  0.27215  0.53359  0.12828  1.0000
  C   C293      1.0  0.25403  0.68735  0.88242  1.0000
  Fe  Fe38      1.0  0.32435  0.72777  0.00424  1.0000
  H   H348      1.0  0.33862  0.32908  0.10085  1.0000
  H   H349      1.0  0.52925  0.45356  0.08175  1.0000
  H   H350      1.0  0.33854  0.46893  0.04144  1.0000
  C   C294      1.0  0.26630  0.79029  0.12117  1.0000
  C   C295      1.0  0.47297  0.60873  0.08733  1.0000
  H   H351      1.0  0.45440  0.52675  0.88811  1.0000
  H   H352      1.0  0.45505  0.68281  0.09336  1.0000
  C   C296      1.0  0.22238  0.69999  0.94062  1.0000
  C   C297      1.0  0.30545  0.48610  0.03778  1.0000
  S   S72       1.0  0.54872  0.40722  0.98466  1.0000
  N   N21       1.0  0.24638  0.47311  0.10465  1.0000
  H   H353      1.0  0.43257  0.43815  0.90077  1.0000
  S   S73       1.0  0.31578  0.36784  0.00689  1.0000
  C   C298      1.0  0.11628  0.54436  0.09971  1.0000
  C   C299      1.0  0.17246  0.55170  0.03974  1.0000
  H   H354      1.0  0.55173  0.65303  0.88514  1.0000
  H   H355      1.0  0.21265  0.40165  0.10438  1.0000
  H   H356      1.0  0.44799  0.46685  0.07336  1.0000
  H   H357      1.0  0.41965  0.80136  0.05120  1.0000
  C   C300      1.0  0.20232  0.49754  0.10174  1.0000
  S   S74       1.0  0.23046  0.73447  0.07100  1.0000
  S   S75       1.0  0.38935  0.79688  0.91148  1.0000
  C   C301      1.0  0.43105  0.36538  0.05016  1.0000
  H   H358      1.0  0.56298  0.79774  0.10628  1.0000
  C   C302      1.0  0.43195  0.41780  0.94258  1.0000
  S   S76       1.0  0.43235  0.58543  0.97229  1.0000
  C   C303      1.0  0.48407  0.56287  0.11359  1.0000
  S   S77       1.0  0.38913  0.71104  0.02580  1.0000
  H   H359      1.0  0.52723  0.57069  0.98385  1.0000
  H   H360      1.0  0.32545  0.52863  0.01271  1.0000
  C   C304      1.0  0.44038  0.49608  0.09815  1.0000
  C   C305      1.0  0.21508  0.52882  0.04032  1.0000
  S   S78       1.0  0.34409  0.67387  0.94740  1.0000
  C   C306      1.0  0.10995  0.37041  0.03232  1.0000
  C   C307      1.0  0.37904  0.35653  0.05538  1.0000
  C   C308      1.0  0.12936  0.66489  0.96451  1.0000
  N   N22       1.0  0.49626  0.52238  0.08268  1.0000
  H   H361      1.0  0.43124  0.34414  0.09092  1.0000
  C   C309      1.0  0.22788  0.78207  0.10524  1.0000
  H   H362      1.0  0.42127  0.52385  0.08115  1.0000
  C   C310      1.0  0.51787  0.48223  0.10774  1.0000
  H   H363      1.0  0.11616  0.43409  0.09242  1.0000
  H   H364      1.0  0.55878  0.49990  0.09969  1.0000
  H   H365      1.0  0.11131  0.33338  0.02256  1.0000
  H   H366      1.0  0.13608  0.69822  0.02709  1.0000
  H   H367      1.0  0.08354  0.56255  0.09917  1.0000
  H   H368      1.0  0.56242  0.82287  0.03677  1.0000
  C   C311      1.0  0.16057  0.65224  0.90618  1.0000
  H   H369      1.0  0.08087  0.65626  0.99661  1.0000
  C   C312      1.0  0.46231  0.64777  0.11508  1.0000
  H   H370      1.0  0.13383  0.63386  0.89598  1.0000
  H   H371      1.0  0.37707  0.80579  0.36970  1.0000
  S   S79       1.0  0.47168  0.43689  0.32574  1.0000
  C   C313      1.0  0.46088  0.64176  0.17070  1.0000
  H   H372      1.0  0.48649  0.52343  0.19661  1.0000
  S   S80       1.0  0.50788  0.37468  0.22085  1.0000
  Fe  Fe39      1.0  0.42408  0.38386  0.30856  1.0000
  H   H373      1.0  0.41931  0.33657  0.19977  1.0000
  H   H374      1.0  0.30071  0.43389  0.23763  1.0000
  Fe  Fe40      1.0  0.55840  0.65115  0.37879  1.0000
  H   H375      1.0  0.22034  0.37615  0.25326  1.0000
  Fe  Fe41      1.0  0.55524  0.42573  0.24002  1.0000
  S   S81       1.0  0.36314  0.41808  0.29040  1.0000
  Fe  Fe42      1.0  0.55947  0.71348  0.26430  1.0000
  C   C314      1.0  0.22298  0.41594  0.13391  1.0000
  S   S82       1.0  0.55794  0.35774  0.30665  1.0000
  C   C315      1.0  0.14420  0.49010  0.16176  1.0000
  H   H376      1.0  0.18145  0.40226  0.18680  1.0000
  C   C316      1.0  0.23485  0.36267  0.28335  1.0000
  H   H377      1.0  0.25616  0.39598  0.13389  1.0000
  H   H378      1.0  0.46762  0.59172  0.24294  1.0000
  S   S83       1.0  0.52841  0.77617  0.30710  1.0000
  H   H379      1.0  0.13073  0.46622  0.21035  1.0000
  C   C317      1.0  0.10217  0.51354  0.16054  1.0000
  H   H380      1.0  0.40568  0.47602  0.15327  1.0000
  C   C318      1.0  0.28045  0.39511  0.27432  1.0000
  C   C319      1.0  0.48023  0.55729  0.17179  1.0000
  C   C320      1.0  0.30133  0.37687  0.31093  1.0000
  S   S84       1.0  0.48957  0.64985  0.36174  1.0000
  H   H381      1.0  0.21609  0.47781  0.20066  1.0000
  C   C321      1.0  0.46886  0.59631  0.19956  1.0000
  H   H382      1.0  0.48301  0.45962  0.16199  1.0000
  H   H383      1.0  0.45363  0.67229  0.19163  1.0000
  C   C322      1.0  0.09346  0.33079  0.14025  1.0000
  C   C323      1.0  0.25682  0.49052  0.14739  1.0000
  H   H384      1.0  0.29189  0.47472  0.14801  1.0000
  H   H385      1.0  0.55038  0.46418  0.52083  1.0000
  H   H386      1.0  0.25995  0.82462  0.59717  1.0000
  C   C324      1.0  0.44034  0.48041  0.48196  1.0000
  H   H387      1.0  0.27704  0.42034  0.61587  1.0000
  H   H388      1.0  0.19843  0.45230  0.61791  1.0000
  H   H389      1.0  0.39879  0.78391  0.60753  1.0000
  C   C325      1.0  0.30545  0.77367  0.54458  1.0000
  H   H390      1.0  0.45848  0.52038  0.44469  1.0000
  H   H391      1.0  0.36072  0.39561  0.58403  1.0000
  C   C326      1.0  0.32954  0.80919  0.60501  1.0000
  C   C327      1.0  0.30481  0.56601  0.52619  1.0000
  C   C328      1.0  0.50475  0.34101  0.49302  1.0000
  H   H392      1.0  0.55929  0.54358  0.53765  1.0000
  C   C329      1.0  0.35176  0.74861  0.52541  1.0000
  C   C330      1.0  0.24126  0.47915  0.59166  1.0000
  H   H393      1.0  0.47919  0.46733  0.47604  1.0000
  H   H394      1.0  0.48144  0.65894  0.60905  1.0000
  H   H395      1.0  0.27859  0.77008  0.52803  1.0000
  C   C331      1.0  0.56181  0.37204  0.43786  1.0000
  H   H396      1.0  0.53562  0.80763  0.43551  1.0000
  Fe  Fe43      1.0  0.46385  0.71185  0.40650  1.0000
  S   S85       1.0  0.44286  0.34584  0.49422  1.0000
  S   S86       1.0  0.52661  0.70765  0.43276  1.0000
  H   H397      1.0  0.31164  0.60673  0.50148  1.0000
  C   C332      1.0  0.29521  0.80489  0.58315  1.0000
  C   C333      1.0  0.37385  0.78223  0.58844  1.0000
  C   C334      1.0  0.35128  0.54850  0.52348  1.0000
  S   S87       1.0  0.36738  0.71392  0.47196  1.0000
  C   C335      1.0  0.38588  0.75289  0.54751  1.0000
  C   C336      1.0  0.37607  0.42436  0.59776  1.0000
  H   H398      1.0  0.42077  0.73277  0.53417  1.0000
  H   H399      1.0  0.45455  0.49738  0.57298  1.0000
  N   N23       1.0  0.39412  0.47821  0.55164  1.0000
  H   H400      1.0  0.41411  0.41269  0.59542  1.0000
  H   H401      1.0  0.42186  0.45516  0.46724  1.0000
  Fe  Fe44      1.0  0.46928  0.36426  0.39086  1.0000
  C   C337      1.0  0.28722  0.46126  0.58999  1.0000
  H   H402      1.0  0.38638  0.51781  0.61646  1.0000
  H   H403      1.0  0.44613  0.55182  0.52908  1.0000
  C   C338      1.0  0.24983  0.53140  0.56036  1.0000
  C   C339      1.0  0.34379  0.49571  0.55603  1.0000
  H   H404      1.0  0.21381  0.54505  0.56248  1.0000
  H   H405      1.0  0.39325  0.57680  0.49544  1.0000
  C   C340      1.0  0.42118  0.51265  0.56843  1.0000
  H   H406      1.0  0.56806  0.40023  0.39565  1.0000
  S   S88       1.0  0.57129  0.57427  0.41660  1.0000
  H   H407      1.0  0.33571  0.71524  0.74605  1.0000
  C   C341      1.0  0.29207  0.61205  0.80869  1.0000
  C   C342      1.0  0.16853  0.40291  0.84173  1.0000
  H   H408      1.0  0.12976  0.48202  0.73079  1.0000
  C   C343      1.0  0.44535  0.61179  0.76481  1.0000
  C   C344      1.0  0.15061  0.37869  0.81262  1.0000
  H   H409      1.0  0.44141  0.57704  0.79914  1.0000
  S   S89       1.0  0.42781  0.75659  0.75960  1.0000
  C   C345      1.0  0.22145  0.62605  0.78728  1.0000
  H   H410      1.0  0.18899  0.58906  0.82852  1.0000
  C   C346      1.0  0.53319  0.45778  0.63550  1.0000
  C   C347      1.0  0.43574  0.65624  0.78189  1.0000
  S   S90       1.0  0.10575  0.37385  0.74553  1.0000
  H   H411      1.0  0.17772  0.38035  0.87398  1.0000
  N   N24       1.0  0.25890  0.64964  0.80169  1.0000
  H   H412      1.0  0.32456  0.62814  0.81463  1.0000
  Fe  Fe45      1.0  0.34668  0.38013  0.79554  1.0000
  H   H413      1.0  0.32878  0.68809  0.69521  1.0000
  H   H414      1.0  0.46112  0.73712  0.64090  1.0000
  H   H415      1.0  0.27937  0.72667  0.73633  1.0000
  C   C348      1.0  0.45680  0.70219  0.67547  1.0000
  C   C349      1.0  0.30243  0.69686  0.74251  1.0000
  H   H416      1.0  0.52565  0.41539  0.65753  1.0000
  S   S91       1.0  0.34226  0.45856  0.75151  1.0000
  H   H417      1.0  0.30225  0.69643  0.85268  1.0000
  H   H418      1.0  0.33992  0.41975  0.65098  1.0000
  C   C350      1.0  0.44087  0.70133  0.73758  1.0000
  H   H419      1.0  0.55352  0.70100  0.71197  1.0000
  H   H420      1.0  0.24905  0.61614  0.74092  1.0000
  C   C351      1.0  0.54792  0.55564  0.80286  1.0000
  Fe  Fe46      1.0  0.26805  0.45187  0.85616  1.0000
  H   H421      1.0  0.32909  0.82111  0.82026  1.0000
  C   C352      1.0  0.46841  0.65814  0.65742  1.0000
  C   C353      1.0  0.17105  0.45535  0.83239  1.0000
  C   C354      1.0  0.22417  0.66317  0.86320  1.0000
  H   H422      1.0  0.36766  0.82494  0.73546  1.0000
  C   C355      1.0  0.14160  0.46016  0.76072  1.0000
  S   S92       1.0  0.19205  0.48377  0.87137  1.0000
  C   C356      1.0  0.49580  0.55447  0.86408  1.0000
  C   C357      1.0  0.46221  0.61288  0.70243  1.0000
  S   S93       1.0  0.47508  0.55741  0.68139  1.0000
  H   H423      1.0  0.53182  0.47551  0.66993  1.0000
  S   S94       1.0  0.41301  0.41011  0.80777  1.0000
  H   H424      1.0  0.54686  0.52811  0.78032  1.0000
  C   C358      1.0  0.13734  0.40723  0.77184  1.0000
  S   S95       1.0  0.32836  0.48746  0.87276  1.0000
  H   H425      1.0  0.31824  0.60015  0.76382  1.0000
  Fe  Fe47      1.0  0.40328  0.48867  0.77014  1.0000
  C   C359      1.0  0.15784  0.48414  0.79167  1.0000
  H   H426      1.0  0.42536  0.65576  0.82887  1.0000
  H   H427      1.0  0.19663  0.65296  0.77916  1.0000
  C   C360      1.0  0.55037  0.62626  0.86187  1.0000
  H   H428      1.0  0.14502  0.33746  0.82379  1.0000
  H   H429      1.0  0.26093  0.57632  0.85332  1.0000
  H   H430      1.0  0.15988  0.52475  0.78425  1.0000
  Fe  Fe48      1.0  0.41410  0.74179  0.85611  1.0000
  S   S96       1.0  0.48657  0.72849  0.86434  1.0000
  H   H431      1.0  0.49426  0.46412  0.63654  1.0000
  H   H432      1.0  0.55092  0.78156  0.63510  1.0000
