data_image0
_chemical_formula_structural       S2CH3C4SC3H2C2H3NH5CH4C2H2C4H3C2SH2C5HCSCH2NCH2CH6CH4CHCHCH2CHCHCSC2H3CSFeHNCSCHC2H4SFeCHCH2CHSFeCH2FeHCSH4CHCH4CHC2HSCHC2NHCHSHCH2C5HC3FeC2FeCH3C2H4FeNCSCH4FeC4S2HCHC2FeSH2CH2SC3H2FeCH3NHSFeSHCFeCSFeSCHC2H3CHFeH2SHSCHCH2CHCH4CH2CHCHCSHNC4SHC3SCHCH2FeHCH2C2HSH3C4SH2CHCSC2HNH2SH2CH2SCH2CH2C2H2C2H2Fe2H3C2SC2H5FeCHS2Fe2S2H3C2SHC3HCHFeC3HCHCSHCHCHCH2CH6C4SNCHC3H2CHSHFeH3CHCHCNC2H2C3HC2HSHCH2SH2NFeHCH2SHCSHFeHCFeSCHC2SHC3H2CH5SHC2H4C2FeH3SH4CHSHC5H2NCH2SHFeHC2H3C3H2CH2CHCHC2HC6HSNH2C3H2FeCHSH2SCH4S2CHCH2CHCHCHSCNCHFeC2FeHC2HC2H2SCH2CH2SCSNH2C3H2CHCSC2SHS2NC2H2C5HCHFeCH4CHFeH
_chemical_formula_sum              "S64 C240 H288 N16 Fe32"
_cell_length_a       15.7417
_cell_length_b       13.4688
_cell_length_c       40.0581
_cell_angle_alpha    86.2785
_cell_angle_beta     90.359
_cell_angle_gamma    85.6422

_space_group_name_H-M_alt    "P 1"
_space_group_IT_number       1

loop_
  _space_group_symop_operation_xyz
  'x, y, z'

loop_
  _atom_site_type_symbol
  _atom_site_label
  _atom_site_symmetry_multiplicity
  _atom_site_fract_x
  _atom_site_fract_y
  _atom_site_fract_z
  _atom_site_occupancy
  S   S1        1.0  0.25421  0.70289  0.42980  1.0000
  S   S2        1.0  0.34924  0.93507  0.29535  1.0000
  C   C1        1.0  0.54975  0.94500  0.47483  1.0000
  H   H1        1.0  0.26175  0.56847  0.31133  1.0000
  H   H2        1.0  0.56790  0.72472  0.35695  1.0000
  H   H3        1.0  0.17832  0.01440  0.32181  1.0000
  C   C2        1.0  0.56294  0.63967  0.27311  1.0000
  C   C3        1.0  0.27977  0.76862  0.39262  1.0000
  C   C4        1.0  0.43321  0.83940  0.47258  1.0000
  C   C5        1.0  0.55387  0.81436  0.43466  1.0000
  S   S3        1.0  0.57621  0.01068  0.29383  1.0000
  C   C6        1.0  0.61475  0.65297  0.42031  1.0000
  C   C7        1.0  0.47409  0.78792  0.44735  1.0000
  C   C8        1.0  0.31405  0.76953  0.33370  1.0000
  H   H4        1.0  0.35520  0.53705  0.40911  1.0000
  H   H5        1.0  0.53550  0.59061  0.29201  1.0000
  C   C9        1.0  0.29292  0.71774  0.36356  1.0000
  C   C10       1.0  0.32502  0.87157  0.33316  1.0000
  H   H6        1.0  0.54278  0.87995  0.24249  1.0000
  H   H7        1.0  0.51717  0.84042  0.36956  1.0000
  H   H8        1.0  0.65585  0.64806  0.44327  1.0000
  N   N1        1.0  0.59531  0.75826  0.40781  1.0000
  H   H9        1.0  0.44251  0.72686  0.43785  1.0000
  H   H10       1.0  0.55646  0.61477  0.42698  1.0000
  H   H11       1.0  0.32202  0.00130  0.36200  1.0000
  H   H12       1.0  0.28439  0.63884  0.36390  1.0000
  H   H13       1.0  0.47824  0.72346  0.38372  1.0000
  C   C11       1.0  0.62786  0.60274  0.25277  1.0000
  H   H14       1.0  0.40257  0.00769  0.42205  1.0000
  H   H15       1.0  0.27999  0.90888  0.41475  1.0000
  H   H16       1.0  0.32206  0.73043  0.31105  1.0000
  H   H17       1.0  0.35928  0.59021  0.24761  1.0000
  C   C12       1.0  0.53285  0.73964  0.26890  1.0000
  C   C13       1.0  0.53719  0.76178  0.37831  1.0000
  H   H18       1.0  0.48191  0.76848  0.28457  1.0000
  H   H19       1.0  0.65214  0.91911  0.44178  1.0000
  C   C14       1.0  0.59099  0.89443  0.44935  1.0000
  C   C15       1.0  0.31440  0.92213  0.36248  1.0000
  C   C16       1.0  0.29008  0.87070  0.39210  1.0000
  C   C17       1.0  0.56788  0.80297  0.24450  1.0000
  H   H20       1.0  0.33475  0.77147  0.24152  1.0000
  H   H21       1.0  0.65178  0.52497  0.25608  1.0000
  H   H22       1.0  0.64907  0.60825  0.40150  1.0000
  C   C18       1.0  0.29827  0.89183  0.69988  1.0000
  C   C19       1.0  0.49679  0.82406  0.61017  1.0000
  S   S4        1.0  0.19761  0.89281  0.49625  1.0000
  H   H23       1.0  0.57926  0.00582  0.48568  1.0000
  H   H24       1.0  0.26280  0.71498  0.66329  1.0000
  C   C20       1.0  0.45790  0.84282  0.57887  1.0000
  C   C21       1.0  0.44646  0.92466  0.70202  1.0000
  C   C22       1.0  0.35977  0.71749  0.59295  1.0000
  C   C23       1.0  0.27527  0.63877  0.65445  1.0000
  C   C24       1.0  0.46855  0.75102  0.63286  1.0000
  H   H25       1.0  0.50920  0.91001  0.71342  1.0000
  C   C25       1.0  0.41252  0.60634  0.68097  1.0000
  S   S5        1.0  0.62647  0.52919  0.62865  1.0000
  C   C26       1.0  0.39869  0.69541  0.62491  1.0000
  H   H26       1.0  0.50368  0.73816  0.65616  1.0000
  H   H27       1.0  0.38585  0.54999  0.69858  1.0000
  N   N2        1.0  0.36736  0.61662  0.64811  1.0000
  C   C27       1.0  0.28401  0.96574  0.67395  1.0000
  H   H28       1.0  0.23537  0.63454  0.63166  1.0000
  H   H29       1.0  0.21968  0.97913  0.66471  1.0000
  C   C28       1.0  0.38895  0.79033  0.57037  1.0000
  H   H30       1.0  0.24577  0.85143  0.70948  1.0000
  H   H31       1.0  0.30674  0.67773  0.58505  1.0000
  H   H32       1.0  0.48128  0.58183  0.67840  1.0000
  H   H33       1.0  0.25116  0.58421  0.67355  1.0000
  H   H34       1.0  0.43814  0.95948  0.50528  1.0000
  H   H35       1.0  0.40708  0.67711  0.69372  1.0000
  C   C29       1.0  0.37923  0.87148  0.71394  1.0000
  H   H36       1.0  0.35803  0.80526  0.54614  1.0000
  H   H37       1.0  0.55045  0.86505  0.61663  1.0000
  H   H38       1.0  0.48168  0.89834  0.56130  1.0000
  H   H39       1.0  0.64428  0.63957  0.68601  1.0000
  C   C30       1.0  0.43260  0.99960  0.67636  1.0000
  H   H40       1.0  0.63664  0.82520  0.56719  1.0000
  C   C31       1.0  0.47068  0.91828  0.48618  1.0000
  H   H41       1.0  0.34357  0.51949  0.60879  1.0000
  C   C32       1.0  0.37906  0.51935  0.63281  1.0000
  H   H42       1.0  0.37196  0.81767  0.48137  1.0000
  H   H43       1.0  0.41755  0.66609  0.83109  1.0000
  C   C33       1.0  0.21671  0.77446  0.79260  1.0000
  H   H44       1.0  0.48005  0.70209  0.95354  1.0000
  C   C34       1.0  0.65268  0.82523  0.93174  1.0000
  H   H45       1.0  0.32033  0.88155  0.85395  1.0000
  C   C35       1.0  0.40965  0.58916  0.82654  1.0000
  S   S6        1.0  0.36224  0.56114  0.94233  1.0000
  C   C36       1.0  0.26405  0.84242  0.80811  1.0000
  C   C37       1.0  0.28312  0.82891  0.84212  1.0000
  H   H46       1.0  0.64129  0.83588  0.90424  1.0000
  H   H47       1.0  0.50522  0.74600  0.91154  1.0000
  H   H48       1.0  0.55730  0.55179  0.96367  1.0000
  C   C38       1.0  0.18450  0.69202  0.81099  1.0000
  S   S7        1.0  0.58473  0.73766  0.84006  1.0000
  Fe  Fe1       1.0  0.22671  0.59867  0.95595  1.0000
  H   H49       1.0  0.22816  0.94892  0.94624  1.0000
  N   N3        1.0  0.61025  0.73818  0.94660  1.0000
  C   C39       1.0  0.25432  0.74767  0.86083  1.0000
  S   S8        1.0  0.46742  0.63272  0.76370  1.0000
  C   C40       1.0  0.38142  0.52469  0.85220  1.0000
  H   H50       1.0  0.36795  0.55265  0.87615  1.0000
  C   C41       1.0  0.24003  0.97373  0.91972  1.0000
  C   C42       1.0  0.20561  0.67996  0.84569  1.0000
  H   H51       1.0  0.20433  0.92574  0.90390  1.0000
  H   H52       1.0  0.62820  0.89576  0.94251  1.0000
  H   H53       1.0  0.18600  0.61855  0.86173  1.0000
  H   H54       1.0  0.28496  0.90695  0.79375  1.0000
  S   S9        1.0  0.46781  0.96325  0.88441  1.0000
  Fe  Fe2       1.0  0.53406  0.75152  0.78743  1.0000
  C   C43       1.0  0.42627  0.55445  0.79505  1.0000
  H   H55       1.0  0.49173  0.83049  0.94427  1.0000
  C   C44       1.0  0.51797  0.75444  0.93854  1.0000
  H   H56       1.0  0.62588  0.54414  0.80099  1.0000
  H   H57       1.0  0.26986  0.73690  0.88728  1.0000
  C   C45       1.0  0.19556  0.55656  0.77455  1.0000
  H   H58       1.0  0.20530  0.78766  0.76612  1.0000
  S   S10       1.0  0.47605  0.90643  0.79136  1.0000
  Fe  Fe3       1.0  0.53965  0.89957  0.84146  1.0000
  C   C46       1.0  0.60997  0.55136  0.94649  1.0000
  H   H59       1.0  0.23647  0.60127  0.75782  1.0000
  H   H60       1.0  0.38961  0.81527  0.73443  1.0000
  Fe  Fe4       1.0  0.60111  0.95381  0.77220  1.0000
  H   H61       1.0  0.30898  0.95771  0.91498  1.0000
  C   C47       1.0  0.64419  0.64141  0.93456  1.0000
  S   S11       1.0  0.65449  0.79827  0.76388  1.0000
  H   H62       1.0  0.37210  0.86492  0.18914  1.0000
  H   H63       1.0  0.37258  0.68354  0.01137  1.0000
  H   H64       1.0  0.30257  0.88062  0.09622  1.0000
  H   H65       1.0  0.24995  0.61009  0.09981  1.0000
  C   C48       1.0  0.17449  0.85138  0.07995  1.0000
  H   H66       1.0  0.56124  0.93778  0.19100  1.0000
  C   C49       1.0  0.54081  0.74780  0.07616  1.0000
  H   H67       1.0  0.58887  0.76596  0.09373  1.0000
  H   H68       1.0  0.45918  0.59461  0.14641  1.0000
  H   H69       1.0  0.17724  0.69026  0.14906  1.0000
  H   H70       1.0  0.59835  0.66984  0.99663  1.0000
  C   C50       1.0  0.63468  0.76820  0.22352  1.0000
  H   H71       1.0  0.63877  0.95023  0.16007  1.0000
  C   C51       1.0  0.47920  0.82146  0.06371  1.0000
  C   C52       1.0  0.43059  0.62917  0.16764  1.0000
  H   H72       1.0  0.31168  0.71505  0.09755  1.0000
  S   S12       1.0  0.24321  0.53513  0.00879  1.0000
  C   C53       1.0  0.61001  0.89397  0.17723  1.0000
  H   H73       1.0  0.57740  0.84260  0.16167  1.0000
  C   C54       1.0  0.54018  0.65012  0.06603  1.0000
  C   C55       1.0  0.41855  0.70055  0.02991  1.0000
  N   N4        1.0  0.17477  0.75182  0.09799  1.0000
  H   H74       1.0  0.43503  0.77475  0.14212  1.0000
  C   C56       1.0  0.17699  0.76358  0.13450  1.0000
  H   H75       1.0  0.58354  0.80130  0.99386  1.0000
  S   S13       1.0  0.47981  0.94347  0.07646  1.0000
  H   H76       1.0  0.37150  0.85501  0.03030  1.0000
  C   C57       1.0  0.41803  0.79774  0.04060  1.0000
  H   H77       1.0  0.25476  0.68416  0.06116  1.0000
  H   H78       1.0  0.58779  0.59337  0.07588  1.0000
  C   C58       1.0  0.37454  0.62736  0.22388  1.0000
  C   C59       1.0  0.40761  0.57262  0.19705  1.0000
  C   C60       1.0  0.47916  0.62640  0.04283  1.0000
  C   C61       1.0  0.38220  0.78428  0.19132  1.0000
  C   C62       1.0  0.41740  0.73335  0.16489  1.0000
  H   H79       1.0  0.23472  0.79895  0.14231  1.0000
  C   C63       1.0  0.25110  0.68800  0.08879  1.0000
  C   C64       1.0  0.24667  0.90804  0.08166  1.0000
  C   C65       1.0  0.36092  0.73146  0.22075  1.0000
  Fe  Fe5       1.0  0.60927  0.99536  0.06519  1.0000
  C   C66       1.0  0.62109  0.73733  0.98345  1.0000
  C   C67       1.0  0.24917  0.00066  0.06400  1.0000
  Fe  Fe6       1.0  0.60076  0.11580  0.33313  1.0000
  C   C68       1.0  0.45168  0.14798  0.43089  1.0000
  H   H80       1.0  0.30895  0.24965  0.31564  1.0000
  H   H81       1.0  0.34841  0.51104  0.47185  1.0000
  H   H82       1.0  0.21557  0.25126  0.42636  1.0000
  C   C69       1.0  0.30232  0.12495  0.42431  1.0000
  C   C70       1.0  0.29585  0.41043  0.31386  1.0000
  H   H83       1.0  0.22319  0.51102  0.44071  1.0000
  H   H84       1.0  0.48471  0.29466  0.43861  1.0000
  H   H85       1.0  0.43690  0.43881  0.40651  1.0000
  H   H86       1.0  0.49766  0.46243  0.24544  1.0000
  Fe  Fe7       1.0  0.46857  0.27206  0.30730  1.0000
  N   N5        1.0  0.32868  0.40018  0.43645  1.0000
  C   C71       1.0  0.28237  0.22640  0.42786  1.0000
  S   S14       1.0  0.40567  0.42319  0.31473  1.0000
  C   C72       1.0  0.64403  0.35346  0.40848  1.0000
  H   H87       1.0  0.35390  0.42553  0.24648  1.0000
  H   H88       1.0  0.51753  0.11808  0.43108  1.0000
  H   H89       1.0  0.43719  0.42298  0.46802  1.0000
  H   H90       1.0  0.21887  0.21790  0.24278  1.0000
  Fe  Fe8       1.0  0.56865  0.14716  0.25875  1.0000
  C   C73       1.0  0.26541  0.31554  0.31345  1.0000
  C   C74       1.0  0.34705  0.29179  0.43351  1.0000
  C   C75       1.0  0.43228  0.24928  0.43494  1.0000
  C   C76       1.0  0.38686  0.08586  0.42562  1.0000
  S   S15       1.0  0.60782  0.24963  0.29694  1.0000
  S   S16       1.0  0.46318  0.14469  0.34576  1.0000
  H   H91       1.0  0.18417  0.04193  0.24327  1.0000
  C   C77       1.0  0.17827  0.30558  0.30905  1.0000
  H   H92       1.0  0.25134  0.07706  0.42047  1.0000
  C   C78       1.0  0.36642  0.43103  0.46788  1.0000
  C   C79       1.0  0.36672  0.45511  0.40771  1.0000
  Fe  Fe9       1.0  0.43867  0.05323  0.30250  1.0000
  S   S17       1.0  0.42973  0.18383  0.26527  1.0000
  H   H93       1.0  0.20371  0.39020  0.45737  1.0000
  H   H94       1.0  0.20455  0.41879  0.41243  1.0000
  C   C80       1.0  0.23598  0.43076  0.43666  1.0000
  H   H95       1.0  0.62441  0.42699  0.39737  1.0000
  H   H96       1.0  0.33932  0.43514  0.38358  1.0000
  S   S18       1.0  0.62744  0.43609  0.46826  1.0000
  C   C81       1.0  0.65315  0.33750  0.44311  1.0000
  C   C82       1.0  0.23860  0.49504  0.31145  1.0000
  C   C83       1.0  0.65615  0.27325  0.38817  1.0000
  H   H97       1.0  0.64697  0.28603  0.36158  1.0000
  H   H98       1.0  0.30761  0.21325  0.67096  1.0000
  Fe  Fe10      1.0  0.60013  0.19943  0.56926  1.0000
  C   C84       1.0  0.38261  0.30580  0.72050  1.0000
  H   H99       1.0  0.34030  0.26500  0.63132  1.0000
  H   H100      1.0  0.41760  0.20065  0.65947  1.0000
  H   H101      1.0  0.38904  0.15262  0.58787  1.0000
  N   N6        1.0  0.33670  0.10477  0.63520  1.0000
  H   H102      1.0  0.46669  0.39610  0.69142  1.0000
  S   S19       1.0  0.52398  0.28507  0.60677  1.0000
  Fe  Fe11      1.0  0.60511  0.41023  0.59311  1.0000
  S   S20       1.0  0.30158  0.36852  0.56702  1.0000
  H   H103      1.0  0.38349  0.02056  0.59468  1.0000
  C   C85       1.0  0.24041  0.30672  0.53948  1.0000
  Fe  Fe12      1.0  0.17176  0.31304  0.72432  1.0000
  C   C86       1.0  0.39608  0.08924  0.60713  1.0000
  S   S21       1.0  0.51247  0.24830  0.52609  1.0000
  Fe  Fe13      1.0  0.44306  0.34211  0.56262  1.0000
  S   S22       1.0  0.62393  0.03321  0.57948  1.0000
  C   C87       1.0  0.24931  0.11518  0.62074  1.0000
  H   H104      1.0  0.20071  0.13490  0.63975  1.0000
  C   C88       1.0  0.35154  0.19996  0.64982  1.0000
  C   C89       1.0  0.21902  0.16695  0.50589  1.0000
  H   H105      1.0  0.44740  0.49992  0.62759  1.0000
  H   H106      1.0  0.24264  0.09715  0.49631  1.0000
  H   H107      1.0  0.35593  0.45785  0.64937  1.0000
  C   C90       1.0  0.53222  0.25866  0.71073  1.0000
  H   H108      1.0  0.59211  0.27524  0.69929  1.0000
  Fe  Fe14      1.0  0.59654  0.37475  0.51941  1.0000
  H   H109      1.0  0.23404  0.04542  0.60952  1.0000
  H   H110      1.0  0.33352  0.18304  0.53397  1.0000
  S   S23       1.0  0.29153  0.38784  0.71285  1.0000
  H   H111      1.0  0.46394  0.08251  0.61513  1.0000
  S   S24       1.0  0.51790  0.47394  0.55146  1.0000
  C   C91       1.0  0.46095  0.32751  0.70637  1.0000
  H   H112      1.0  0.24154  0.17609  0.60052  1.0000
  C   C92       1.0  0.27072  0.21593  0.52714  1.0000
  H   H113      1.0  0.48600  0.04191  0.66915  1.0000
  H   H114      1.0  0.34445  0.38609  0.48996  1.0000
  C   C93       1.0  0.35080  0.02222  0.66137  1.0000
  H   H115      1.0  0.65919  0.03290  0.65598  1.0000
  C   C94       1.0  0.15988  0.34990  0.52967  1.0000
  H   H116      1.0  0.44220  0.08102  0.75931  1.0000
  H   H117      1.0  0.33466  0.13619  0.92419  1.0000
  H   H118      1.0  0.55307  0.42184  0.83163  1.0000
  H   H119      1.0  0.20432  0.05614  0.85975  1.0000
  C   C95       1.0  0.58811  0.09991  0.88931  1.0000
  H   H120      1.0  0.27093  0.11277  0.95971  1.0000
  H   H121      1.0  0.63502  0.36856  0.85959  1.0000
  C   C96       1.0  0.63406  0.15471  0.94252  1.0000
  H   H122      1.0  0.58589  0.42123  0.76682  1.0000
  C   C97       1.0  0.64325  0.15291  0.90785  1.0000
  H   H123      1.0  0.37782  0.31351  0.81031  1.0000
  C   C98       1.0  0.60926  0.36684  0.83377  1.0000
  S   S25       1.0  0.34087  0.34268  0.87945  1.0000
  H   H124      1.0  0.58480  0.29216  0.83150  1.0000
  N   N7        1.0  0.21287  0.08064  0.91274  1.0000
  C   C99       1.0  0.37083  0.42500  0.84670  1.0000
  C   C100      1.0  0.52436  0.04843  0.90540  1.0000
  C   C101      1.0  0.26740  0.14004  0.93291  1.0000
  C   C102      1.0  0.64197  0.36952  0.77478  1.0000
  S   S26       1.0  0.17729  0.46182  0.93666  1.0000
  H   H125      1.0  0.24405  0.22030  0.93083  1.0000
  C   C103      1.0  0.51075  0.05769  0.93958  1.0000
  C   C104      1.0  0.38604  0.39056  0.81490  1.0000
  C   C105      1.0  0.56578  0.11051  0.95813  1.0000
  S   S27       1.0  0.33953  0.33660  0.97767  1.0000
  C   C106      1.0  0.22908  0.10873  0.87693  1.0000
  H   H126      1.0  0.29858  0.10786  0.87150  1.0000
  C   C107      1.0  0.44827  0.14891  0.74454  1.0000
  H   H127      1.0  0.20080  0.18538  0.86960  1.0000
  H   H128      1.0  0.61709  0.39084  0.94690  1.0000
  Fe  Fe15      1.0  0.31445  0.41731  0.92726  1.0000
  H   H129      1.0  0.31685  0.19975  0.75114  1.0000
  C   C108      1.0  0.41337  0.45571  0.78908  1.0000
  H   H130      1.0  0.42695  0.42919  0.76479  1.0000
  H   H131      1.0  0.59549  0.09823  0.86266  1.0000
  C   C109      1.0  0.64363  0.45861  0.93695  1.0000
  C   C110      1.0  0.37663  0.21659  0.73973  1.0000
  H   H132      1.0  0.23941  0.50776  0.79148  1.0000
  S   S28       1.0  0.61532  0.08202  0.73424  1.0000
  H   H133      1.0  0.16177  0.50737  0.75859  1.0000
  H   H134      1.0  0.46065  0.01970  0.95215  1.0000
  H   H135      1.0  0.62108  0.29278  0.77381  1.0000
  C   C111      1.0  0.52598  0.16887  0.72983  1.0000
  C   C112      1.0  0.16910  0.41555  0.11811  1.0000
  C   C113      1.0  0.17911  0.04114  0.04508  1.0000
  C   C114      1.0  0.31673  0.14699  0.13151  1.0000
  S   S29       1.0  0.19266  0.47485  0.15406  1.0000
  H   H136      1.0  0.59329  0.25587  0.14193  1.0000
  H   H137      1.0  0.18521  0.19076  0.13321  1.0000
  C   C115      1.0  0.23364  0.13526  0.18325  1.0000
  H   H138      1.0  0.30059  0.39842  0.10323  1.0000
  C   C116      1.0  0.63330  0.29167  0.15883  1.0000
  S   S30       1.0  0.64309  0.15435  0.06066  1.0000
  C   C117      1.0  0.23930  0.16001  0.14826  1.0000
  C   C118      1.0  0.42884  0.41609  0.16801  1.0000
  H   H139      1.0  0.55667  0.11474  0.98475  1.0000
  N   N8        1.0  0.42128  0.46223  0.20071  1.0000
  H   H140      1.0  0.32000  0.16817  0.10498  1.0000
  H   H141      1.0  0.44397  0.05540  0.19658  1.0000
  S   S31       1.0  0.60170  0.14163  0.20489  1.0000
  H   H142      1.0  0.45023  0.09909  0.13567  1.0000
  H   H143      1.0  0.31102  0.07699  0.22662  1.0000
  C   C119      1.0  0.23538  0.38680  0.09695  1.0000
  H   H144      1.0  0.51450  0.35226  0.22297  1.0000
  H   H145      1.0  0.17888  0.30619  0.20972  1.0000
  S   S32       1.0  0.48317  0.50582  0.02852  1.0000
  C   C120      1.0  0.30981  0.09623  0.20000  1.0000
  H   H146      1.0  0.34851  0.33659  0.21606  1.0000
  H   H147      1.0  0.26864  0.32821  0.04979  1.0000
  C   C121      1.0  0.21732  0.34680  0.06666  1.0000
  H   H148      1.0  0.30635  0.04065  0.06468  1.0000
  H   H149      1.0  0.43267  0.33299  0.17097  1.0000
  C   C122      1.0  0.39023  0.10854  0.14878  1.0000
  C   C123      1.0  0.34994  0.41787  0.21913  1.0000
  H   H150      1.0  0.18156  0.11291  0.03151  1.0000
  H   H151      1.0  0.37327  0.44078  0.15151  1.0000
  C   C124      1.0  0.38661  0.08336  0.18297  1.0000
  C   C125      1.0  0.50107  0.43470  0.21989  1.0000
  H   H152      1.0  0.28737  0.45424  0.21059  1.0000
  H   H153      1.0  0.55657  0.46600  0.20700  1.0000
  Fe  Fe16      1.0  0.37462  0.48514  0.99367  1.0000
  Fe  Fe17      1.0  0.20578  0.39379  0.98818  1.0000
  H   H154      1.0  0.48804  0.43400  0.15469  1.0000
  H   H155      1.0  0.65716  0.42537  0.05340  1.0000
  H   H156      1.0  0.65501  0.41400  0.12331  1.0000
  C   C126      1.0  0.65040  0.24884  0.19113  1.0000
  C   C127      1.0  0.16558  0.23629  0.22454  1.0000
  S   S33       1.0  0.09673  0.57921  0.23214  1.0000
  C   C128      1.0  0.67651  0.79745  0.39624  1.0000
  C   C129      1.0  0.05974  0.95478  0.31066  1.0000
  H   H157      1.0  0.70594  0.75425  0.37596  1.0000
  H   H158      1.0  0.93334  0.90978  0.30397  1.0000
  H   H159      1.0  0.72486  0.79307  0.41681  1.0000
  H   H160      1.0  0.66634  0.87615  0.38609  1.0000
  H   H161      1.0  0.08860  0.89894  0.29502  1.0000
  Fe  Fe18      1.0  0.96967  0.81606  0.47720  1.0000
  C   C130      1.0  0.97218  0.96097  0.31582  1.0000
  H   H162      1.0  0.10715  0.55079  0.30527  1.0000
  S   S34       1.0  0.83283  0.78095  0.47491  1.0000
  S   S35       1.0  0.04804  0.88858  0.43724  1.0000
  Fe  Fe19      1.0  0.08254  0.98823  0.47714  1.0000
  Fe  Fe20      1.0  0.15641  0.78708  0.45957  1.0000
  S   S36       1.0  0.99523  0.85110  0.23323  1.0000
  S   S37       1.0  0.88764  0.60209  0.23862  1.0000
  H   H163      1.0  0.67449  0.95354  0.23493  1.0000
  H   H164      1.0  0.77108  0.87349  0.23484  1.0000
  H   H165      1.0  0.80023  0.88043  0.72300  1.0000
  C   C131      1.0  0.69207  0.57730  0.68778  1.0000
  C   C132      1.0  0.09557  0.98318  0.58134  1.0000
  S   S38       1.0  0.07479  0.70354  0.49572  1.0000
  H   H166      1.0  0.82205  0.99351  0.48558  1.0000
  C   C133      1.0  0.82095  0.54562  0.58274  1.0000
  C   C134      1.0  0.05006  0.99169  0.64837  1.0000
  C   C135      1.0  0.93398  0.73486  0.65889  1.0000
  H   H167      1.0  0.96191  0.62587  0.69993  1.0000
  C   C136      1.0  0.71953  0.80771  0.52545  1.0000
  H   H168      1.0  0.03259  0.99515  0.67437  1.0000
  Fe  Fe21      1.0  0.10676  0.81820  0.53066  1.0000
  C   C137      1.0  0.88194  0.75152  0.71488  1.0000
  C   C138      1.0  0.69910  0.96272  0.66309  1.0000
  C   C139      1.0  0.83797  0.84252  0.70458  1.0000
  H   H169      1.0  0.71313  0.72836  0.52516  1.0000
  C   C140      1.0  0.08350  0.90115  0.63644  1.0000
  H   H170      1.0  0.02122  0.54928  0.55193  1.0000
  C   C141      1.0  0.74949  0.56660  0.71482  1.0000
  S   S39       1.0  0.99495  0.92407  0.51499  1.0000
  H   H171      1.0  0.11773  0.98229  0.55595  1.0000
  C   C142      1.0  0.77340  0.85397  0.50277  1.0000
  H   H172      1.0  0.78840  0.58975  0.56130  1.0000
  C   C143      1.0  0.89024  0.82590  0.64832  1.0000
  H   H173      1.0  0.89695  0.85043  0.62232  1.0000
  C   C144      1.0  0.67542  0.86317  0.54913  1.0000
  H   H174      1.0  0.97214  0.69359  0.64125  1.0000
  H   H175      1.0  0.78815  0.96211  0.60727  1.0000
  C   C145      1.0  0.10383  0.89662  0.60260  1.0000
  H   H176      1.0  0.09135  0.83461  0.65311  1.0000
  H   H177      1.0  0.68091  0.93831  0.68892  1.0000
  H   H178      1.0  0.68115  0.90490  0.64629  1.0000
  H   H179      1.0  0.82466  0.59682  0.60336  1.0000
  H   H180      1.0  0.97143  0.63373  0.58008  1.0000
  H   H181      1.0  0.92711  0.62702  0.53944  1.0000
  C   C146      1.0  0.78070  0.95713  0.50319  1.0000
  C   C147      1.0  0.92949  0.69750  0.69202  1.0000
  C   C148      1.0  0.95853  0.58083  0.56075  1.0000
  C   C149      1.0  0.84088  0.88284  0.67100  1.0000
  S   S40       1.0  0.13240  0.78304  0.58553  1.0000
  N   N9        1.0  0.79117  0.97773  0.66059  1.0000
  C   C150      1.0  0.68128  0.96642  0.54935  1.0000
  H   H182      1.0  0.83909  0.53918  0.51021  1.0000
  C   C151      1.0  0.73390  0.01361  0.52621  1.0000
  C   C152      1.0  0.80763  0.01465  0.62565  1.0000
  C   C153      1.0  0.08919  0.55402  0.81742  1.0000
  H   H183      1.0  0.03604  0.91057  0.95880  1.0000
  H   H184      1.0  0.83175  0.88794  0.78401  1.0000
  C   C154      1.0  0.97886  0.80778  0.84422  1.0000
  H   H185      1.0  0.86677  0.65253  0.95183  1.0000
  S   S41       1.0  0.82839  0.72589  0.83453  1.0000
  H   H186      1.0  0.02600  0.62121  0.76073  1.0000
  Fe  Fe22      1.0  0.70152  0.79505  0.81675  1.0000
  H   H187      1.0  0.98957  0.75271  0.86502  1.0000
  H   H188      1.0  0.09998  0.70818  0.74782  1.0000
  H   H189      1.0  0.73979  0.69715  0.89968  1.0000
  C   C155      1.0  0.95160  0.95205  0.79090  1.0000
  H   H190      1.0  0.09722  0.87295  0.85179  1.0000
  C   C156      1.0  0.02644  0.94821  0.81010  1.0000
  H   H191      1.0  0.72251  0.81814  0.93691  1.0000
  C   C157      1.0  0.90387  0.81197  0.82522  1.0000
  N   N10       1.0  0.13556  0.62006  0.79385  1.0000
  C   C158      1.0  0.71114  0.63297  0.91100  1.0000
  C   C159      1.0  0.07108  0.67285  0.77034  1.0000
  H   H192      1.0  0.04710  0.59872  0.83404  1.0000
  H   H193      1.0  0.03229  0.73171  0.78286  1.0000
  C   C160      1.0  0.02123  0.84416  0.97351  1.0000
  C   C161      1.0  0.88987  0.88446  0.79867  1.0000
  C   C162      1.0  0.03976  0.87603  0.83673  1.0000
  H   H194      1.0  0.87727  0.72142  0.74057  1.0000
  C   C163      1.0  0.07046  0.75443  0.97027  1.0000
  C   C164      1.0  0.87225  0.57624  0.96252  1.0000
  H   H195      1.0  0.96602  0.52743  0.92717  1.0000
  S   S42       1.0  0.15879  0.74882  0.94407  1.0000
  H   H196      1.0  0.94091  0.00723  0.77026  1.0000
  C   C165      1.0  0.74460  0.53964  0.90169  1.0000
  H   H197      1.0  0.79745  0.53524  0.88446  1.0000
  H   H198      1.0  0.74538  0.62021  0.73377  1.0000
  S   S43       1.0  0.66197  0.95570  0.82275  1.0000
  H   H199      1.0  0.73403  0.52053  0.78920  1.0000
  H   H200      1.0  0.70578  0.52074  0.83285  1.0000
  N   N11       1.0  0.67520  0.83863  0.19970  1.0000
  Fe  Fe23      1.0  0.99059  0.69413  0.21804  1.0000
  H   H201      1.0  0.76936  0.84518  0.16081  1.0000
  C   C166      1.0  0.98594  0.67279  0.01251  1.0000
  H   H202      1.0  0.09485  0.68589  0.06323  1.0000
  H   H203      1.0  0.79379  0.75083  0.19278  1.0000
  S   S44       1.0  0.67163  0.95503  0.01743  1.0000
  H   H204      1.0  0.96766  0.85141  0.16180  1.0000
  C   C167      1.0  0.95343  0.84772  0.99615  1.0000
  S   S45       1.0  0.98043  0.64787  0.16551  1.0000
  H   H205      1.0  0.74700  0.96823  0.20164  1.0000
  Fe  Fe24      1.0  0.88522  0.54715  0.18691  1.0000
  H   H206      1.0  0.97304  0.60608  0.02759  1.0000
  C   C168      1.0  0.82645  0.55015  0.99115  1.0000
  Fe  Fe25      1.0  0.78702  0.91246  0.04906  1.0000
  S   S46       1.0  0.72177  0.94068  0.09711  1.0000
  C   C169      1.0  0.94630  0.94019  0.20411  1.0000
  H   H207      1.0  0.68889  0.74152  0.99083  1.0000
  C   C170      1.0  0.73986  0.78988  0.17802  1.0000
  C   C171      1.0  0.71876  0.91120  0.21870  1.0000
  S   S47       1.0  0.76765  0.53489  0.15638  1.0000
  H   H208      1.0  0.10172  0.62213  0.10364  1.0000
  C   C172      1.0  0.05085  0.66845  0.98904  1.0000
  C   C173      1.0  0.94077  0.92079  0.17036  1.0000
  C   C174      1.0  0.10331  0.89581  0.06088  1.0000
  H   H209      1.0  0.91511  0.91676  0.99852  1.0000
  H   H210      1.0  0.71173  0.63150  0.21300  1.0000
  C   C175      1.0  0.90188  0.99271  0.14723  1.0000
  H   H211      1.0  0.12045  0.81096  0.14232  1.0000
  H   H212      1.0  0.79070  0.57228  0.05876  1.0000
  H   H213      1.0  0.71126  0.73609  0.16214  1.0000
  H   H214      1.0  0.04474  0.85990  0.05865  1.0000
  H   H215      1.0  0.03853  0.73734  0.09819  1.0000
  S   S48       1.0  0.85708  0.76358  0.04597  1.0000
  H   H216      1.0  0.13015  0.99852  0.20789  1.0000
  C   C176      1.0  0.93702  0.76202  0.01604  1.0000
  C   C177      1.0  0.09900  0.69752  0.09038  1.0000
  H   H217      1.0  0.89855  0.97769  0.12107  1.0000
  H   H218      1.0  0.78664  0.60799  0.00194  1.0000
  H   H219      1.0  0.08466  0.59768  0.98529  1.0000
  H   H220      1.0  0.67576  0.52511  0.02378  1.0000
  C   C178      1.0  0.10609  0.98929  0.04372  1.0000
  C   C179      1.0  0.66258  0.66535  0.22806  1.0000
  Fe  Fe26      1.0  0.07609  0.52299  0.18189  1.0000
  H   H221      1.0  0.91767  0.04776  0.24083  1.0000
  H   H222      1.0  0.81907  0.42176  0.46762  1.0000
  H   H223      1.0  0.96024  0.08595  0.41817  1.0000
  S   S49       1.0  0.01552  0.37893  0.29388  1.0000
  H   H224      1.0  0.96802  0.30807  0.39845  1.0000
  H   H225      1.0  0.81889  0.18854  0.34772  1.0000
  H   H226      1.0  0.86237  0.07227  0.39682  1.0000
  H   H227      1.0  0.15570  0.23266  0.30662  1.0000
  C   C180      1.0  0.07355  0.09129  0.34632  1.0000
  H   H228      1.0  0.71028  0.08796  0.44784  1.0000
  S   S50       1.0  0.07541  0.15441  0.46755  1.0000
  H   H229      1.0  0.05376  0.21452  0.39949  1.0000
  C   C181      1.0  0.00133  0.25093  0.38329  1.0000
  C   C182      1.0  0.12137  0.39040  0.30548  1.0000
  C   C183      1.0  0.67970  0.17745  0.40226  1.0000
  C   C184      1.0  0.90835  0.12729  0.40283  1.0000
  C   C185      1.0  0.98406  0.10136  0.35146  1.0000
  H   H230      1.0  0.71662  0.26107  0.23772  1.0000
  H   H231      1.0  0.89406  0.26826  0.32926  1.0000
  N   N12       1.0  0.94268  0.17758  0.37238  1.0000
  C   C186      1.0  0.93468  0.03253  0.33609  1.0000
  H   H232      1.0  0.11670  0.13807  0.35766  1.0000
  H   H233      1.0  0.84234  0.29684  0.36776  1.0000
  S   S51       1.0  0.68911  0.07687  0.37667  1.0000
  H   H234      1.0  0.87470  0.18158  0.41892  1.0000
  Fe  Fe27      1.0  0.99307  0.48238  0.24822  1.0000
  H   H235      1.0  0.86665  0.03315  0.33982  1.0000
  C   C187      1.0  0.69223  0.16202  0.43686  1.0000
  C   C188      1.0  0.87157  0.23503  0.35348  1.0000
  H   H236      1.0  0.10725  0.25343  0.23944  1.0000
  H   H237      1.0  0.02940  0.29145  0.36146  1.0000
  H   H238      1.0  0.07445  0.07506  0.23694  1.0000
  C   C189      1.0  0.67746  0.24190  0.45740  1.0000
  C   C190      1.0  0.15124  0.48497  0.30762  1.0000
  C   C191      1.0  0.11021  0.01975  0.32586  1.0000
  H   H239      1.0  0.86164  0.24158  0.47864  1.0000
  H   H240      1.0  0.05104  0.13806  0.57579  1.0000
  C   C192      1.0  0.84752  0.39464  0.49153  1.0000
  H   H241      1.0  0.88123  0.06543  0.68345  1.0000
  H   H242      1.0  0.86582  0.35749  0.69372  1.0000
  C   C193      1.0  0.81723  0.41852  0.69234  1.0000
  H   H243      1.0  0.68433  0.22949  0.48426  1.0000
  C   C194      1.0  0.81152  0.05726  0.68271  1.0000
  H   H244      1.0  0.87580  0.02662  0.62185  1.0000
  C   C195      1.0  0.94744  0.45424  0.60514  1.0000
  C   C196      1.0  0.03586  0.07616  0.62616  1.0000
  H   H245      1.0  0.76161  0.37387  0.64667  1.0000
  C   C197      1.0  0.85942  0.46141  0.51616  1.0000
  C   C198      1.0  0.13871  0.21089  0.49582  1.0000
  C   C199      1.0  0.69639  0.50822  0.66309  1.0000
  C   C200      1.0  0.75824  0.42777  0.66559  1.0000
  C   C201      1.0  0.81311  0.48828  0.71696  1.0000
  C   C202      1.0  0.05922  0.07208  0.59277  1.0000
  H   H246      1.0  0.78996  0.04301  0.70881  1.0000
  S   S52       1.0  0.05668  0.37379  0.69490  1.0000
  N   N13       1.0  0.90592  0.50034  0.57384  1.0000
  H   H247      1.0  0.94680  0.29177  0.57653  1.0000
  H   H248      1.0  0.04935  0.33914  0.49868  1.0000
  C   C203      1.0  0.89563  0.42835  0.54790  1.0000
  C   C204      1.0  0.11006  0.30331  0.50722  1.0000
  C   C205      1.0  0.91868  0.32425  0.55338  1.0000
  H   H249      1.0  0.92475  0.17913  0.53319  1.0000
  H   H250      1.0  0.90898  0.39613  0.61728  1.0000
  Fe  Fe28      1.0  0.03154  0.21504  0.69004  1.0000
  C   C206      1.0  0.87066  0.29321  0.49775  1.0000
  H   H251      1.0  0.77130  0.08743  0.61881  1.0000
  S   S53       1.0  0.69111  0.31936  0.55984  1.0000
  H   H252      1.0  0.73982  0.09305  0.52646  1.0000
  H   H253      1.0  0.77964  0.13123  0.67405  1.0000
  S   S54       1.0  0.98649  0.18662  0.63924  1.0000
  C   C207      1.0  0.90592  0.25807  0.52862  1.0000
  H   H254      1.0  0.01234  0.41938  0.60032  1.0000
  H   H255      1.0  0.13687  0.42073  0.53879  1.0000
  H   H256      1.0  0.77836  0.48697  0.59117  1.0000
  H   H257      1.0  0.95477  0.50989  0.62409  1.0000
  S   S55       1.0  0.15418  0.15399  0.71464  1.0000
  S   S56       1.0  0.10407  0.03307  0.80203  1.0000
  C   C208      1.0  0.83239  0.36433  0.82391  1.0000
  H   H258      1.0  0.83946  0.44349  0.82402  1.0000
  C   C209      1.0  0.93862  0.40910  0.96326  1.0000
  H   H259      1.0  0.96095  0.14960  0.83448  1.0000
  H   H260      1.0  0.13592  0.15371  0.97016  1.0000
  C   C210      1.0  0.92862  0.50599  0.94871  1.0000
  H   H261      1.0  0.69470  0.18535  0.81151  1.0000
  C   C211      1.0  0.09253  0.13141  0.95163  1.0000
  H   H262      1.0  0.82445  0.07741  0.82348  1.0000
  C   C212      1.0  0.97159  0.07188  0.90736  1.0000
  H   H263      1.0  0.13356  0.50174  0.83311  1.0000
  S   S57       1.0  0.10397  0.31058  0.77334  1.0000
  C   C213      1.0  0.75266  0.22009  0.81673  1.0000
  N   N14       1.0  0.67445  0.38967  0.80837  1.0000
  C   C214      1.0  0.00614  0.13783  0.95980  1.0000
  H   H264      1.0  0.69521  0.18826  0.89561  1.0000
  Fe  Fe29      1.0  0.98615  0.35596  0.74258  1.0000
  C   C215      1.0  0.12115  0.09580  0.92070  1.0000
  C   C216      1.0  0.90333  0.19810  0.83001  1.0000
  Fe  Fe30      1.0  0.07723  0.15488  0.76169  1.0000
  H   H265      1.0  0.96600  0.33218  0.83549  1.0000
  C   C217      1.0  0.68602  0.49828  0.80796  1.0000
  C   C218      1.0  0.75351  0.32550  0.81625  1.0000
  H   H266      1.0  0.69187  0.37861  0.75547  1.0000
  C   C219      1.0  0.90608  0.30107  0.83049  1.0000
  C   C220      1.0  0.82658  0.15763  0.82354  1.0000
  H   H267      1.0  0.04763  0.50594  0.80401  1.0000
  H   H268      1.0  0.07489  0.03328  0.87576  1.0000
  S   S58       1.0  0.71290  0.20136  0.96689  1.0000
  C   C221      1.0  0.94563  0.10882  0.93764  1.0000
  H   H269      1.0  0.92479  0.04626  0.89058  1.0000
  H   H270      1.0  0.87876  0.11332  0.94421  1.0000
  C   C222      1.0  0.05793  0.06513  0.89900  1.0000
  H   H271      1.0  0.98409  0.35513  0.95297  1.0000
  H   H272      1.0  0.73959  0.38003  0.90877  1.0000
  S   S59       1.0  0.95205  0.20025  0.73587  1.0000
  C   C223      1.0  0.71201  0.45255  0.91514  1.0000
  S   S60       1.0  0.88764  0.48009  0.75018  1.0000
  N   N15       1.0  0.78802  0.42825  0.03770  1.0000
  H   H273      1.0  0.03322  0.42371  0.12581  1.0000
  H   H274      1.0  0.98632  0.16451  0.98370  1.0000
  C   C224      1.0  0.07859  0.18340  0.18071  1.0000
  C   C225      1.0  0.86914  0.08462  0.15782  1.0000
  C   C226      1.0  0.13556  0.06354  0.22338  1.0000
  H   H275      1.0  0.78449  0.27139  0.03208  1.0000
  H   H276      1.0  0.67490  0.40048  0.01045  1.0000
  C   C227      1.0  0.87551  0.10471  0.19150  1.0000
  H   H277      1.0  0.78327  0.47054  0.08885  1.0000
  C   C228      1.0  0.66813  0.38098  0.14832  1.0000
  S   S61       1.0  0.11119  0.30728  0.01664  1.0000
  C   C229      1.0  0.73944  0.38239  0.20207  1.0000
  C   C230      1.0  0.89278  0.38218  0.99183  1.0000
  S   S62       1.0  0.98025  0.41720  0.19866  1.0000
  H   H278      1.0  0.08505  0.25500  0.16583  1.0000
  S   S63       1.0  0.83945  0.06211  0.04262  1.0000
  S   S64       1.0  0.82011  0.17389  0.12904  1.0000
  N   N16       1.0  0.15446  0.15412  0.20237  1.0000
  C   C231      1.0  0.80373  0.32299  0.05081  1.0000
  C   C232      1.0  0.06694  0.35978  0.07934  1.0000
  H   H279      1.0  0.02018  0.19629  0.19576  1.0000
  H   H280      1.0  0.85034  0.17599  0.19963  1.0000
  C   C233      1.0  0.69523  0.44583  0.03097  1.0000
  C   C234      1.0  0.08486  0.40078  0.10965  1.0000
  C   C235      1.0  0.83550  0.45251  0.00680  1.0000
  C   C236      1.0  0.91387  0.03237  0.21470  1.0000
  C   C237      1.0  0.72222  0.42529  0.16978  1.0000
  H   H281      1.0  0.87153  0.30398  0.05796  1.0000
  C   C238      1.0  0.13303  0.33538  0.05751  1.0000
  H   H282      1.0  0.78141  0.41647  0.21866  1.0000
  Fe  Fe31      1.0  0.76319  0.09523  0.08805  1.0000
  C   C239      1.0  0.70238  0.29488  0.21294  1.0000
  H   H283      1.0  0.90475  0.30650  0.00217  1.0000
  H   H284      1.0  0.88242  0.48782  0.06828  1.0000
  H   H285      1.0  0.76646  0.30740  0.07386  1.0000
  H   H286      1.0  0.06598  0.12465  0.16338  1.0000
  C   C240      1.0  0.81213  0.49247  0.06442  1.0000
  H   H287      1.0  0.00188  0.35226  0.07204  1.0000
  Fe  Fe32      1.0  0.71621  0.10908  0.01554  1.0000
  H   H288      1.0  0.05133  0.02141  0.02913  1.0000
