data_image0
_chemical_formula_structural       H3FeCNCSC8SCHC4H2CH2FeH2SHC3HCHS2C3H3SCH2FeHFeSH2SC2HSCH2NH2CH2SHCHCHNCH6CH2CH2SCHCHCH2SC2H2CHCH2SHSC3HFeCHCHS2CNCFeH4SCH2C2HCSC2H3CSH5C3HC2HC2HC2SFeH9SHCHNS2CHSC2FeHCH2CHCFe2HC2H3C2FeC2H4NCH6SH2FeSCH4C2HFeCH3SCH2FeHC7HCHFeH4CHCH2CFeSC2FeC3SC4H2CH5CHSHSCHCS2HCHC2HCSH3CH2CHC3H2CH3C2H3NC3HC2H2C2HSH2SC2NH6SHCH3C3HCHC2H2SH3SC3H2C3HC2HC2FeC2H3CNFeC2H4CH3CHC2H2CNCHCSCHCH2C2NSHCFeSCH2Fe2C2SH2C3H3CSHC4HC3H2C2H3SCNH3CHSH3CHCH3CHSCH2CHFeH2NHCHSHSCH2SCHCHC2SCHFeSH2SC2H2C2SCHFeSH5CH2CH3NSHC3HFeC2H3Fe2H3SC2H2SHCHCHCHCHCHCHC3H3NHSCH4C3HC2H2NC3HC2NC2FeCFeHSCH2C2HC4H2C4H4C2H3CHCHSH2CHC2SHSHC2FeCH2CH2CHCH3S2CHSH2CH3FeCH2SCSCFeCHCH2CH4CNCFeH2C6H4CH2CHSCHFeCH4FeHC2HSCH2CHCHC4HC4HC3HC2HC3SHCHCHFeSH2CSC2HSCHNH6S2C2H3C2HNH2CH4NCSH2C2H2CHSH3C2HCNHSH3CHC2H3FeC3HCFeC6SCH4C2H4C2HNS2HCFeCH2SC4H2C2H2SHCFe2HC2H3SC2HC2H4NHCSC2HFeCHSCH2CHCHCSCH3C4H4C2HC2HCH2NSCNHSHNHSFeSC2FeCH2CFeNH5CFeSCHCH2CH4CFeSH2CHCHC2HCHC3SCH2C2HC2SCHC2HSCSH3C2NH2CHCHCHC2HCFeCHC2H3CSC2SH3CH2SFeHSC2HSNH9CFeHCSC2H2CSC3SH5NCH2C2H3C2H3CH2C4FeCHFeC2SFeCH2C3H3CS2HCH2Fe2HCHCHC2H2C4HCHCHC3NSC2H5SHC2H2CH2C3H2SC2HSCH3CHCH2SHFeHC2H2CFeCNCSHCHCHCH2CHSH5CH3SHSHCH3CH3CH2CH2SHCH2CHCHC2HCFeHSC2HSH2SC4HCHSHCNCHC2HCH2SHCHCNH2C2HC2HC2SH3C3SH3NHCH2CH2FeH5C2NH6C2HCHSC4H2FeC5H3C2SC2SCH2FeH3CSH4CH2S2C2HSCNHSH2SHC3SCH3C3H2FeHCH4CSCH2CHSHNSC2H2SHC2HC3SCHC2HCHSCHCSHCH6CH3C3H2CHFeCHNH2S2CH4CFeCNCFeHCSC2SCH3CNHNSHFeHS2H4C2HCH2CSHCSCFeC2FeH3C2HC3HC2HCHFeH2SCHC2H3FeH2CFeHCHCFeSH3SH2C2FeH2CHCFeSHCHCHCH2CHC2H2CFeHSH2FeC2H2C6HCHNC3FeSCH2C2HCHCHCS2H3FeH3CH4CSH2CH6C2FeHCHSHC3H2C2H3CSHNH3SC3FeH6CHC2NH2C2SCH3CH2CH3CH2CHC2HCHNFeH4C3HFeC5H5CFeC5H3C4HC3H3C2SHC4HC2SCH2CHCHCH2SFe2H3FeSHCH3SC4HCS2C2NHS2H2C2H3C3SCHC3H2CFeHCHC4SC2HFe2SHSCSHSCH2SHCH5SC2HSNFeCSC3H6CFeH2SH4CSC4H3FeSFeH2C2HC2HSC6SHCFeSH2C4H2C4H2NHC2FeSH2CSCH2SH3NCSCH2C2H2C2HSC2NFeCSCHSCHFeHCH4C2H2CSC2HFeSC2HSH2CHSH3CHCHCHC2H3CHNCHCH8CH2C2H7C2SCSH2SHC2H2CS2H2CHCSC2H2C2SHC4SHNCFeCSHCH3C2H2C2H3C2H4CHCSCHC2FeC4HFeSCHFeH3SCSH3SHFeS2HC4HSH2C2HCH2NCHCSC3H5SHC2H2CH2SCH2CHC2HC2HFeCHCHSCHC2H3FeCHC3NC3H7NH2CHC6SH3C2HFeC2SHFeCHCHC3FeCHCHSC2SCH2S2C2SCHS2HC3HCH3CH5C2SCH2CH3SHNCSHCH2CH2NHSFeC3H3C2FeH2C3H2NHCH2C2HC2H2C7HCH2CH2CSCH3CH2CH2CH4FeH3NHCSH2C3SHC2H2CHSC3SC3H2C2HC6H2SCH2SH2CH2CH2CFeHCHC3NSHSH4Fe2CSNCHCHCH2CH2C2HFeH4CH2SHSHCHCH2C2H3FeSHCSH3C2H2NSCHCSC2H4CH2FeNH3C5FeH2FeHS2HC3HNHC2NCSH2C3H4C2H2C3SH4S4HCFeC2HNHFeC4H4C2SH2CFeH2S2CSCHC2FeCSHFeH4CSC2HCHSCHC2FeCSHCH2CH2CHCFeH3SH2C8SHC2HCHCFeCSCH2FeH2CH2FeC2HFeC2HSHCH2CFeHC2H5SCHCHC2NCHC2H2C2H2C2H2CSCSH2FeCHCHSHSH3C2FeCNHCSCSCH2FeHC2H4C2HFeH2C2FeHFeHC2SCHCHSH2CHC5H3FeSFeH2CHCH2CHSHSNH2CNHC2FeHCSHC3H2CHSH2SHC3H3SCHCNCHFeSHCHCSNH3SC5H2CH3CSCHCSHCSH2CHSH2NC3FeC6H2CHCH2SH3SCHC2H2C3HC3H2CHCNCHCH2CHC2H8CHCFeHCH2CHC2SCHC2H2FeCH6CSH2CH2CFeC2H3CSCHFeH4SC2HC2SCHSFeCH4CH2C3FeSH2CFeH2FeCHSC3H2CH2C3HCH2NCHSHSH2CHC4S2CHC3SHCHSHC2H3NH3SFeHC3HC2FeSCFeCHNCSC4H2SC2H2C5H2CSH3C2H2SH5CH4C2H3CHSCHCFeHSC5H3CH2FeHCNH2CH2C3H2C2H2C2HCHSCHCSHSH2C2HSHC2H2CFeHNH2CSH3CHC2HC2H2CNCH4CFeSH6CH2CSFeHCHFeCHSH3FeCNHSCSNH7NHFeH2C2SH2CSCH6C3H2C3S2CH2SFeCFeCSFeC3HNH7CHC2FeH3C2H2CSH7CHSHC2HC2HSFeH2SC2HC2HNCSHCH2C2H3CHSH3SFeHCHCSHC2H6SHCHCH3SCHSCNC2FeHS2CFeC4SCH2C2NH2CHC2HC2HC2HSCFeSC3FeC2H4SCH2SC2HCHCH2FeHCHC3SH3FeCHC2SHCHFeHCH3SHFeHC2NCHSCH2CFeCSCHC2HCH3FeHCH3SCH2CH2CHC2SCH2C2H5SH7SHNFe2H3CH2CFeSFeCH3C2HC2HCH2CHC4H4CH2CHCH4SC2HC4H2C2FeC2HSCH3C2HC2HCHC2HC2SCFeCSC2H2C3H2C2H3SFeC2SNHCSH2CHSHSH2C3HC2Fe2HSH2C4HSH3CHC2H2CHCHCH2C2SH4SH3CHSH3SHS2C3H2C2HCNH2C4HCHCH4NCHCH11CH4SHCSFeCHCSH3CH2FeHSC3NCHCHCHCHSCHC3H5CHC2H3CH2C2HC5HCH3C2H2CH2CH2SH2NFeHC2HNC2H2CSCH2C2H2C2H2C3H2SNSHCHFeC2SHCHC3HFeHCHCHC2HC2H2CFeC2SFeH3CHSC2HCSNHC2SH3CH4C2SHC2SH2C3H2C2FeSHC2HC5HC2HCHFeCFeC2HCFeHCHFeCH3FeCHC6HC2NC2HCSH4SH3CH3CH9SHSCNHCH2CH2CHSCFeHCFeCHC2HSCHC2HCH2C2HSHCSCHSCS2FeC3H2SCSC2SH2CSHC2H2C3HSHSCH2CFeC2NH2S2C6HC2H2NH3CHCH3CSH2SHCHC2H2SH2FeHC2HFeCFeSCHCSCH4CSHCHCHC2NHCHSHSH2CSCHSH2C2HFeCHCHSCFeCSCHNS2HS2C2HCH3CH5SH5C2FeSH2C2H4SH2CHSHSHCHFeCSC4H2S2H2CHSHFeCHC2FeC2NFeH3CHNH2C2HCHCHCHCHSHCNH2CSHCH5SH4C2H2C3HCH2C4HC2HSHC4H2CHC2HCSHCH2FeC2H2C2HCH5CHC3H4C2H2C2H2CHNH3FeC3NSH2C3HCH2CH3CHSCH2C4FeCHSFeHCHCSH2CFeH2CHFe2H2C2FeH4SH2CH2C2FeCHSHFeHCS2H3C2H2C3HSCHC2SHC2H2NCHC2H3CHFeC2NHCHCH2FeHCH2C2HNCHCHCHCSH2CH5CFe2S2H2CH3C2S2H3CH7FeCSCHFeCH3SH2C2HCS2FeH6CHCHCHFeCH3C5H3C2H3CSHSH2FeH4C4HC2H6CHCHSC2H3C2H2CHSFeCSHSCHCH5CSC2SCSC2SCH2C2SFeHFeCFeH5FeHC2H3CHC4H2CHCH2SC2H3SH3CHNH3SHC2HCH2CNHSC4HC2H3FeHC2H2SCSFe2HCH2FeNHCN2HCHCHFeH4CFeHSHSC5SNC3HCSH2C4H2C2HC2H2CHCSCHCHFeH2CHSHCFeHCHFeHCNHSHSHCH2CHCFeCHC3HC2H3CFeHCHCSHCH2CHSHCSFeH2CH2CH4FeC2H3CH2NCSC2HC2HCH2S2CHSH2C2HCFeHCHC4H3C3HCSCH2C2NHCHC4HC2HFeHCSH2CH3FeNHC2SH4CFeHC3HCHCH2C2HCHCH3C2HSCSCH3CHNCHC3H3SHCH2C4SCFeC3HC2HCH2S2C2H5CNFeCH2CSH3C4HCH2CS2H2CFeH2SC3H5NCSFeHC4HCHC3SH2C2NH2CFeH3CHC3H5CHCHC2HCHSC3SHCFeH7CHCHSCHCSC4HCH3CHNHC2S2C4HCHCHC2SH3CHSH3CH3CHCH3C2SNSH2FeH3NHNH2CH2CH3SHSHSHCFeNH2SHC3H2CHCFeCS2HC3SH3CH2CH5C2HC
_chemical_formula_sum              "H2376 Fe264 C1980 N132 S528"
_cell_length_a       69.2238
_cell_length_b       66.4019
_cell_length_c       24.2956
_cell_angle_alpha    73.6236
_cell_angle_beta     73.1186
_cell_angle_gamma    119.231

_space_group_name_H-M_alt    "P 1"
_space_group_IT_number       1

loop_
  _space_group_symop_operation_xyz
  'x, y, z'

loop_
  _atom_site_type_symbol
  _atom_site_label
  _atom_site_symmetry_multiplicity
  _atom_site_fract_x
  _atom_site_fract_y
  _atom_site_fract_z
  _atom_site_occupancy
  H   H1        1.0  0.00725  0.07734  0.99975  1.0000
  H   H2        1.0  0.93811  0.99999  0.79669  1.0000
  H   H3        1.0  0.23222  0.01300  0.11247  1.0000
  Fe  Fe1       1.0  0.02871  0.12393  0.83737  1.0000
  C   C1        1.0  0.93568  0.03303  0.23351  1.0000
  N   N1        1.0  0.98379  0.97162  0.04447  1.0000
  C   C2        1.0  0.15205  0.14868  0.97355  1.0000
  S   S1        1.0  0.94079  0.14681  0.21793  1.0000
  C   C3        1.0  0.93203  0.03280  0.13801  1.0000
  C   C4        1.0  0.18448  0.02606  0.79954  1.0000
  C   C5        1.0  0.18386  0.14388  0.08569  1.0000
  C   C6        1.0  0.18546  0.16592  0.08237  1.0000
  C   C7        1.0  0.16851  0.07172  0.81094  1.0000
  C   C8        1.0  0.19343  0.09051  0.75574  1.0000
  C   C9        1.0  0.11008  0.10806  0.85201  1.0000
  C   C10       1.0  0.07232  0.96408  0.15492  1.0000
  S   S2        1.0  0.22428  0.02575  0.79279  1.0000
  C   C11       1.0  0.97911  0.09427  0.80219  1.0000
  H   H4        1.0  0.95761  0.12128  0.00205  1.0000
  C   C12       1.0  0.22321  0.08600  0.96007  1.0000
  C   C13       1.0  0.23003  0.17026  0.03805  1.0000
  C   C14       1.0  0.04873  0.06745  0.79191  1.0000
  C   C15       1.0  0.22550  0.99238  0.23025  1.0000
  H   H5        1.0  0.15477  0.10600  0.87655  1.0000
  H   H6        1.0  0.19014  0.16408  0.85698  1.0000
  C   C16       1.0  0.06173  0.09453  0.74838  1.0000
  H   H7        1.0  0.94096  0.17857  0.92589  1.0000
  H   H8        1.0  0.93131  0.99667  0.03997  1.0000
  Fe  Fe2       1.0  0.09161  0.12166  0.19588  1.0000
  H   H9        1.0  0.18720  0.03458  0.83112  1.0000
  H   H10       1.0  0.96025  0.10572  0.92218  1.0000
  S   S3        1.0  0.24829  0.17133  0.78005  1.0000
  H   H11       1.0  0.01494  0.08082  0.14421  1.0000
  C   C17       1.0  0.95878  0.96668  0.07141  1.0000
  C   C18       1.0  0.26288  0.96392  0.79991  1.0000
  C   C19       1.0  0.10991  0.06300  0.20524  1.0000
  H   H12       1.0  0.24616  0.00219  0.82376  1.0000
  C   C20       1.0  0.00970  0.17267  0.04185  1.0000
  H   H13       1.0  0.14532  0.09263  0.99022  1.0000
  S   S4        1.0  0.04011  0.15783  0.85723  1.0000
  S   S5        1.0  0.13117  0.04674  0.94046  1.0000
  C   C21       1.0  0.94096  0.10242  0.14048  1.0000
  C   C22       1.0  0.94134  0.04025  0.84936  1.0000
  C   C23       1.0  0.00546  0.99990  0.01897  1.0000
  H   H14       1.0  0.00173  0.00582  0.05690  1.0000
  H   H15       1.0  0.97235  0.94490  0.00636  1.0000
  H   H16       1.0  0.97876  0.95450  0.14229  1.0000
  S   S6        1.0  0.23185  0.97817  0.06656  1.0000
  C   C24       1.0  0.10016  0.07632  0.21852  1.0000
  H   H17       1.0  0.09877  0.10176  0.82875  1.0000
  H   H18       1.0  0.15341  0.05890  0.80506  1.0000
  Fe  Fe3       1.0  0.10476  0.01952  0.91431  1.0000
  H   H19       1.0  0.20848  0.01759  0.12941  1.0000
  Fe  Fe4       1.0  0.07659  0.16347  0.83727  1.0000
  S   S7        1.0  0.09706  0.16994  0.89365  1.0000
  H   H20       1.0  0.07198  0.96966  0.10762  1.0000
  H   H21       1.0  0.28396  0.98018  0.77437  1.0000
  S   S8        1.0  0.22641  0.02759  0.95565  1.0000
  C   C25       1.0  0.95630  0.98605  0.03905  1.0000
  C   C26       1.0  0.20935  0.07242  0.02987  1.0000
  H   H22       1.0  0.93731  0.13459  0.05765  1.0000
  S   S9        1.0  0.92785  0.16534  0.83815  1.0000
  C   C27       1.0  0.01621  0.09726  0.11019  1.0000
  H   H23       1.0  0.16414  0.15476  0.99641  1.0000
  H   H24       1.0  0.95955  0.11932  0.09377  1.0000
  N   N2        1.0  0.24756  0.96952  0.83983  1.0000
  H   H25       1.0  0.24648  0.17061  0.02056  1.0000
  H   H26       1.0  0.19331  0.15253  0.92739  1.0000
  C   C28       1.0  0.96465  0.08695  0.77120  1.0000
  H   H27       1.0  0.18577  0.13325  0.88837  1.0000
  H   H28       1.0  0.96659  0.17901  0.92999  1.0000
  S   S10       1.0  0.06316  0.12714  0.82879  1.0000
  H   H29       1.0  0.21883  0.07503  0.93415  1.0000
  C   C29       1.0  0.25302  0.97017  0.89434  1.0000
  H   H30       1.0  0.17227  0.97095  0.21779  1.0000
  C   C30       1.0  0.98773  0.96618  0.98893  1.0000
  H   H31       1.0  0.99299  0.11515  0.78535  1.0000
  N   N3        1.0  0.00205  0.08848  0.07546  1.0000
  C   C31       1.0  0.10019  0.00985  0.12895  1.0000
  H   H32       1.0  0.02838  0.05475  0.82786  1.0000
  H   H33       1.0  0.08454  0.00707  0.16861  1.0000
  H   H34       1.0  0.34556  0.17904  0.89460  1.0000
  H   H35       1.0  0.12543  0.07197  0.15596  1.0000
  H   H36       1.0  0.13516  0.95325  0.78430  1.0000
  H   H37       1.0  0.13936  0.13517  0.21966  1.0000
  C   C32       1.0  0.01464  0.08119  0.03356  1.0000
  H   H38       1.0  0.96606  0.06208  0.04270  1.0000
  H   H39       1.0  0.12807  0.95546  0.87975  1.0000
  C   C33       1.0  0.02996  0.17936  0.98626  1.0000
  H   H40       1.0  0.21169  0.97281  0.81298  1.0000
  H   H41       1.0  0.92670  0.01938  0.86783  1.0000
  S   S11       1.0  0.99074  0.08275  0.90061  1.0000
  C   C34       1.0  0.20116  0.02125  0.77055  1.0000
  H   H42       1.0  0.18001  0.08423  0.92849  1.0000
  C   C35       1.0  0.95583  0.04750  0.88010  1.0000
  H   H43       1.0  0.20519  0.93447  0.04052  1.0000
  C   C36       1.0  0.18191  0.14588  0.90310  1.0000
  H   H44       1.0  0.97270  0.93302  0.10714  1.0000
  H   H45       1.0  0.98936  0.03962  0.76390  1.0000
  S   S12       1.0  0.06343  0.97398  0.85966  1.0000
  C   C37       1.0  0.00523  0.11176  0.03102  1.0000
  C   C38       1.0  0.95832  0.05434  0.09575  1.0000
  H   H46       1.0  0.12296  0.09507  0.04188  1.0000
  H   H47       1.0  0.09727  0.94469  0.84048  1.0000
  C   C39       1.0  0.24765  0.12830  0.95676  1.0000
  H   H48       1.0  0.03714  0.11419  0.07414  1.0000
  C   C40       1.0  0.24222  0.11397  0.92357  1.0000
  H   H49       1.0  0.00650  0.97001  0.96608  1.0000
  H   H50       1.0  0.99953  0.97501  0.20774  1.0000
  S   S13       1.0  0.07086  0.16671  0.05684  1.0000
  H   H51       1.0  0.13204  0.13812  0.01362  1.0000
  S   S14       1.0  0.17333  0.97497  0.09531  1.0000
  C   C41       1.0  0.16068  0.00931  0.74637  1.0000
  C   C42       1.0  0.20431  0.95309  0.84805  1.0000
  C   C43       1.0  0.14215  0.11119  0.87864  1.0000
  H   H52       1.0  0.24183  0.01109  0.22277  1.0000
  Fe  Fe5       1.0  0.15788  0.96210  0.03296  1.0000
  C   C44       1.0  0.12128  0.12905  0.91653  1.0000
  H   H53       1.0  0.24925  0.95147  0.92612  1.0000
  C   C45       1.0  0.94338  0.09254  0.97198  1.0000
  H   H54       1.0  0.99021  0.97010  0.76524  1.0000
  S   S15       1.0  0.10818  0.16465  0.14319  1.0000
  S   S16       1.0  0.10282  0.98459  0.91712  1.0000
  C   C46       1.0  0.22142  0.01669  0.14657  1.0000
  N   N4        1.0  0.09716  0.98482  0.14602  1.0000
  C   C47       1.0  0.11688  0.97402  0.21193  1.0000
  Fe  Fe6       1.0  0.06685  0.00874  0.86516  1.0000
  H   H55       1.0  0.10332  0.93718  0.96477  1.0000
  H   H56       1.0  0.11883  0.02591  0.12134  1.0000
  H   H57       1.0  0.27756  0.01241  0.77647  1.0000
  H   H58       1.0  0.25258  0.95850  0.12687  1.0000
  S   S17       1.0  0.16989  0.00223  0.96758  1.0000
  C   C48       1.0  0.97424  0.06568  0.12134  1.0000
  H   H59       1.0  0.23555  0.03688  0.13784  1.0000
  H   H60       1.0  0.20478  0.07621  0.11708  1.0000
  C   C49       1.0  0.18639  0.96993  0.22840  1.0000
  C   C50       1.0  0.22941  0.94942  0.08104  1.0000
  H   H61       1.0  0.05563  0.96067  0.19245  1.0000
  C   C51       1.0  0.94172  0.10113  0.01826  1.0000
  S   S18       1.0  0.10966  0.03498  0.81248  1.0000
  C   C52       1.0  0.16327  0.06942  0.87324  1.0000
  C   C53       1.0  0.23473  0.11452  0.02656  1.0000
  H   H62       1.0  0.00898  0.10479  0.13935  1.0000
  H   H63       1.0  0.19426  0.96377  0.19570  1.0000
  H   H64       1.0  0.97428  0.99512  0.82504  1.0000
  C   C54       1.0  0.21977  0.94823  0.86787  1.0000
  S   S19       1.0  0.26969  0.16347  0.91229  1.0000
  H   H65       1.0  0.99166  0.15780  0.14779  1.0000
  H   H66       1.0  0.11706  0.99689  0.04196  1.0000
  H   H67       1.0  0.31548  0.17287  0.91277  1.0000
  H   H68       1.0  0.24113  0.97331  0.92723  1.0000
  H   H69       1.0  0.15161  0.02383  0.80992  1.0000
  C   C55       1.0  0.06210  0.05701  0.79028  1.0000
  C   C56       1.0  0.25680  0.99676  0.79593  1.0000
  C   C57       1.0  0.93594  0.94207  0.12846  1.0000
  H   H70       1.0  0.25467  0.99847  0.75151  1.0000
  C   C58       1.0  0.13031  0.93377  0.79845  1.0000
  C   C59       1.0  0.93101  0.99095  0.76926  1.0000
  H   H71       1.0  0.00929  0.01416  0.97208  1.0000
  C   C60       1.0  0.97450  0.07453  0.85723  1.0000
  C   C61       1.0  0.24243  0.94500  0.11126  1.0000
  H   H72       1.0  0.25913  0.94515  0.83136  1.0000
  C   C62       1.0  0.16437  0.02013  0.78730  1.0000
  C   C63       1.0  0.18361  0.08612  0.88020  1.0000
  S   S20       1.0  0.04448  0.02263  0.84489  1.0000
  Fe  Fe7       1.0  0.10610  0.99901  0.81733  1.0000
  H   H73       1.0  0.00465  0.95998  0.07702  1.0000
  H   H74       1.0  0.93175  0.97853  0.90659  1.0000
  H   H75       1.0  0.11685  0.97233  0.09730  1.0000
  H   H76       1.0  0.95223  0.03213  0.92235  1.0000
  H   H77       1.0  0.15413  0.11023  0.03340  1.0000
  H   H78       1.0  0.05117  0.10234  0.74994  1.0000
  H   H79       1.0  0.10003  0.01743  0.08210  1.0000
  H   H80       1.0  0.15852  0.16751  0.93287  1.0000
  H   H81       1.0  0.99586  0.98868  0.83232  1.0000
  S   S21       1.0  0.05469  0.10633  0.19683  1.0000
  H   H82       1.0  0.97213  0.00436  0.99239  1.0000
  C   C64       1.0  0.20879  0.10514  0.82451  1.0000
  H   H83       1.0  0.03582  0.09765  0.00039  1.0000
  N   N5        1.0  0.15407  0.13143  0.94817  1.0000
  S   S22       1.0  0.06171  0.99510  0.96778  1.0000
  S   S23       1.0  0.19336  0.96939  0.96579  1.0000
  C   C65       1.0  0.04831  0.17711  0.99270  1.0000
  H   H84       1.0  0.23934  0.12541  0.05247  1.0000
  S   S24       1.0  0.18429  0.03777  0.07733  1.0000
  C   C66       1.0  0.14372  0.10627  0.00581  1.0000
  C   C67       1.0  0.00737  0.16301  0.10458  1.0000
  Fe  Fe8       1.0  0.20992  0.98551  0.02333  1.0000
  H   H85       1.0  0.99651  0.10749  0.99985  1.0000
  C   C68       1.0  0.21523  0.08669  0.06308  1.0000
  H   H86       1.0  0.06871  0.94451  0.17185  1.0000
  H   H87       1.0  0.09312  0.12461  0.88935  1.0000
  C   C69       1.0  0.04611  0.16741  0.05510  1.0000
  H   H88       1.0  0.25266  0.12443  0.86971  1.0000
  C   C70       1.0  0.94523  0.05990  0.79610  1.0000
  Fe  Fe9       1.0  0.18858  0.01606  0.02470  1.0000
  Fe  Fe10      1.0  0.96707  0.17995  0.11172  1.0000
  H   H89       1.0  0.16539  0.12510  0.10542  1.0000
  C   C71       1.0  0.93291  0.98179  0.06547  1.0000
  C   C72       1.0  0.11803  0.99042  0.08803  1.0000
  H   H90       1.0  0.99634  0.11817  0.06026  1.0000
  H   H91       1.0  0.16691  0.93655  0.85878  1.0000
  H   H92       1.0  0.16737  0.16486  0.20498  1.0000
  C   C73       1.0  0.99497  0.00399  0.80197  1.0000
  C   C74       1.0  0.20607  0.14607  0.06320  1.0000
  Fe  Fe11      1.0  0.06991  0.14894  0.15132  1.0000
  C   C75       1.0  0.10685  0.12086  0.88626  1.0000
  C   C76       1.0  0.96206  0.05436  0.19180  1.0000
  H   H93       1.0  0.02599  0.12924  0.99595  1.0000
  H   H94       1.0  0.22445  0.11745  0.83037  1.0000
  H   H95       1.0  0.13277  0.97968  0.16851  1.0000
  H   H96       1.0  0.02378  0.15271  0.15970  1.0000
  N   N6        1.0  0.20719  0.99573  0.21768  1.0000
  C   C77       1.0  0.09742  0.97559  0.20869  1.0000
  H   H97       1.0  0.17533  0.00863  0.21211  1.0000
  H   H98       1.0  0.13741  0.00713  0.07534  1.0000
  H   H99       1.0  0.12955  0.09232  0.82384  1.0000
  H   H100      1.0  0.94030  0.10944  0.17699  1.0000
  H   H101      1.0  0.23391  0.98703  0.19592  1.0000
  H   H102      1.0  0.11762  0.13881  0.94218  1.0000
  S   S25       1.0  0.98798  0.17690  0.02959  1.0000
  H   H103      1.0  0.02400  0.00331  0.00498  1.0000
  H   H104      1.0  0.98737  0.97886  0.94869  1.0000
  Fe  Fe12      1.0  0.06054  0.96179  0.95940  1.0000
  S   S26       1.0  0.93987  0.94032  0.95573  1.0000
  C   C78       1.0  0.12763  0.10311  0.84851  1.0000
  H   H105      1.0  0.15989  0.07968  0.23469  1.0000
  H   H106      1.0  0.27355  0.98666  0.87473  1.0000
  H   H107      1.0  0.20468  0.12894  0.06473  1.0000
  H   H108      1.0  0.96173  0.97351  0.22320  1.0000
  C   C79       1.0  0.02546  0.16005  0.11139  1.0000
  C   C80       1.0  0.21366  0.10764  0.76186  1.0000
  H   H109      1.0  0.16832  0.16462  0.09691  1.0000
  Fe  Fe13      1.0  0.20672  0.01063  0.90322  1.0000
  C   C81       1.0  0.13960  0.12458  0.91324  1.0000
  H   H110      1.0  0.94151  0.08549  0.15972  1.0000
  H   H111      1.0  0.01161  0.06292  0.06510  1.0000
  H   H112      1.0  0.00552  0.02136  0.80818  1.0000
  S   S27       1.0  0.11419  0.10844  0.15728  1.0000
  C   C82       1.0  0.11369  0.93508  0.92490  1.0000
  H   H113      1.0  0.97237  0.06170  0.21617  1.0000
  H   H114      1.0  0.97542  0.10596  0.23916  1.0000
  Fe  Fe14      1.0  0.27886  0.17983  0.80597  1.0000
  H   H115      1.0  0.25800  0.96137  0.76126  1.0000
  C   C83       1.0  0.98499  0.95417  0.09512  1.0000
  C   C84       1.0  0.21583  0.93155  0.06231  1.0000
  C   C85       1.0  0.08859  0.07390  0.74469  1.0000
  C   C86       1.0  0.17831  0.93233  0.87436  1.0000
  C   C87       1.0  0.14691  0.14721  0.24248  1.0000
  C   C88       1.0  0.93118  0.00573  0.71495  1.0000
  C   C89       1.0  0.03386  0.16692  0.49590  1.0000
  H   H116      1.0  0.03820  0.16011  0.41322  1.0000
  C   C90       1.0  0.19568  0.00320  0.26137  1.0000
  H   H117      1.0  0.95691  0.04746  0.58648  1.0000
  Fe  Fe15      1.0  0.04003  0.10446  0.29472  1.0000
  H   H118      1.0  0.92677  0.02501  0.28702  1.0000
  H   H119      1.0  0.11457  0.09446  0.39697  1.0000
  H   H120      1.0  0.15942  0.94843  0.70066  1.0000
  H   H121      1.0  0.16188  0.01999  0.37975  1.0000
  C   C91       1.0  0.08070  0.02730  0.32097  1.0000
  H   H122      1.0  0.06403  0.12726  0.62005  1.0000
  C   C92       1.0  0.15897  0.12124  0.29175  1.0000
  H   H123      1.0  0.08159  0.11711  0.58561  1.0000
  H   H124      1.0  0.18489  0.02664  0.53836  1.0000
  C   C93       1.0  0.15324  0.14933  0.33282  1.0000
  Fe  Fe16      1.0  0.08229  0.15445  0.71961  1.0000
  S   S28       1.0  0.07590  0.11656  0.29794  1.0000
  C   C94       1.0  0.15343  0.00426  0.52405  1.0000
  C   C95       1.0  0.16261  0.17104  0.67930  1.0000
  Fe  Fe17      1.0  0.07610  0.00686  0.46422  1.0000
  C   C96       1.0  0.95855  0.14476  0.62890  1.0000
  C   C97       1.0  0.06184  0.93378  0.72522  1.0000
  C   C98       1.0  0.16766  0.05909  0.59942  1.0000
  S   S29       1.0  0.05260  0.14633  0.24917  1.0000
  C   C99       1.0  0.12483  0.09912  0.51494  1.0000
  C   C100      1.0  0.11631  0.96514  0.27236  1.0000
  C   C101      1.0  0.10491  0.94869  0.69589  1.0000
  C   C102      1.0  0.96303  0.14629  0.68037  1.0000
  H   H125      1.0  0.21223  0.14577  0.65188  1.0000
  H   H126      1.0  0.11520  0.05611  0.66339  1.0000
  C   C103      1.0  0.05840  0.15238  0.45766  1.0000
  H   H127      1.0  0.05595  0.03196  0.38392  1.0000
  H   H128      1.0  0.16852  0.15605  0.50729  1.0000
  H   H129      1.0  0.22823  0.11999  0.59763  1.0000
  H   H130      1.0  0.98446  0.17089  0.71228  1.0000
  H   H131      1.0  0.06193  0.95303  0.37477  1.0000
  C   C104      1.0  0.18759  0.01032  0.35692  1.0000
  H   H132      1.0  0.03397  0.17334  0.57775  1.0000
  S   S30       1.0  0.16422  0.93757  0.41962  1.0000
  H   H133      1.0  0.14752  0.09849  0.65295  1.0000
  S   S31       1.0  0.05080  0.00984  0.53771  1.0000
  C   C105      1.0  0.18894  0.11313  0.30395  1.0000
  H   H134      1.0  0.02218  0.17294  0.49083  1.0000
  C   C106      1.0  0.41594  0.94093  0.46139  1.0000
  S   S32       1.0  0.24405  0.13279  0.68891  1.0000
  S   S33       1.0  0.11231  0.04453  0.43829  1.0000
  H   H135      1.0  0.25272  0.12822  0.52424  1.0000
  C   C107      1.0  0.17141  0.01562  0.34656  1.0000
  H   H136      1.0  0.00993  0.96118  0.44868  1.0000
  C   C108      1.0  0.21660  0.07527  0.59825  1.0000
  C   C109      1.0  0.22247  0.09744  0.49011  1.0000
  H   H137      1.0  0.20229  0.11580  0.32148  1.0000
  C   C110      1.0  0.01348  0.05818  0.57889  1.0000
  S   S34       1.0  0.09359  0.08030  0.52749  1.0000
  H   H138      1.0  0.02543  0.98132  0.36120  1.0000
  H   H139      1.0  0.24302  0.10592  0.46326  1.0000
  H   H140      1.0  0.13563  0.15462  0.25180  1.0000
  C   C111      1.0  0.98667  0.08883  0.29960  1.0000
  H   H141      1.0  0.10268  0.15595  0.41071  1.0000
  H   H142      1.0  0.20577  0.05573  0.60057  1.0000
  C   C112      1.0  0.07082  0.04047  0.33398  1.0000
  H   H143      1.0  0.02126  0.94585  0.59713  1.0000
  C   C113      1.0  0.06577  0.15266  0.50654  1.0000
  C   C114      1.0  0.14045  0.09196  0.49500  1.0000
  C   C115      1.0  0.99522  0.97259  0.30131  1.0000
  H   H144      1.0  0.02037  0.06384  0.52675  1.0000
  H   H145      1.0  0.12285  0.12735  0.53788  1.0000
  C   C116      1.0  0.23249  0.12090  0.54890  1.0000
  H   H146      1.0  0.20895  0.07106  0.65067  1.0000
  H   H147      1.0  0.22003  0.11100  0.45915  1.0000
  H   H148      1.0  0.25063  0.94439  0.45926  1.0000
  C   C117      1.0  0.08830  0.11155  0.70389  1.0000
  C   C118      1.0  0.15331  0.08757  0.63808  1.0000
  H   H149      1.0  0.17997  0.13017  0.71401  1.0000
  H   H150      1.0  0.10438  0.13414  0.46850  1.0000
  H   H151      1.0  0.18992  0.99146  0.57069  1.0000
  N   N7        1.0  0.98653  0.96770  0.41558  1.0000
  C   C119      1.0  0.11686  0.10855  0.35309  1.0000
  C   C120      1.0  0.99404  0.93709  0.68915  1.0000
  C   C121      1.0  0.19967  0.00427  0.31504  1.0000
  H   H152      1.0  0.18263  0.13708  0.33516  1.0000
  C   C122      1.0  0.06937  0.12290  0.57971  1.0000
  C   C123      1.0  0.17736  0.12527  0.31168  1.0000
  H   H153      1.0  0.17191  0.04688  0.58666  1.0000
  H   H154      1.0  0.13279  0.07401  0.49241  1.0000
  C   C124      1.0  0.04282  0.15959  0.45242  1.0000
  C   C125      1.0  0.15329  0.10468  0.26309  1.0000
  H   H155      1.0  0.00168  0.98899  0.67929  1.0000
  S   S35       1.0  0.20975  0.15334  0.44980  1.0000
  H   H156      1.0  0.13090  0.96352  0.27466  1.0000
  H   H157      1.0  0.01384  0.01043  0.36987  1.0000
  S   S36       1.0  0.08847  0.01938  0.59992  1.0000
  C   C126      1.0  0.96882  0.08923  0.28427  1.0000
  C   C127      1.0  0.97298  0.16790  0.56717  1.0000
  N   N8        1.0  0.21424  0.09437  0.55752  1.0000
  H   H158      1.0  0.06495  0.14739  0.42156  1.0000
  H   H159      1.0  0.95825  0.02791  0.54951  1.0000
  H   H160      1.0  0.17404  0.16693  0.29894  1.0000
  H   H161      1.0  0.12035  0.16575  0.50391  1.0000
  H   H162      1.0  0.96736  0.94095  0.52171  1.0000
  H   H163      1.0  0.14260  0.15753  0.33981  1.0000
  S   S37       1.0  0.06954  0.99781  0.38667  1.0000
  H   H164      1.0  0.10778  0.09683  0.33115  1.0000
  C   C128      1.0  0.17248  0.00826  0.53972  1.0000
  H   H165      1.0  0.96781  0.10222  0.72981  1.0000
  H   H166      1.0  0.23214  0.13639  0.51721  1.0000
  H   H167      1.0  0.10541  0.11492  0.37160  1.0000
  C   C129      1.0  0.99527  0.06261  0.67136  1.0000
  C   C130      1.0  0.16082  0.13834  0.50302  1.0000
  C   C131      1.0  0.99204  0.98651  0.72882  1.0000
  H   H168      1.0  0.21104  0.07806  0.49194  1.0000
  C   C132      1.0  0.13491  0.12204  0.52055  1.0000
  H   H169      1.0  0.98180  0.99615  0.42903  1.0000
  C   C133      1.0  0.07781  0.96806  0.26914  1.0000
  C   C134      1.0  0.18280  0.09689  0.27592  1.0000
  H   H170      1.0  0.19240  0.11651  0.60621  1.0000
  H   H171      1.0  0.17822  0.10261  0.46112  1.0000
  S   S38       1.0  0.00053  0.06799  0.38000  1.0000
  H   H172      1.0  0.93616  0.97034  0.32523  1.0000
  H   H173      1.0  0.17552  0.95356  0.28096  1.0000
  H   H174      1.0  0.20730  0.16305  0.55877  1.0000
  S   S39       1.0  0.16457  0.94081  0.57852  1.0000
  C   C135      1.0  0.95287  0.97130  0.31813  1.0000
  C   C136      1.0  0.16730  0.01501  0.29404  1.0000
  C   C137      1.0  0.42144  0.93499  0.51170  1.0000
  H   H175      1.0  0.21159  0.99994  0.32674  1.0000
  H   H176      1.0  0.17428  0.14521  0.61808  1.0000
  C   C138      1.0  0.94250  0.06811  0.32732  1.0000
  C   C139      1.0  0.99619  0.04399  0.71285  1.0000
  C   C140      1.0  0.13499  0.06366  0.64428  1.0000
  H   H177      1.0  0.03511  0.00756  0.73717  1.0000
  C   C141      1.0  0.96303  0.94465  0.48097  1.0000
  C   C142      1.0  0.17539  0.98840  0.55780  1.0000
  H   H178      1.0  0.19040  0.01042  0.39857  1.0000
  C   C143      1.0  0.03363  0.02193  0.70530  1.0000
  C   C144      1.0  0.97825  0.06755  0.35863  1.0000
  Fe  Fe18      1.0  0.08971  0.15856  0.24500  1.0000
  C   C145      1.0  0.14756  0.17522  0.71925  1.0000
  C   C146      1.0  0.17666  0.13173  0.47987  1.0000
  H   H179      1.0  0.07199  0.07436  0.29221  1.0000
  H   H180      1.0  0.19141  0.08705  0.27145  1.0000
  H   H181      1.0  0.07497  0.12098  0.46850  1.0000
  C   C147      1.0  0.96729  0.97313  0.26061  1.0000
  N   N9        1.0  0.08294  0.14604  0.51237  1.0000
  Fe  Fe19      1.0  0.08706  0.04461  0.52081  1.0000
  C   C148      1.0  0.95193  0.04609  0.40094  1.0000
  C   C149      1.0  0.18707  0.08385  0.58975  1.0000
  H   H182      1.0  0.13896  0.10003  0.24868  1.0000
  H   H183      1.0  0.12319  0.97757  0.51192  1.0000
  H   H184      1.0  0.17570  0.99786  0.68143  1.0000
  H   H185      1.0  0.13102  0.17205  0.71657  1.0000
  C   C150      1.0  0.09156  0.13900  0.46264  1.0000
  H   H186      1.0  0.06151  0.16149  0.58728  1.0000
  H   H187      1.0  0.10187  0.17415  0.54275  1.0000
  H   H188      1.0  0.19412  0.18040  0.55848  1.0000
  C   C151      1.0  0.13773  0.98062  0.52469  1.0000
  H   H189      1.0  0.12795  0.03028  0.63237  1.0000
  C   C152      1.0  0.01459  0.03963  0.61983  1.0000
  C   C153      1.0  0.17905  0.09767  0.61116  1.0000
  H   H190      1.0  0.00313  0.08416  0.57277  1.0000
  H   H191      1.0  0.06246  0.96889  0.27087  1.0000
  C   C154      1.0  0.10632  0.16936  0.50282  1.0000
  N   N10       1.0  0.20120  0.17132  0.63948  1.0000
  C   C155      1.0  0.16625  0.10816  0.47759  1.0000
  H   H192      1.0  0.09644  0.95123  0.37725  1.0000
  C   C156      1.0  0.08010  0.06462  0.28233  1.0000
  S   S40       1.0  0.07746  0.97957  0.53926  1.0000
  C   C157      1.0  0.10168  0.10115  0.70117  1.0000
  H   H193      1.0  0.02266  0.03160  0.59745  1.0000
  C   C158      1.0  0.93403  0.04638  0.38540  1.0000
  H   H194      1.0  0.00044  0.94551  0.40238  1.0000
  H   H195      1.0  0.15005  0.13837  0.38264  1.0000
  C   C159      1.0  0.95941  0.96993  0.36763  1.0000
  C   C160      1.0  0.05621  0.16016  0.55006  1.0000
  N   N11       1.0  0.14445  0.13158  0.30487  1.0000
  S   S41       1.0  0.10456  0.14600  0.65620  1.0000
  H   H196      1.0  0.94831  0.94751  0.49770  1.0000
  C   C161      1.0  0.00374  0.06957  0.60470  1.0000
  Fe  Fe20      1.0  0.05408  0.98462  0.61165  1.0000
  S   S42       1.0  0.15091  0.02995  0.50096  1.0000
  C   C162      1.0  0.09985  0.03819  0.25642  1.0000
  H   H197      1.0  0.00694  0.10511  0.26597  1.0000
  H   H198      1.0  0.23696  0.08304  0.57807  1.0000
  Fe  Fe21      1.0  0.11208  0.01753  0.51881  1.0000
  Fe  Fe22      1.0  0.26882  0.16563  0.70394  1.0000
  C   C163      1.0  0.04043  0.16706  0.54486  1.0000
  C   C164      1.0  0.20004  0.14931  0.68221  1.0000
  S   S43       1.0  0.13325  0.99888  0.73952  1.0000
  H   H199      1.0  0.94372  0.12561  0.63697  1.0000
  H   H200      1.0  0.05153  0.10505  0.58945  1.0000
  C   C165      1.0  0.19383  0.16467  0.59185  1.0000
  C   C166      1.0  0.14215  0.04932  0.62582  1.0000
  C   C167      1.0  0.99627  0.99262  0.41834  1.0000
  H   H201      1.0  0.96932  0.16651  0.52736  1.0000
  H   H202      1.0  0.15671  0.16491  0.64666  1.0000
  H   H203      1.0  0.00145  0.99202  0.45781  1.0000
  C   C168      1.0  0.00637  0.96373  0.40624  1.0000
  S   S44       1.0  0.96221  0.17173  0.33079  1.0000
  H   H204      1.0  0.01158  0.97282  0.29195  1.0000
  C   C169      1.0  0.98854  0.97400  0.25200  1.0000
  C   C170      1.0  0.98041  0.96986  0.36158  1.0000
  C   C171      1.0  0.16001  0.96496  0.55749  1.0000
  C   C172      1.0  0.18440  0.17495  0.68194  1.0000
  H   H205      1.0  0.98800  0.07177  0.69107  1.0000
  C   C173      1.0  0.09679  0.95801  0.33055  1.0000
  C   C174      1.0  0.00566  0.03166  0.68832  1.0000
  C   C175      1.0  0.14140  0.96118  0.54006  1.0000
  H   H206      1.0  0.12218  0.11423  0.66643  1.0000
  H   H207      1.0  0.94748  0.96841  0.41134  1.0000
  C   C176      1.0  0.98160  0.17104  0.67082  1.0000
  C   C177      1.0  0.07741  0.95913  0.32908  1.0000
  H   H208      1.0  0.94540  0.02925  0.44546  1.0000
  H   H209      1.0  0.15450  0.01890  0.28637  1.0000
  H   H210      1.0  0.93895  0.02610  0.70172  1.0000
  S   S45       1.0  0.01735  0.95363  0.70891  1.0000
  C   C178      1.0  0.94657  0.03384  0.56990  1.0000
  N   N12       1.0  0.00649  0.01146  0.73072  1.0000
  H   H211      1.0  0.04541  0.04115  0.70397  1.0000
  H   H212      1.0  0.19688  0.09179  0.70827  1.0000
  H   H213      1.0  0.04308  0.02576  0.65394  1.0000
  C   C179      1.0  0.08714  0.95356  0.70666  1.0000
  H   H214      1.0  0.22230  0.93571  0.56741  1.0000
  S   S46       1.0  0.04696  0.14918  0.72724  1.0000
  H   H215      1.0  0.12951  0.94308  0.53962  1.0000
  H   H216      1.0  0.94660  0.04602  0.52747  1.0000
  H   H217      1.0  0.21153  0.00829  0.70319  1.0000
  C   C180      1.0  0.17820  0.00583  0.71418  1.0000
  H   H218      1.0  0.12460  0.96431  0.68035  1.0000
  C   C181      1.0  0.17927  0.00900  0.25189  1.0000
  H   H219      1.0  0.21580  0.97565  0.28149  1.0000
  H   H220      1.0  0.04918  0.93905  0.73248  1.0000
  H   H221      1.0  0.10754  0.02795  0.24667  1.0000
  C   C182      1.0  0.00129  0.93605  0.63065  1.0000
  H   H222      1.0  0.20723  0.15367  0.71601  1.0000
  S   S47       1.0  0.29791  0.17132  0.73437  1.0000
  C   C183      1.0  0.19848  0.01181  0.72628  1.0000
  H   H223      1.0  0.09317  0.97297  0.69998  1.0000
  H   H224      1.0  0.95185  0.12819  0.72827  1.0000
  C   C184      1.0  0.16510  0.09278  0.25519  1.0000
  H   H225      1.0  0.92686  0.09690  0.55798  1.0000
  Fe  Fe23      1.0  0.95625  0.17898  0.24330  1.0000
  H   H226      1.0  0.09893  0.06596  0.74278  1.0000
  H   H227      1.0  0.97221  0.97923  0.74166  1.0000
  N   N13       1.0  0.13999  0.33756  0.80181  1.0000
  H   H228      1.0  0.12452  0.22822  0.00469  1.0000
  C   C185      1.0  0.94265  0.22325  0.88009  1.0000
  H   H229      1.0  0.08591  0.37395  0.85106  1.0000
  S   S48       1.0  0.40779  0.38469  0.81628  1.0000
  H   H230      1.0  0.07631  0.35411  0.17084  1.0000
  S   S49       1.0  0.40155  0.32831  0.13051  1.0000
  C   C186      1.0  0.92916  0.40652  0.23427  1.0000
  H   H231      1.0  0.94726  0.18171  0.99023  1.0000
  H   H232      1.0  0.07751  0.21667  0.15381  1.0000
  S   S50       1.0  0.19812  0.22168  0.95396  1.0000
  C   C187      1.0  0.32979  0.32094  0.03035  1.0000
  H   H233      1.0  0.00899  0.25024  0.88155  1.0000
  C   C188      1.0  0.07131  0.23818  0.01479  1.0000
  H   H234      1.0  0.17842  0.19231  0.80289  1.0000
  C   C189      1.0  0.99220  0.40881  0.08090  1.0000
  C   C190      1.0  0.37298  0.38797  0.21398  1.0000
  S   S51       1.0  0.22496  0.33269  0.84533  1.0000
  C   C191      1.0  0.18988  0.34132  0.96409  1.0000
  H   H235      1.0  0.12863  0.26267  0.78341  1.0000
  Fe  Fe24      1.0  0.93366  0.41091  0.89043  1.0000
  S   S52       1.0  0.29372  0.35104  0.75276  1.0000
  H   H236      1.0  0.14186  0.18643  0.79356  1.0000
  H   H237      1.0  0.97971  0.35567  0.03110  1.0000
  S   S53       1.0  0.02556  0.30104  0.76469  1.0000
  C   C192      1.0  0.92914  0.23346  0.88764  1.0000
  C   C193      1.0  0.20984  0.31967  0.15250  1.0000
  H   H238      1.0  0.25342  0.21134  0.80980  1.0000
  H   H239      1.0  0.11350  0.41667  0.84648  1.0000
  C   C194      1.0  0.05630  0.40522  0.91429  1.0000
  C   C195      1.0  0.94926  0.28726  0.19553  1.0000
  S   S54       1.0  0.93966  0.34147  0.01098  1.0000
  C   C196      1.0  0.09032  0.25153  0.03071  1.0000
  H   H240      1.0  0.19729  0.23770  0.83223  1.0000
  Fe  Fe25      1.0  0.20860  0.30329  0.95138  1.0000
  S   S55       1.0  0.39983  0.28092  0.93905  1.0000
  H   H241      1.0  0.99013  0.37491  0.90451  1.0000
  H   H242      1.0  0.93915  0.21152  0.85587  1.0000
  H   H243      1.0  0.32298  0.18716  0.80757  1.0000
  H   H244      1.0  0.11713  0.26073  0.09942  1.0000
  H   H245      1.0  0.08610  0.30186  0.01838  1.0000
  C   C197      1.0  0.13780  0.21375  0.87962  1.0000
  H   H246      1.0  0.30846  0.41842  0.96567  1.0000
  H   H247      1.0  0.22040  0.33520  0.09928  1.0000
  C   C198      1.0  0.15219  0.33875  0.84328  1.0000
  H   H248      1.0  0.13965  0.27853  0.01105  1.0000
  H   H249      1.0  0.06771  0.20031  0.10903  1.0000
  H   H250      1.0  0.06784  0.21643  0.81303  1.0000
  N   N14       1.0  0.10350  0.24074  0.04735  1.0000
  S   S56       1.0  0.03183  0.40776  0.07485  1.0000
  H   H251      1.0  0.94561  0.30148  0.19171  1.0000
  C   C199      1.0  0.38914  0.27823  0.05898  1.0000
  C   C200      1.0  0.20912  0.18990  0.05933  1.0000
  C   C201      1.0  0.09310  0.40656  0.86664  1.0000
  H   H252      1.0  0.97491  0.24701  0.95796  1.0000
  Fe  Fe26      1.0  0.19718  0.29680  0.84330  1.0000
  C   C202      1.0  0.38631  0.23696  0.84970  1.0000
  C   C203      1.0  0.99519  0.22799  0.91074  1.0000
  H   H253      1.0  0.07082  0.24468  0.86435  1.0000
  H   H254      1.0  0.18361  0.36480  0.90277  1.0000
  H   H255      1.0  0.27266  0.29920  0.76666  1.0000
  Fe  Fe27      1.0  0.36471  0.30309  0.80114  1.0000
  Fe  Fe28      1.0  0.06133  0.31497  0.77019  1.0000
  H   H256      1.0  0.09159  0.35454  0.01540  1.0000
  H   H257      1.0  0.09343  0.20467  0.12101  1.0000
  H   H258      1.0  0.11541  0.30694  0.78488  1.0000
  S   S57       1.0  0.95786  0.39879  0.85803  1.0000
  C   C204      1.0  0.08247  0.41782  0.88926  1.0000
  C   C205      1.0  0.38953  0.28887  0.10126  1.0000
  H   H259      1.0  0.25046  0.40814  0.08709  1.0000
  H   H260      1.0  0.28464  0.26977  0.79338  1.0000
  S   S58       1.0  0.13555  0.35055  0.98671  1.0000
  H   H261      1.0  0.34775  0.24459  0.79093  1.0000
  C   C206      1.0  0.15670  0.31149  0.08079  1.0000
  H   H262      1.0  0.00120  0.33728  0.91628  1.0000
  C   C207      1.0  0.15661  0.20722  0.18995  1.0000
  H   H263      1.0  0.12442  0.31198  0.10946  1.0000
  C   C208      1.0  0.40519  0.40778  0.77045  1.0000
  H   H264      1.0  0.12750  0.39591  0.21647  1.0000
  C   C209      1.0  0.14276  0.32027  0.06897  1.0000
  H   H265      1.0  0.27470  0.24338  0.04997  1.0000
  C   C210      1.0  0.96601  0.39680  0.10518  1.0000
  H   H266      1.0  0.38447  0.40616  0.85924  1.0000
  C   C211      1.0  0.37739  0.23122  0.80615  1.0000
  H   H267      1.0  0.34657  0.32905  0.80226  1.0000
  C   C212      1.0  0.05121  0.36976  0.89387  1.0000
  C   C213      1.0  0.09520  0.27482  0.03157  1.0000
  C   C214      1.0  0.27961  0.21920  0.98503  1.0000
  H   H268      1.0  0.11126  0.29459  0.86593  1.0000
  H   H269      1.0  0.34813  0.29366  0.05540  1.0000
  H   H270      1.0  0.26803  0.28141  0.06070  1.0000
  N   N15       1.0  0.08555  0.38267  0.07826  1.0000
  H   H271      1.0  0.10921  0.33884  0.80330  1.0000
  S   S59       1.0  0.18186  0.35293  0.20568  1.0000
  C   C215      1.0  0.95425  0.28197  0.14342  1.0000
  H   H272      1.0  0.95316  0.29111  0.10109  1.0000
  H   H273      1.0  0.22670  0.20280  0.91938  1.0000
  H   H274      1.0  0.99810  0.32761  0.99780  1.0000
  H   H275      1.0  0.38141  0.34285  0.97895  1.0000
  C   C216      1.0  0.99629  0.33968  0.96049  1.0000
  C   C217      1.0  0.27719  0.36737  0.16049  1.0000
  C   C218      1.0  0.15151  0.25882  0.82282  1.0000
  H   H276      1.0  0.96585  0.23901  0.20478  1.0000
  C   C219      1.0  0.40398  0.31657  0.07456  1.0000
  C   C220      1.0  0.25913  0.37566  0.95069  1.0000
  H   H277      1.0  0.24130  0.22767  0.08229  1.0000
  H   H278      1.0  0.29244  0.28555  0.11781  1.0000
  N   N16       1.0  0.34460  0.32317  0.06490  1.0000
  C   C221      1.0  0.05845  0.24776  0.99932  1.0000
  C   C222      1.0  0.96027  0.22811  0.90320  1.0000
  C   C223      1.0  0.30321  0.33104  0.76769  1.0000
  H   H279      1.0  0.13118  0.36306  0.81729  1.0000
  C   C224      1.0  0.15356  0.18324  0.76277  1.0000
  C   C225      1.0  0.20987  0.23240  0.82699  1.0000
  N   N17       1.0  0.25709  0.21885  0.01063  1.0000
  C   C226      1.0  0.12117  0.34218  0.82701  1.0000
  C   C227      1.0  0.01046  0.38338  0.88888  1.0000
  Fe  Fe29      1.0  0.95699  0.42964  0.97107  1.0000
  C   C228      1.0  0.15476  0.24106  0.85731  1.0000
  Fe  Fe30      1.0  0.40536  0.35500  0.78698  1.0000
  H   H280      1.0  0.94308  0.41772  0.17962  1.0000
  S   S60       1.0  0.20594  0.41795  0.82970  1.0000
  C   C229      1.0  0.29563  0.28916  0.78923  1.0000
  H   H281      1.0  0.05821  0.36656  0.18039  1.0000
  H   H282      1.0  0.25096  0.20806  0.10980  1.0000
  C   C230      1.0  0.07726  0.37200  0.14991  1.0000
  C   C231      1.0  0.31669  0.29768  0.79839  1.0000
  H   H283      1.0  0.31398  0.36745  0.03298  1.0000
  C   C232      1.0  0.06139  0.26480  0.80419  1.0000
  C   C233      1.0  0.34139  0.33942  0.96208  1.0000
  C   C234      1.0  0.11199  0.39131  0.04232  1.0000
  C   C235      1.0  0.32424  0.33957  0.77694  1.0000
  H   H284      1.0  0.24731  0.37880  0.09735  1.0000
  H   H285      1.0  0.00656  0.38957  0.99022  1.0000
  C   C236      1.0  0.05851  0.23319  0.74560  1.0000
  C   C237      1.0  0.41667  0.42561  0.02732  1.0000
  C   C238      1.0  0.37074  0.42343  0.16553  1.0000
  C   C239      1.0  0.15241  0.33943  0.00454  1.0000
  H   H286      1.0  0.31458  0.31097  0.15809  1.0000
  H   H287      1.0  0.03178  0.18679  0.93783  1.0000
  H   H288      1.0  0.96039  0.40861  0.08717  1.0000
  H   H289      1.0  0.23505  0.39970  0.95976  1.0000
  C   C240      1.0  0.93428  0.30347  0.82143  1.0000
  C   C241      1.0  0.32705  0.33676  0.93051  1.0000
  H   H290      1.0  0.26381  0.23765  0.91202  1.0000
  H   H291      1.0  0.34116  0.23347  0.87506  1.0000
  H   H292      1.0  0.00656  0.22071  0.90018  1.0000
  C   C242      1.0  0.33846  0.22657  0.83925  1.0000
  H   H293      1.0  0.06594  0.21992  0.01518  1.0000
  C   C243      1.0  0.33511  0.32787  0.11918  1.0000
  H   H294      1.0  0.12578  0.40733  0.04842  1.0000
  S   S61       1.0  0.37271  0.31388  0.87496  1.0000
  H   H295      1.0  0.13403  0.24966  0.06877  1.0000
  H   H296      1.0  0.33509  0.35888  0.77320  1.0000
  C   C244      1.0  0.35361  0.40773  0.14932  1.0000
  H   H297      1.0  0.22749  0.38762  0.21064  1.0000
  C   C245      1.0  0.28882  0.30579  0.77420  1.0000
  C   C246      1.0  0.04100  0.35312  0.09721  1.0000
  S   S62       1.0  0.00685  0.34608  0.78967  1.0000
  H   H298      1.0  0.26025  0.35164  0.90787  1.0000
  S   S63       1.0  0.96285  0.25457  0.08764  1.0000
  H   H299      1.0  0.01436  0.30458  0.05849  1.0000
  C   C247      1.0  0.11785  0.20414  0.86601  1.0000
  C   C248      1.0  0.06447  0.23063  0.79631  1.0000
  Fe  Fe31      1.0  0.25120  0.32210  0.82119  1.0000
  C   C249      1.0  0.05487  0.26665  0.75467  1.0000
  H   H300      1.0  0.95544  0.32986  0.85260  1.0000
  H   H301      1.0  0.10749  0.32834  0.88169  1.0000
  C   C250      1.0  0.22599  0.21217  0.87658  1.0000
  H   H302      1.0  0.11292  0.37463  0.06127  1.0000
  H   H303      1.0  0.05374  0.27801  0.98805  1.0000
  C   C251      1.0  0.37275  0.34542  0.02032  1.0000
  H   H304      1.0  0.33702  0.34640  0.09917  1.0000
  C   C252      1.0  0.17434  0.18667  0.76766  1.0000
  H   H305      1.0  0.27199  0.32928  0.06388  1.0000
  H   H306      1.0  0.17007  0.24823  0.86799  1.0000
  H   H307      1.0  0.33471  0.19283  0.93784  1.0000
  S   S64       1.0  0.03225  0.38806  0.24187  1.0000
  S   S65       1.0  0.32545  0.27709  0.81618  1.0000
  C   C253      1.0  0.41665  0.32291  0.96310  1.0000
  H   H308      1.0  0.31785  0.39325  0.09052  1.0000
  S   S66       1.0  0.17182  0.29263  0.80001  1.0000
  H   H309      1.0  0.19475  0.22238  0.12197  1.0000
  H   H310      1.0  0.04401  0.23707  0.98728  1.0000
  C   C254      1.0  0.00109  0.36943  0.00265  1.0000
  H   H311      1.0  0.28977  0.31364  0.94069  1.0000
  H   H312      1.0  0.32794  0.40172  0.91297  1.0000
  H   H313      1.0  0.05883  0.31945  0.00864  1.0000
  Fe  Fe32      1.0  0.40092  0.30581  0.85254  1.0000
  C   C255      1.0  0.22500  0.23732  0.76479  1.0000
  H   H314      1.0  0.00292  0.32605  0.11526  1.0000
  H   H315      1.0  0.20762  0.32882  0.18296  1.0000
  S   S67       1.0  0.23657  0.29481  0.92746  1.0000
  C   C256      1.0  0.28857  0.29758  0.03320  1.0000
  S   S68       1.0  0.08117  0.25296  0.21052  1.0000
  C   C257      1.0  0.07750  0.38255  0.86910  1.0000
  Fe  Fe33      1.0  0.95427  0.21498  0.13838  1.0000
  C   C258      1.0  0.27059  0.36620  0.92090  1.0000
  H   H316      1.0  0.20326  0.27839  0.14087  1.0000
  C   C259      1.0  0.29675  0.36106  0.07419  1.0000
  H   H317      1.0  0.27813  0.20422  0.02486  1.0000
  H   H318      1.0  0.35227  0.29931  0.12062  1.0000
  C   C260      1.0  0.08469  0.21449  0.11031  1.0000
  H   H319      1.0  0.16630  0.33491  0.82792  1.0000
  H   H320      1.0  0.10854  0.28574  0.04552  1.0000
  H   H321      1.0  0.20817  0.42254  0.12672  1.0000
  H   H322      1.0  0.04025  0.35150  0.89322  1.0000
  C   C261      1.0  0.95885  0.29712  0.74457  1.0000
  N   N18       1.0  0.97469  0.21744  0.89375  1.0000
  C   C262      1.0  0.25937  0.40066  0.06262  1.0000
  Fe  Fe34      1.0  0.94927  0.38170  0.96333  1.0000
  H   H323      1.0  0.28167  0.21529  0.94274  1.0000
  H   H324      1.0  0.94032  0.33337  0.21229  1.0000
  C   C263      1.0  0.06608  0.24658  0.82542  1.0000
  C   C264      1.0  0.08211  0.28420  0.01649  1.0000
  C   C265      1.0  0.93551  0.29159  0.78259  1.0000
  C   C266      1.0  0.08715  0.40690  0.05348  1.0000
  C   C267      1.0  0.34121  0.29802  0.09453  1.0000
  C   C268      1.0  0.33590  0.18839  0.89674  1.0000
  H   H325      1.0  0.13774  0.32339  0.89707  1.0000
  H   H326      1.0  0.00718  0.36396  0.03804  1.0000
  H   H327      1.0  0.03435  0.31297  0.20018  1.0000
  H   H328      1.0  0.04909  0.41493  0.93070  1.0000
  C   C269      1.0  0.30072  0.31578  0.96578  1.0000
  H   H329      1.0  0.10219  0.42331  0.05606  1.0000
  H   H330      1.0  0.41871  0.26025  0.86011  1.0000
  C   C270      1.0  0.01959  0.26590  0.22352  1.0000
  H   H331      1.0  0.20824  0.34985  0.92366  1.0000
  S   S69       1.0  0.10314  0.42038  0.21431  1.0000
  C   C271      1.0  0.12452  0.25833  0.05657  1.0000
  H   H332      1.0  0.09960  0.21455  0.81910  1.0000
  Fe  Fe35      1.0  0.04028  0.41793  0.14913  1.0000
  C   C272      1.0  0.98064  0.36633  0.15276  1.0000
  H   H333      1.0  0.23280  0.30890  0.07118  1.0000
  H   H334      1.0  0.28019  0.26060  0.93687  1.0000
  H   H335      1.0  0.41584  0.41232  0.23097  1.0000
  H   H336      1.0  0.02112  0.40481  0.87489  1.0000
  Fe  Fe36      1.0  0.06081  0.18355  0.74626  1.0000
  H   H337      1.0  0.99937  0.21774  0.81441  1.0000
  C   C273      1.0  0.18252  0.21882  0.16896  1.0000
  C   C274      1.0  0.05390  0.32886  0.03355  1.0000
  H   H338      1.0  0.97548  0.33042  0.98235  1.0000
  S   S70       1.0  0.98533  0.21216  0.13588  1.0000
  C   C275      1.0  0.95461  0.35437  0.17610  1.0000
  H   H339      1.0  0.23998  0.36754  0.95963  1.0000
  H   H340      1.0  0.24651  0.24285  0.96939  1.0000
  C   C276      1.0  0.22325  0.29499  0.12541  1.0000
  H   H341      1.0  0.11943  0.39979  0.98789  1.0000
  C   C277      1.0  0.23493  0.39507  0.00772  1.0000
  H   H342      1.0  0.37710  0.36529  0.99832  1.0000
  C   C278      1.0  0.24078  0.22981  0.75850  1.0000
  C   C279      1.0  0.33084  0.32277  0.79292  1.0000
  C   C280      1.0  0.26197  0.24083  0.95522  1.0000
  C   C281      1.0  0.94870  0.25263  0.94502  1.0000
  H   H343      1.0  0.20924  0.20629  0.05857  1.0000
  C   C282      1.0  0.39323  0.41566  0.80549  1.0000
  C   C283      1.0  0.96111  0.25238  0.20229  1.0000
  C   C284      1.0  0.12591  0.31007  0.81231  1.0000
  C   C285      1.0  0.97952  0.32563  0.78583  1.0000
  H   H344      1.0  0.05158  0.23069  0.15517  1.0000
  C   C286      1.0  0.96253  0.24276  0.93711  1.0000
  C   C287      1.0  0.27228  0.39505  0.96756  1.0000
  C   C288      1.0  0.06668  0.36201  0.06986  1.0000
  H   H345      1.0  0.14891  0.20178  0.15922  1.0000
  C   C289      1.0  0.35559  0.37233  0.19803  1.0000
  C   C290      1.0  0.06388  0.27079  0.99997  1.0000
  H   H346      1.0  0.95102  0.26404  0.97031  1.0000
  C   C291      1.0  0.98072  0.31391  0.74660  1.0000
  C   C292      1.0  0.17614  0.35019  0.95250  1.0000
  C   C293      1.0  0.07262  0.34923  0.03768  1.0000
  S   S71       1.0  0.17793  0.42074  0.95924  1.0000
  H   H347      1.0  0.27916  0.37853  0.18649  1.0000
  C   C294      1.0  0.95639  0.32074  0.82243  1.0000
  H   H348      1.0  0.30426  0.36855  0.88283  1.0000
  C   C295      1.0  0.13161  0.24924  0.80880  1.0000
  H   H349      1.0  0.37803  0.25680  0.07992  1.0000
  Fe  Fe37      1.0  0.16578  0.39450  0.91540  1.0000
  S   S72       1.0  0.06364  0.28595  0.83673  1.0000
  H   H350      1.0  0.09116  0.38726  0.15717  1.0000
  H   H351      1.0  0.31746  0.21350  0.85778  1.0000
  C   C296      1.0  0.38039  0.41372  0.20020  1.0000
  S   S73       1.0  0.17891  0.26832  0.95125  1.0000
  C   C297      1.0  0.27240  0.33905  0.09273  1.0000
  C   C298      1.0  0.30278  0.30009  0.06532  1.0000
  H   H352      1.0  0.37319  0.22806  0.90187  1.0000
  S   S74       1.0  0.22521  0.28923  0.80869  1.0000
  C   C299      1.0  0.17998  0.32161  0.02779  1.0000
  H   H353      1.0  0.06266  0.29946  0.21433  1.0000
  N   N19       1.0  0.01227  0.36824  0.94239  1.0000
  H   H354      1.0  0.29803  0.23914  0.96504  1.0000
  H   H355      1.0  0.00129  0.25875  0.22404  1.0000
  H   H356      1.0  0.00676  0.42986  0.04352  1.0000
  H   H357      1.0  0.41757  0.41007  0.05226  1.0000
  H   H358      1.0  0.12964  0.25644  0.94510  1.0000
  H   H359      1.0  0.14892  0.29610  0.13023  1.0000
  S   S75       1.0  0.98357  0.41935  0.94404  1.0000
  S   S76       1.0  0.19610  0.30858  0.03816  1.0000
  C   C300      1.0  0.99943  0.39350  0.10483  1.0000
  C   C301      1.0  0.95660  0.18791  0.93675  1.0000
  H   H360      1.0  0.14006  0.20004  0.90787  1.0000
  H   H361      1.0  0.06904  0.40316  0.08341  1.0000
  H   H362      1.0  0.34691  0.41584  0.12195  1.0000
  C   C302      1.0  0.40241  0.29517  0.98996  1.0000
  C   C303      1.0  0.41788  0.33368  0.00535  1.0000
  H   H363      1.0  0.93083  0.39769  0.77000  1.0000
  N   N20       1.0  0.26115  0.40624  0.99702  1.0000
  H   H364      1.0  0.33667  0.35101  0.87802  1.0000
  H   H365      1.0  0.37994  0.37919  0.23811  1.0000
  C   C304      1.0  0.34397  0.20304  0.78501  1.0000
  H   H366      1.0  0.03494  0.36174  0.12279  1.0000
  H   H367      1.0  0.10072  0.22300  0.98436  1.0000
  H   H368      1.0  0.38108  0.39841  0.03344  1.0000
  H   H369      1.0  0.09194  0.41488  0.00064  1.0000
  N   N21       1.0  0.22334  0.30869  0.16434  1.0000
  C   C305      1.0  0.11508  0.23705  0.99303  1.0000
  S   S77       1.0  0.38994  0.29121  0.78653  1.0000
  H   H370      1.0  0.34607  0.32992  0.14578  1.0000
  H   H371      1.0  0.93335  0.35107  0.83215  1.0000
  C   C306      1.0  0.29730  0.40387  0.95378  1.0000
  C   C307      1.0  0.29535  0.37565  0.90696  1.0000
  H   H372      1.0  0.23293  0.28604  0.13251  1.0000
  H   H373      1.0  0.27853  0.41033  0.05860  1.0000
  C   C308      1.0  0.02243  0.33261  0.09325  1.0000
  H   H374      1.0  0.13928  0.30559  0.79544  1.0000
  S   S78       1.0  0.15537  0.41571  0.85725  1.0000
  H   H375      1.0  0.22696  0.40359  0.03057  1.0000
  H   H376      1.0  0.16200  0.35846  0.84068  1.0000
  H   H377      1.0  0.99990  0.24626  0.78856  1.0000
  C   C309      1.0  0.34547  0.38195  0.16717  1.0000
  C   C310      1.0  0.30865  0.39438  0.92361  1.0000
  H   H378      1.0  0.01841  0.38278  0.84298  1.0000
  C   C311      1.0  0.21136  0.22107  0.88201  1.0000
  N   N22       1.0  0.34946  0.21256  0.83112  1.0000
  H   H379      1.0  0.23645  0.33971  0.22162  1.0000
  S   S79       1.0  0.06999  0.35344  0.76160  1.0000
  H   H380      1.0  0.03553  0.28229  0.17156  1.0000
  H   H381      1.0  0.36164  0.35606  0.93159  1.0000
  H   H382      1.0  0.33169  0.36969  0.15590  1.0000
  C   C312      1.0  0.39606  0.41902  0.01657  1.0000
  H   H383      1.0  0.37860  0.27559  0.15478  1.0000
  C   C313      1.0  0.95944  0.26392  0.14787  1.0000
  C   C314      1.0  0.03867  0.22048  0.20802  1.0000
  H   H384      1.0  0.32088  0.28043  0.13295  1.0000
  H   H385      1.0  0.22084  0.37299  0.04259  1.0000
  H   H386      1.0  0.97324  0.21433  0.80822  1.0000
  Fe  Fe38      1.0  0.07100  0.42154  0.21861  1.0000
  C   C315      1.0  0.03976  0.38064  0.91804  1.0000
  C   C316      1.0  0.02884  0.32049  0.06148  1.0000
  C   C317      1.0  0.29906  0.37554  0.10694  1.0000
  H   H387      1.0  0.38327  0.34645  0.04782  1.0000
  C   C318      1.0  0.98730  0.22431  0.82321  1.0000
  Fe  Fe39      1.0  0.20822  0.26237  0.91717  1.0000
  C   C319      1.0  0.25599  0.22473  0.06550  1.0000
  C   C320      1.0  0.24956  0.33061  0.14609  1.0000
  C   C321      1.0  0.94716  0.36953  0.15269  1.0000
  C   C322      1.0  0.25283  0.34513  0.18021  1.0000
  C   C323      1.0  0.24099  0.21685  0.81458  1.0000
  C   C324      1.0  0.23225  0.19301  0.03554  1.0000
  S   S80       1.0  0.22392  0.23711  0.18674  1.0000
  C   C325      1.0  0.11505  0.22197  0.82947  1.0000
  H   H388      1.0  0.98716  0.22130  0.96477  1.0000
  H   H389      1.0  0.98617  0.35443  0.17146  1.0000
  H   H390      1.0  0.18999  0.30384  0.16536  1.0000
  H   H391      1.0  0.02120  0.24953  0.23349  1.0000
  C   C326      1.0  0.20822  0.28807  0.23599  1.0000
  C   C327      1.0  0.19237  0.22525  0.20945  1.0000
  H   H392      1.0  0.34976  0.35253  0.21039  1.0000
  H   H393      1.0  0.00519  0.19636  0.20304  1.0000
  H   H394      1.0  0.96927  0.40456  0.21099  1.0000
  H   H395      1.0  0.35383  0.19451  0.77206  1.0000
  C   C328      1.0  0.41250  0.25574  0.82604  1.0000
  C   C329      1.0  0.93219  0.24815  0.91997  1.0000
  H   H396      1.0  0.06430  0.18294  0.94909  1.0000
  N   N23       1.0  0.39693  0.42993  0.22145  1.0000
  S   S81       1.0  0.37009  0.43085  0.96626  1.0000
  S   S82       1.0  0.93814  0.18534  0.10601  1.0000
  H   H397      1.0  0.07203  0.41564  0.75026  1.0000
  C   C330      1.0  0.01228  0.20152  0.23480  1.0000
  Fe  Fe40      1.0  0.03638  0.34110  0.74574  1.0000
  C   C331      1.0  0.99577  0.19524  0.60956  1.0000
  H   H398      1.0  0.24187  0.37692  0.28902  1.0000
  H   H399      1.0  0.05042  0.29428  0.29661  1.0000
  S   S83       1.0  0.04535  0.30423  0.59052  1.0000
  C   C332      1.0  0.33292  0.25480  0.37044  1.0000
  C   C333      1.0  0.35670  0.42299  0.64174  1.0000
  C   C334      1.0  0.22424  0.36125  0.29530  1.0000
  C   C335      1.0  0.99250  0.42052  0.41111  1.0000
  H   H400      1.0  0.18393  0.26534  0.54987  1.0000
  H   H401      1.0  0.12668  0.27676  0.51360  1.0000
  C   C336      1.0  0.37926  0.28881  0.30855  1.0000
  C   C337      1.0  0.14071  0.20252  0.25086  1.0000
  H   H402      1.0  0.99132  0.18511  0.39695  1.0000
  H   H403      1.0  0.35493  0.34225  0.36251  1.0000
  S   S84       1.0  0.25977  0.23604  0.68101  1.0000
  H   H404      1.0  0.14366  0.24902  0.37377  1.0000
  C   C338      1.0  0.15448  0.37285  0.38036  1.0000
  Fe  Fe41      1.0  0.28486  0.40512  0.40944  1.0000
  Fe  Fe42      1.0  0.30501  0.37581  0.37646  1.0000
  H   H405      1.0  0.35673  0.26553  0.66554  1.0000
  C   C339      1.0  0.94943  0.37873  0.48872  1.0000
  C   C340      1.0  0.42114  0.31201  0.59844  1.0000
  H   H406      1.0  0.03493  0.32143  0.49036  1.0000
  H   H407      1.0  0.21797  0.29075  0.50642  1.0000
  H   H408      1.0  0.05492  0.24506  0.57356  1.0000
  S   S85       1.0  0.24447  0.26656  0.29908  1.0000
  C   C341      1.0  0.36501  0.40901  0.49876  1.0000
  C   C342      1.0  0.15107  0.21061  0.28906  1.0000
  H   H409      1.0  0.00226  0.20985  0.50783  1.0000
  C   C343      1.0  0.14543  0.41103  0.67025  1.0000
  C   C344      1.0  0.04639  0.28453  0.26681  1.0000
  H   H410      1.0  0.97691  0.42190  0.31594  1.0000
  H   H411      1.0  0.00075  0.29058  0.26250  1.0000
  H   H412      1.0  0.33318  0.30054  0.66891  1.0000
  H   H413      1.0  0.28264  0.32422  0.39436  1.0000
  N   N24       1.0  0.94223  0.40710  0.27341  1.0000
  H   H414      1.0  0.99216  0.26047  0.69580  1.0000
  C   C345      1.0  0.14338  0.24226  0.42024  1.0000
  S   S86       1.0  0.93893  0.19049  0.65808  1.0000
  C   C346      1.0  0.00457  0.19475  0.34435  1.0000
  C   C347      1.0  0.01672  0.30417  0.53468  1.0000
  H   H415      1.0  0.14428  0.36308  0.35846  1.0000
  Fe  Fe43      1.0  0.10342  0.26124  0.38995  1.0000
  C   C348      1.0  0.96214  0.21288  0.47789  1.0000
  H   H416      1.0  0.15969  0.40974  0.45735  1.0000
  S   S87       1.0  0.09698  0.23325  0.48340  1.0000
  C   C349      1.0  0.40409  0.41633  0.26089  1.0000
  H   H417      1.0  0.38761  0.30386  0.67055  1.0000
  H   H418      1.0  0.15697  0.41431  0.74248  1.0000
  C   C350      1.0  0.37704  0.27622  0.63476  1.0000
  H   H419      1.0  0.15907  0.29171  0.49480  1.0000
  C   C351      1.0  0.14270  0.22481  0.54045  1.0000
  H   H420      1.0  0.31492  0.24433  0.37098  1.0000
  C   C352      1.0  0.02894  0.39327  0.45936  1.0000
  S   S88       1.0  0.12781  0.27486  0.28316  1.0000
  C   C353      1.0  0.12239  0.22442  0.53960  1.0000
  H   H421      1.0  0.93454  0.31164  0.55172  1.0000
  H   H422      1.0  0.09941  0.27972  0.59609  1.0000
  H   H423      1.0  0.30384  0.27955  0.67216  1.0000
  C   C354      1.0  0.18964  0.18266  0.72787  1.0000
  C   C355      1.0  0.18388  0.39941  0.42962  1.0000
  C   C356      1.0  0.99267  0.26968  0.65042  1.0000
  C   C357      1.0  0.95273  0.39274  0.26274  1.0000
  H   H424      1.0  0.12971  0.34519  0.69992  1.0000
  H   H425      1.0  0.11026  0.34928  0.28737  1.0000
  H   H426      1.0  0.20618  0.41204  0.53936  1.0000
  H   H427      1.0  0.23655  0.20109  0.63132  1.0000
  C   C358      1.0  0.29698  0.32146  0.37784  1.0000
  C   C359      1.0  0.26327  0.32803  0.61633  1.0000
  H   H428      1.0  0.41940  0.27747  0.51711  1.0000
  C   C360      1.0  0.96258  0.41720  0.50304  1.0000
  C   C361      1.0  0.00700  0.22223  0.66298  1.0000
  H   H429      1.0  0.38751  0.29461  0.46440  1.0000
  C   C362      1.0  0.31954  0.33581  0.37946  1.0000
  H   H430      1.0  0.38671  0.40086  0.57434  1.0000
  H   H431      1.0  0.15966  0.37912  0.58176  1.0000
  N   N25       1.0  0.13676  0.29167  0.57754  1.0000
  S   S89       1.0  0.30452  0.22403  0.73439  1.0000
  C   C363      1.0  0.13454  0.40313  0.34062  1.0000
  N   N26       1.0  0.12662  0.38654  0.41019  1.0000
  H   H432      1.0  0.34878  0.31223  0.31610  1.0000
  S   S90       1.0  0.06002  0.36107  0.63477  1.0000
  H   H433      1.0  0.25299  0.29050  0.54310  1.0000
  N   N27       1.0  0.20077  0.26643  0.61212  1.0000
  H   H434      1.0  0.15986  0.23323  0.67490  1.0000
  S   S91       1.0  0.21671  0.32599  0.40892  1.0000
  Fe  Fe44      1.0  0.21336  0.23384  0.40516  1.0000
  S   S92       1.0  0.30912  0.28233  0.28976  1.0000
  C   C364      1.0  0.94891  0.27409  0.25244  1.0000
  C   C365      1.0  0.15900  0.31226  0.57785  1.0000
  Fe  Fe45      1.0  0.42090  0.33357  0.70291  1.0000
  C   C366      1.0  0.40259  0.30985  0.41111  1.0000
  H   H435      1.0  0.03482  0.32689  0.38880  1.0000
  H   H436      1.0  0.13647  0.41943  0.42821  1.0000
  C   C367      1.0  0.97961  0.23916  0.46180  1.0000
  Fe  Fe46      1.0  0.27565  0.21448  0.70146  1.0000
  N   N28       1.0  0.01412  0.37372  0.53205  1.0000
  H   H437      1.0  0.29869  0.29011  0.57885  1.0000
  H   H438      1.0  0.00937  0.21064  0.69979  1.0000
  H   H439      1.0  0.98655  0.21435  0.68669  1.0000
  H   H440      1.0  0.93484  0.35811  0.50488  1.0000
  H   H441      1.0  0.12375  0.31509  0.56028  1.0000
  C   C368      1.0  0.40572  0.35155  0.50058  1.0000
  Fe  Fe47      1.0  0.09291  0.37094  0.65123  1.0000
  S   S93       1.0  0.92640  0.18436  0.24763  1.0000
  C   C369      1.0  0.99158  0.19279  0.55703  1.0000
  H   H442      1.0  0.99267  0.42580  0.58044  1.0000
  C   C370      1.0  0.18550  0.37671  0.70344  1.0000
  H   H443      1.0  0.93442  0.22760  0.41418  1.0000
  H   H444      1.0  0.02444  0.37483  0.63612  1.0000
  C   C371      1.0  0.98134  0.22683  0.36072  1.0000
  H   H445      1.0  0.36051  0.40070  0.42202  1.0000
  H   H446      1.0  0.17610  0.29416  0.39296  1.0000
  H   H447      1.0  0.39827  0.32366  0.39291  1.0000
  H   H448      1.0  0.27603  0.29346  0.35048  1.0000
  C   C372      1.0  0.40906  0.27865  0.39680  1.0000
  Fe  Fe48      1.0  0.26793  0.25448  0.31913  1.0000
  S   S94       1.0  0.23827  0.22454  0.42691  1.0000
  H   H449      1.0  0.15220  0.42395  0.31770  1.0000
  H   H450      1.0  0.38341  0.41295  0.48097  1.0000
  C   C373      1.0  0.15714  0.31077  0.63884  1.0000
  H   H451      1.0  0.22024  0.25589  0.55316  1.0000
  C   C374      1.0  0.16344  0.24187  0.42148  1.0000
  H   H452      1.0  0.02466  0.30778  0.28254  1.0000
  C   C375      1.0  0.26806  0.31725  0.57759  1.0000
  C   C376      1.0  0.00067  0.40024  0.56014  1.0000
  H   H453      1.0  0.20575  0.29607  0.26967  1.0000
  C   C377      1.0  0.33047  0.40605  0.57346  1.0000
  H   H454      1.0  0.19602  0.41078  0.44594  1.0000
  C   C378      1.0  0.24791  0.29734  0.57598  1.0000
  C   C379      1.0  0.08600  0.43086  0.62077  1.0000
  C   C380      1.0  0.93443  0.35583  0.72155  1.0000
  S   S95       1.0  0.32269  0.41933  0.33091  1.0000
  C   C381      1.0  0.22825  0.19634  0.59971  1.0000
  H   H455      1.0  0.21808  0.36472  0.58233  1.0000
  H   H456      1.0  0.35544  0.25665  0.47668  1.0000
  C   C382      1.0  0.99870  0.25918  0.39532  1.0000
  C   C383      1.0  0.33756  0.33136  0.36069  1.0000
  H   H457      1.0  0.33776  0.40357  0.68193  1.0000
  C   C384      1.0  0.14338  0.29332  0.51168  1.0000
  C   C385      1.0  0.38011  0.28320  0.36844  1.0000
  S   S96       1.0  0.06928  0.25234  0.38055  1.0000
  C   C386      1.0  0.12289  0.23361  0.47948  1.0000
  H   H458      1.0  0.03249  0.38449  0.42853  1.0000
  C   C387      1.0  0.37380  0.40095  0.61400  1.0000
  C   C388      1.0  0.98839  0.35101  0.54973  1.0000
  H   H459      1.0  0.36473  0.41749  0.30837  1.0000
  S   S97       1.0  0.18848  0.23445  0.48651  1.0000
  C   C389      1.0  0.35628  0.26244  0.42922  1.0000
  S   S98       1.0  0.10757  0.18520  0.28369  1.0000
  H   H460      1.0  0.10952  0.29229  0.64672  1.0000
  H   H461      1.0  0.95206  0.36056  0.72292  1.0000
  H   H462      1.0  0.20915  0.23917  0.64128  1.0000
  C   C390      1.0  0.20934  0.33494  0.34792  1.0000
  C   C391      1.0  0.10283  0.35906  0.43903  1.0000
  N   N29       1.0  0.40442  0.29768  0.36900  1.0000
  H   H463      1.0  0.03266  0.26354  0.54459  1.0000
  H   H464      1.0  0.11386  0.38648  0.50224  1.0000
  C   C392      1.0  0.20232  0.39593  0.63539  1.0000
  H   H465      1.0  0.95209  0.23980  0.69087  1.0000
  C   C393      1.0  0.35596  0.27475  0.30995  1.0000
  H   H466      1.0  0.05234  0.37376  0.32166  1.0000
  C   C394      1.0  0.93889  0.39152  0.73794  1.0000
  H   H467      1.0  0.42515  0.39994  0.50686  1.0000
  C   C395      1.0  0.31210  0.30104  0.32961  1.0000
  C   C396      1.0  0.00722  0.41422  0.63919  1.0000
  H   H468      1.0  0.04808  0.41121  0.44439  1.0000
  C   C397      1.0  0.29316  0.30392  0.35338  1.0000
  Fe  Fe49      1.0  0.25454  0.36030  0.38503  1.0000
  C   C398      1.0  0.05385  0.25132  0.72486  1.0000
  H   H469      1.0  0.11928  0.40428  0.33793  1.0000
  C   C399      1.0  0.20468  0.24705  0.60416  1.0000
  C   C400      1.0  0.06493  0.36840  0.31369  1.0000
  H   H470      1.0  0.94771  0.19718  0.52934  1.0000
  H   H471      1.0  0.97849  0.24410  0.50098  1.0000
  H   H472      1.0  0.11622  0.18760  0.45451  1.0000
  C   C401      1.0  0.99397  0.29310  0.53247  1.0000
  S   S99       1.0  0.97979  0.37768  0.39169  1.0000
  C   C402      1.0  0.21816  0.29972  0.65056  1.0000
  C   C403      1.0  0.19981  0.27986  0.55420  1.0000
  S   S100      1.0  0.39495  0.34494  0.71414  1.0000
  H   H473      1.0  0.22454  0.24703  0.72175  1.0000
  H   H474      1.0  0.09768  0.42399  0.61026  1.0000
  H   H475      1.0  0.13906  0.39523  0.30850  1.0000
  C   C404      1.0  0.20163  0.35030  0.58126  1.0000
  H   H476      1.0  0.02076  0.39843  0.69326  1.0000
  H   H477      1.0  0.18033  0.36370  0.35178  1.0000
  S   S101      1.0  0.27870  0.41978  0.48083  1.0000
  Fe  Fe50      1.0  0.01714  0.40487  0.29320  1.0000
  H   H478      1.0  0.93802  0.37292  0.27062  1.0000
  S   S102      1.0  0.13193  0.40949  0.57472  1.0000
  C   C405      1.0  0.41241  0.28325  0.55053  1.0000
  C   C406      1.0  0.17833  0.32929  0.64031  1.0000
  H   H479      1.0  0.05036  0.27977  0.73941  1.0000
  S   S103      1.0  0.05894  0.30247  0.39503  1.0000
  N   N30       1.0  0.02111  0.27486  0.27274  1.0000
  H   H480      1.0  0.29916  0.39489  0.55465  1.0000
  H   H481      1.0  0.06561  0.41250  0.65517  1.0000
  H   H482      1.0  0.42095  0.32178  0.41044  1.0000
  H   H483      1.0  0.41877  0.34988  0.51382  1.0000
  H   H484      1.0  0.03836  0.21747  0.35001  1.0000
  H   H485      1.0  0.21755  0.27912  0.24713  1.0000
  H   H486      1.0  0.94299  0.40309  0.68721  1.0000
  H   H487      1.0  0.33494  0.34020  0.62326  1.0000
  H   H488      1.0  0.35520  0.38034  0.64656  1.0000
  C   C407      1.0  0.16330  0.42203  0.69027  1.0000
  Fe  Fe51      1.0  0.32181  0.21519  0.66055  1.0000
  H   H489      1.0  0.31512  0.23287  0.47681  1.0000
  C   C408      1.0  0.11650  0.29486  0.59598  1.0000
  S   S104      1.0  0.94364  0.25344  0.58056  1.0000
  C   C409      1.0  0.35484  0.41174  0.55347  1.0000
  C   C410      1.0  0.17923  0.32053  0.30949  1.0000
  H   H490      1.0  0.14220  0.21778  0.58715  1.0000
  H   H491      1.0  0.37289  0.31832  0.59362  1.0000
  C   C411      1.0  0.20367  0.35315  0.52049  1.0000
  S   S105      1.0  0.05710  0.21523  0.70406  1.0000
  C   C412      1.0  0.33407  0.31434  0.33457  1.0000
  C   C413      1.0  0.37256  0.35708  0.46730  1.0000
  C   C414      1.0  0.35203  0.40194  0.46477  1.0000
  S   S106      1.0  0.08713  0.33390  0.66072  1.0000
  H   H492      1.0  0.95758  0.39813  0.73449  1.0000
  H   H493      1.0  0.95940  0.38833  0.29760  1.0000
  H   H494      1.0  0.20708  0.38828  0.39283  1.0000
  H   H495      1.0  0.17613  0.24293  0.71931  1.0000
  H   H496      1.0  0.17678  0.32759  0.68728  1.0000
  N   N31       1.0  0.01506  0.22148  0.60018  1.0000
  C   C415      1.0  0.18271  0.33461  0.51843  1.0000
  H   H497      1.0  0.01231  0.27908  0.38563  1.0000
  H   H498      1.0  0.03141  0.35508  0.51120  1.0000
  C   C416      1.0  0.33309  0.24857  0.42995  1.0000
  C   C417      1.0  0.31756  0.39874  0.53940  1.0000
  H   H499      1.0  0.99458  0.30192  0.48658  1.0000
  H   H500      1.0  0.40722  0.39173  0.37471  1.0000
  H   H501      1.0  0.97642  0.33615  0.60427  1.0000
  C   C418      1.0  0.09756  0.35453  0.29432  1.0000
  C   C419      1.0  0.94380  0.39047  0.52372  1.0000
  H   H502      1.0  0.17923  0.24846  0.37604  1.0000
  H   H503      1.0  0.04751  0.37958  0.53240  1.0000
  H   H504      1.0  0.18570  0.33808  0.46957  1.0000
  C   C420      1.0  0.15863  0.35753  0.72973  1.0000
  H   H505      1.0  0.94101  0.36780  0.66823  1.0000
  H   H506      1.0  0.14131  0.26195  0.61738  1.0000
  C   C421      1.0  0.16330  0.23361  0.48149  1.0000
  C   C422      1.0  0.36170  0.33542  0.53045  1.0000
  C   C423      1.0  0.00027  0.25356  0.34263  1.0000
  C   C424      1.0  0.32493  0.33096  0.59877  1.0000
  Fe  Fe52      1.0  0.05190  0.32201  0.65477  1.0000
  C   C425      1.0  0.31992  0.30497  0.54421  1.0000
  H   H507      1.0  0.13924  0.29536  0.68567  1.0000
  Fe  Fe53      1.0  0.14046  0.31577  0.26342  1.0000
  C   C426      1.0  0.14765  0.38573  0.41011  1.0000
  C   C427      1.0  0.12609  0.26438  0.62645  1.0000
  S   S107      1.0  0.32624  0.36077  0.39994  1.0000
  Fe  Fe54      1.0  0.30405  0.41271  0.26922  1.0000
  C   C428      1.0  0.10734  0.38090  0.25495  1.0000
  H   H508      1.0  0.02885  0.24770  0.49747  1.0000
  H   H509      1.0  0.28758  0.32486  0.54708  1.0000
  C   C429      1.0  0.02020  0.29753  0.25372  1.0000
  C   C430      1.0  0.03982  0.22600  0.57922  1.0000
  C   C431      1.0  0.38584  0.26862  0.59169  1.0000
  H   H510      1.0  0.22969  0.21379  0.57037  1.0000
  H   H511      1.0  0.14927  0.31214  0.47269  1.0000
  H   H512      1.0  0.22269  0.41075  0.61632  1.0000
  C   C432      1.0  0.41564  0.37225  0.43867  1.0000
  S   S108      1.0  0.95435  0.43012  0.55112  1.0000
  S   S109      1.0  0.25501  0.22415  0.28685  1.0000
  H   H513      1.0  0.19953  0.29451  0.67816  1.0000
  C   C433      1.0  0.02813  0.36331  0.54380  1.0000
  H   H514      1.0  0.08602  0.35861  0.44493  1.0000
  H   H515      1.0  0.01882  0.24296  0.65401  1.0000
  Fe  Fe55      1.0  0.08591  0.29456  0.35262  1.0000
  Fe  Fe56      1.0  0.09469  0.26926  0.27218  1.0000
  H   H516      1.0  0.16215  0.30457  0.31470  1.0000
  C   C434      1.0  0.01610  0.29241  0.59337  1.0000
  H   H517      1.0  0.32875  0.34716  0.55614  1.0000
  C   C435      1.0  0.32516  0.29372  0.63852  1.0000
  H   H518      1.0  0.38283  0.40535  0.64444  1.0000
  C   C436      1.0  0.09106  0.38784  0.26543  1.0000
  C   C437      1.0  0.19305  0.39665  0.59170  1.0000
  H   H519      1.0  0.39625  0.30405  0.25970  1.0000
  H   H520      1.0  0.18739  0.22972  0.61009  1.0000
  C   C438      1.0  0.07148  0.33520  0.34349  1.0000
  C   C439      1.0  0.22209  0.28722  0.61454  1.0000
  C   C440      1.0  0.15364  0.42131  0.60230  1.0000
  C   C441      1.0  0.42247  0.26490  0.71414  1.0000
  H   H521      1.0  0.23489  0.32877  0.67984  1.0000
  C   C442      1.0  0.16690  0.37805  0.61567  1.0000
  H   H522      1.0  0.97772  0.35780  0.53629  1.0000
  C   C443      1.0  0.19022  0.38689  0.39934  1.0000
  H   H523      1.0  0.10395  0.42669  0.70365  1.0000
  C   C444      1.0  0.01759  0.38574  0.62164  1.0000
  C   C445      1.0  0.03115  0.21337  0.31769  1.0000
  C   C446      1.0  0.23848  0.31973  0.65144  1.0000
  N   N32       1.0  0.36965  0.42050  0.58643  1.0000
  S   S110      1.0  0.93718  0.27571  0.32393  1.0000
  C   C447      1.0  0.14989  0.35877  0.68358  1.0000
  C   C448      1.0  0.16282  0.39874  0.43559  1.0000
  H   H524      1.0  0.18836  0.27152  0.25074  1.0000
  H   H525      1.0  0.39357  0.26256  0.44922  1.0000
  H   H526      1.0  0.95635  0.24782  0.29757  1.0000
  H   H527      1.0  0.24121  0.19495  0.56396  1.0000
  H   H528      1.0  0.01883  0.40033  0.44371  1.0000
  S   S111      1.0  0.28982  0.37050  0.30782  1.0000
  H   H529      1.0  0.27881  0.34320  0.61827  1.0000
  C   C449      1.0  0.39462  0.29783  0.63809  1.0000
  C   C450      1.0  0.39635  0.24598  0.73730  1.0000
  H   H530      1.0  0.11665  0.25931  0.67908  1.0000
  H   H531      1.0  0.10625  0.21700  0.58570  1.0000
  C   C451      1.0  0.37919  0.33347  0.54614  1.0000
  H   H532      1.0  0.10461  0.35006  0.40759  1.0000
  H   H533      1.0  0.09765  0.34545  0.48914  1.0000
  C   C452      1.0  0.17678  0.22170  0.26872  1.0000
  C   C453      1.0  0.01934  0.24411  0.54843  1.0000
  C   C454      1.0  0.99933  0.41430  0.59259  1.0000
  H   H534      1.0  0.33092  0.28189  0.62600  1.0000
  H   H535      1.0  0.35571  0.27978  0.26369  1.0000
  S   S112      1.0  0.26772  0.40216  0.34390  1.0000
  C   C455      1.0  0.05510  0.34201  0.35220  1.0000
  C   C456      1.0  0.96307  0.20672  0.42752  1.0000
  H   H536      1.0  0.04961  0.25373  0.68515  1.0000
  S   S113      1.0  0.09823  0.19147  0.72734  1.0000
  C   C457      1.0  0.18718  0.31461  0.35388  1.0000
  H   H537      1.0  0.16856  0.26263  0.67718  1.0000
  H   H538      1.0  0.39144  0.24379  0.69997  1.0000
  H   H539      1.0  0.38660  0.39704  0.30659  1.0000
  C   C458      1.0  0.97079  0.26953  0.58819  1.0000
  H   H540      1.0  0.31836  0.39149  0.45852  1.0000
  C   C459      1.0  0.19344  0.34684  0.25831  1.0000
  H   H541      1.0  0.41585  0.42886  0.27763  1.0000
  H   H542      1.0  0.10394  0.39820  0.44917  1.0000
  S   S114      1.0  0.19629  0.20203  0.37924  1.0000
  H   H543      1.0  0.22173  0.36980  0.47467  1.0000
  Fe  Fe57      1.0  0.22334  0.19501  0.39365  1.0000
  H   H544      1.0  0.18456  0.22772  0.29869  1.0000
  C   C460      1.0  0.97378  0.39368  0.43255  1.0000
  C   C461      1.0  0.17529  0.37328  0.37572  1.0000
  H   H545      1.0  0.03778  0.20957  0.61614  1.0000
  H   H546      1.0  0.36812  0.42929  0.66600  1.0000
  C   C462      1.0  0.32837  0.39684  0.48504  1.0000
  Fe  Fe58      1.0  0.22916  0.23377  0.27482  1.0000
  C   C463      1.0  0.97005  0.25795  0.64750  1.0000
  N   N33       1.0  0.33348  0.31650  0.57743  1.0000
  C   C464      1.0  0.95598  0.25757  0.25446  1.0000
  S   S115      1.0  0.11782  0.30228  0.37136  1.0000
  H   H547      1.0  0.32639  0.29460  0.52554  1.0000
  C   C465      1.0  0.01560  0.39932  0.65506  1.0000
  H   H548      1.0  0.36058  0.36032  0.45250  1.0000
  C   C466      1.0  0.39914  0.37512  0.42229  1.0000
  H   H549      1.0  0.99421  0.40071  0.52486  1.0000
  C   C467      1.0  0.11999  0.39812  0.44928  1.0000
  H   H550      1.0  0.11086  0.24865  0.62285  1.0000
  H   H551      1.0  0.00097  0.24089  0.55981  1.0000
  C   C468      1.0  0.01100  0.38659  0.57122  1.0000
  H   H552      1.0  0.19724  0.29492  0.55695  1.0000
  S   S116      1.0  0.26818  0.36189  0.45759  1.0000
  H   H553      1.0  0.32296  0.32027  0.50132  1.0000
  H   H554      1.0  0.30384  0.31724  0.63542  1.0000
  H   H555      1.0  0.01709  0.34657  0.59593  1.0000
  H   H556      1.0  0.95988  0.28790  0.71461  1.0000
  H   H557      1.0  0.04717  0.26766  0.28451  1.0000
  C   C469      1.0  0.41661  0.42027  0.70107  1.0000
  H   H558      1.0  0.98992  0.34027  0.52282  1.0000
  H   H559      1.0  0.32098  0.40728  0.61489  1.0000
  H   H560      1.0  0.41001  0.26869  0.36725  1.0000
  S   S117      1.0  0.36443  0.24092  0.58802  1.0000
  H   H561      1.0  0.13907  0.20785  0.33505  1.0000
  S   S118      1.0  0.29439  0.20854  0.62308  1.0000
  H   H562      1.0  0.98053  0.22077  0.32423  1.0000
  C   C470      1.0  0.04818  0.22689  0.24903  1.0000
  H   H563      1.0  0.94967  0.18613  0.44024  1.0000
  H   H564      1.0  0.12535  0.39496  0.70719  1.0000
  H   H565      1.0  0.00686  0.42571  0.66311  1.0000
  C   C471      1.0  0.17535  0.25070  0.67357  1.0000
  H   H566      1.0  0.04728  0.22685  0.53073  1.0000
  H   H567      1.0  0.20575  0.18580  0.73296  1.0000
  H   H568      1.0  0.93088  0.39061  0.37760  1.0000
  C   C472      1.0  0.21629  0.36723  0.25033  1.0000
  H   H569      1.0  0.34979  0.21923  0.73804  1.0000
  H   H570      1.0  0.99850  0.31768  0.71795  1.0000
  C   C473      1.0  0.99512  0.18963  0.30221  1.0000
  H   H571      1.0  0.19404  0.37762  0.73431  1.0000
  H   H572      1.0  0.42493  0.33448  0.27775  1.0000
  S   S119      1.0  0.10942  0.31134  0.24326  1.0000
  H   H573      1.0  0.22680  0.50996  0.86149  1.0000
  C   C474      1.0  0.23512  0.57023  0.87476  1.0000
  H   H574      1.0  0.03352  0.49706  0.90095  1.0000
  H   H575      1.0  0.12940  0.56018  0.08937  1.0000
  C   C475      1.0  0.08815  0.60363  0.86923  1.0000
  H   H576      1.0  0.96143  0.58388  0.80216  1.0000
  C   C476      1.0  0.26125  0.59372  0.11715  1.0000
  H   H577      1.0  0.23904  0.58805  0.87514  1.0000
  C   C477      1.0  0.16961  0.46387  0.07606  1.0000
  C   C478      1.0  0.40713  0.67194  0.01307  1.0000
  H   H578      1.0  0.25207  0.46695  0.13445  1.0000
  C   C479      1.0  0.22906  0.52673  0.86558  1.0000
  Fe  Fe59      1.0  0.21708  0.44596  0.86914  1.0000
  H   H579      1.0  0.07971  0.57964  0.77678  1.0000
  S   S120      1.0  0.42091  0.49306  0.78892  1.0000
  C   C480      1.0  0.31279  0.45548  0.13294  1.0000
  C   C481      1.0  0.95157  0.59588  0.21567  1.0000
  H   H580      1.0  0.00754  0.49515  0.06514  1.0000
  S   S121      1.0  0.04500  0.66180  0.97772  1.0000
  H   H581      1.0  0.26851  0.53554  0.08675  1.0000
  H   H582      1.0  0.16683  0.60818  0.98059  1.0000
  S   S122      1.0  0.99999  0.56648  0.90248  1.0000
  C   C482      1.0  0.25637  0.57071  0.84957  1.0000
  C   C483      1.0  0.07797  0.65816  0.07618  1.0000
  C   C484      1.0  0.98497  0.67360  0.06662  1.0000
  C   C485      1.0  0.94088  0.64410  0.19142  1.0000
  H   H583      1.0  0.07897  0.61647  0.17427  1.0000
  C   C486      1.0  0.16140  0.53713  0.12404  1.0000
  H   H584      1.0  0.07569  0.54275  0.22543  1.0000
  S   S123      1.0  0.98293  0.59157  0.02966  1.0000
  H   H585      1.0  0.29841  0.52068  0.82344  1.0000
  C   C487      1.0  0.27808  0.43569  0.95208  1.0000
  N   N34       1.0  0.23250  0.46554  0.07864  1.0000
  C   C488      1.0  0.29930  0.59748  0.95406  1.0000
  H   H586      1.0  0.29623  0.59261  0.22781  1.0000
  C   C489      1.0  0.09093  0.58095  0.08242  1.0000
  C   C490      1.0  0.15367  0.47125  0.80960  1.0000
  H   H587      1.0  0.07980  0.46347  0.95166  1.0000
  C   C491      1.0  0.17176  0.59969  0.82699  1.0000
  H   H588      1.0  0.30093  0.45599  0.22452  1.0000
  H   H589      1.0  0.38049  0.54219  0.09844  1.0000
  S   S124      1.0  0.33481  0.50245  0.85359  1.0000
  H   H590      1.0  0.01775  0.49250  0.78874  1.0000
  C   C492      1.0  0.05328  0.50782  0.04424  1.0000
  H   H591      1.0  0.22478  0.58761  0.21750  1.0000
  C   C493      1.0  0.34603  0.53546  0.82612  1.0000
  N   N35       1.0  0.93433  0.49780  0.83736  1.0000
  H   H592      1.0  0.95565  0.56421  0.94602  1.0000
  H   H593      1.0  0.34952  0.64796  0.79637  1.0000
  C   C494      1.0  0.97024  0.64574  0.10326  1.0000
  C   C495      1.0  0.99156  0.64991  0.93925  1.0000
  H   H594      1.0  0.05721  0.61370  0.83532  1.0000
  C   C496      1.0  0.26001  0.64205  0.95638  1.0000
  C   C497      1.0  0.31283  0.48404  0.04472  1.0000
  H   H595      1.0  0.27826  0.60869  0.92006  1.0000
  C   C498      1.0  0.01428  0.48612  0.04105  1.0000
  C   C499      1.0  0.33286  0.54064  0.86817  1.0000
  S   S125      1.0  0.35022  0.58949  0.16843  1.0000
  H   H596      1.0  0.06738  0.58954  0.89805  1.0000
  H   H597      1.0  0.93937  0.53468  0.80978  1.0000
  H   H598      1.0  0.06487  0.63996  0.07785  1.0000
  C   C500      1.0  0.06354  0.48252  0.97551  1.0000
  C   C501      1.0  0.32945  0.62964  0.83558  1.0000
  C   C502      1.0  0.27384  0.62748  0.14759  1.0000
  S   S126      1.0  0.21022  0.47124  0.80879  1.0000
  H   H599      1.0  0.33138  0.57070  0.88109  1.0000
  H   H600      1.0  0.32384  0.64145  0.96452  1.0000
  H   H601      1.0  0.37610  0.44318  0.15116  1.0000
  N   N36       1.0  0.04273  0.50418  0.99945  1.0000
  H   H602      1.0  0.38401  0.57687  0.22296  1.0000
  C   C503      1.0  0.14185  0.63945  0.80043  1.0000
  H   H603      1.0  0.37863  0.44816  0.23679  1.0000
  H   H604      1.0  0.15333  0.46252  0.07619  1.0000
  C   C504      1.0  0.17767  0.54763  0.87775  1.0000
  H   H605      1.0  0.24806  0.63518  0.93497  1.0000
  H   H606      1.0  0.17243  0.51709  0.02534  1.0000
  Fe  Fe60      1.0  0.36735  0.50062  0.82268  1.0000
  H   H607      1.0  0.40922  0.59112  0.81862  1.0000
  H   H608      1.0  0.28116  0.44099  0.90089  1.0000
  H   H609      1.0  0.26989  0.44495  0.97008  1.0000
  H   H610      1.0  0.12832  0.48634  0.91837  1.0000
  H   H611      1.0  0.24215  0.43903  0.08548  1.0000
  C   C505      1.0  0.12904  0.49392  0.82521  1.0000
  C   C506      1.0  0.20775  0.52618  0.89020  1.0000
  N   N37       1.0  0.40076  0.56693  0.91610  1.0000
  H   H612      1.0  0.18385  0.46665  0.98108  1.0000
  H   H613      1.0  0.22702  0.43974  0.03714  1.0000
  H   H614      1.0  0.95378  0.63659  0.00222  1.0000
  H   H615      1.0  0.40921  0.56322  0.82872  1.0000
  H   H616      1.0  0.36162  0.54463  0.99490  1.0000
  H   H617      1.0  0.97697  0.63646  0.08254  1.0000
  C   C507      1.0  0.30554  0.49329  0.08522  1.0000
  C   C508      1.0  0.37295  0.55310  0.94023  1.0000
  H   H618      1.0  0.18950  0.50894  0.90329  1.0000
  C   C509      1.0  0.14193  0.50982  0.15325  1.0000
  H   H619      1.0  0.14523  0.49562  0.17134  1.0000
  S   S127      1.0  0.25367  0.46764  0.87021  1.0000
  C   C510      1.0  0.10133  0.60528  0.90388  1.0000
  C   C511      1.0  0.11052  0.59896  0.08952  1.0000
  C   C512      1.0  0.96692  0.61240  0.90090  1.0000
  C   C513      1.0  0.99503  0.52298  0.90166  1.0000
  H   H620      1.0  0.09404  0.57060  0.05805  1.0000
  H   H621      1.0  0.06921  0.48322  0.01233  1.0000
  Fe  Fe61      1.0  0.02158  0.57038  0.07789  1.0000
  C   C514      1.0  0.39505  0.43911  0.98312  1.0000
  C   C515      1.0  0.06325  0.58957  0.13873  1.0000
  C   C516      1.0  0.06923  0.58808  0.78275  1.0000
  C   C517      1.0  0.36758  0.55652  0.76295  1.0000
  C   C518      1.0  0.41429  0.57899  0.84251  1.0000
  H   H622      1.0  0.04794  0.51735  0.06973  1.0000
  H   H623      1.0  0.36470  0.53667  0.92898  1.0000
  H   H624      1.0  0.06016  0.58549  0.75159  1.0000
  C   C519      1.0  0.05168  0.53085  0.95213  1.0000
  C   C520      1.0  0.98772  0.48338  0.19407  1.0000
  S   S128      1.0  0.02276  0.43272  0.20102  1.0000
  C   C521      1.0  0.25243  0.56851  0.00110  1.0000
  C   C522      1.0  0.99374  0.62770  0.87684  1.0000
  S   S129      1.0  0.33146  0.62775  0.08065  1.0000
  C   C523      1.0  0.98438  0.49587  0.93294  1.0000
  H   H625      1.0  0.12875  0.60252  0.07061  1.0000
  H   H626      1.0  0.11997  0.50323  0.83044  1.0000
  Fe  Fe62      1.0  0.38266  0.46799  0.88245  1.0000
  H   H627      1.0  0.41739  0.46731  0.13088  1.0000
  H   H628      1.0  0.32652  0.61289  0.82763  1.0000
  H   H629      1.0  0.36619  0.51240  0.01754  1.0000
  C   C524      1.0  0.96386  0.51444  0.00162  1.0000
  S   S130      1.0  0.41834  0.50395  0.17729  1.0000
  H   H630      1.0  0.92990  0.46331  0.83684  1.0000
  H   H631      1.0  0.00683  0.46645  0.08051  1.0000
  H   H632      1.0  0.29362  0.48870  0.18300  1.0000
  H   H633      1.0  0.07272  0.54415  0.91549  1.0000
  C   C525      1.0  0.02237  0.65653  0.10013  1.0000
  H   H634      1.0  0.27544  0.58833  0.83192  1.0000
  H   H635      1.0  0.93767  0.47395  0.08434  1.0000
  S   S131      1.0  0.03767  0.60178  0.97557  1.0000
  S   S132      1.0  0.30555  0.52038  0.05259  1.0000
  C   C526      1.0  0.06774  0.66141  0.12865  1.0000
  C   C527      1.0  0.96500  0.63439  0.96634  1.0000
  H   H636      1.0  0.28126  0.60296  0.08014  1.0000
  S   S133      1.0  0.02836  0.45976  0.74976  1.0000
  C   C528      1.0  0.95552  0.67192  0.15391  1.0000
  N   N38       1.0  0.08700  0.61664  0.76315  1.0000
  H   H637      1.0  0.41389  0.48142  0.93486  1.0000
  S   S134      1.0  0.36016  0.46305  0.83053  1.0000
  H   H638      1.0  0.17114  0.58909  0.19777  1.0000
  H   H639      1.0  0.15940  0.46068  0.17169  1.0000
  S   S135      1.0  0.08356  0.50622  0.14103  1.0000
  H   H640      1.0  0.10607  0.64982  0.92444  1.0000
  C   C529      1.0  0.08249  0.60687  0.14775  1.0000
  C   C530      1.0  0.29029  0.66020  0.01234  1.0000
  C   C531      1.0  0.19203  0.62204  0.87879  1.0000
  S   S136      1.0  0.37349  0.62053  0.75960  1.0000
  C   C532      1.0  0.97176  0.59695  0.82006  1.0000
  H   H641      1.0  0.15983  0.54576  0.89794  1.0000
  H   H642      1.0  0.17212  0.57663  0.07768  1.0000
  H   H643      1.0  0.93649  0.48645  0.76198  1.0000
  C   C533      1.0  0.10149  0.61957  0.79869  1.0000
  C   C534      1.0  0.98499  0.53230  0.93655  1.0000
  C   C535      1.0  0.38635  0.52169  0.99753  1.0000
  H   H644      1.0  0.95540  0.52138  0.02770  1.0000
  H   H645      1.0  0.92856  0.45835  0.93489  1.0000
  Fe  Fe63      1.0  0.02026  0.61699  0.02580  1.0000
  H   H646      1.0  0.19516  0.46293  0.17493  1.0000
  C   C536      1.0  0.06750  0.57669  0.10584  1.0000
  H   H647      1.0  0.04836  0.54111  0.97851  1.0000
  H   H648      1.0  0.15789  0.50254  0.98243  1.0000
  H   H649      1.0  0.17309  0.53155  0.86548  1.0000
  H   H650      1.0  0.02081  0.50652  0.20216  1.0000
  C   C537      1.0  0.95276  0.61567  0.94814  1.0000
  S   S137      1.0  0.18634  0.67198  0.95072  1.0000
  C   C538      1.0  0.27590  0.49663  0.79066  1.0000
  H   H651      1.0  0.06825  0.67042  0.81907  1.0000
  H   H652      1.0  0.06993  0.46230  0.86179  1.0000
  C   C539      1.0  0.19166  0.56767  0.94040  1.0000
  H   H653      1.0  0.40751  0.60339  0.90739  1.0000
  S   S138      1.0  0.19085  0.54746  0.11829  1.0000
  H   H654      1.0  0.35037  0.66917  0.11593  1.0000
  N   N39       1.0  0.18680  0.54593  0.92577  1.0000
  S   S139      1.0  0.04430  0.55638  0.09039  1.0000
  C   C540      1.0  0.96175  0.51150  0.81764  1.0000
  C   C541      1.0  0.00583  0.64647  0.89493  1.0000
  H   H655      1.0  0.93207  0.60337  0.97255  1.0000
  H   H656      1.0  0.04499  0.58589  0.15825  1.0000
  S   S140      1.0  0.29802  0.55111  0.16613  1.0000
  H   H657      1.0  0.22846  0.61614  0.16635  1.0000
  C   C542      1.0  0.31668  0.46527  0.06842  1.0000
  C   C543      1.0  0.41696  0.53012  0.14612  1.0000
  H   H658      1.0  0.30279  0.66867  0.03099  1.0000
  C   C544      1.0  0.16815  0.60590  0.93761  1.0000
  C   C545      1.0  0.41770  0.51564  0.00264  1.0000
  C   C546      1.0  0.14616  0.60878  0.23745  1.0000
  S   S141      1.0  0.33694  0.53616  0.16104  1.0000
  C   C547      1.0  0.94792  0.63015  0.16722  1.0000
  H   H659      1.0  0.19244  0.56713  0.83005  1.0000
  C   C548      1.0  0.40615  0.54903  0.94658  1.0000
  C   C549      1.0  0.41012  0.58872  0.93176  1.0000
  H   H660      1.0  0.95560  0.45681  0.18974  1.0000
  C   C550      1.0  0.29756  0.67749  0.94843  1.0000
  H   H661      1.0  0.07474  0.52106  0.01603  1.0000
  S   S142      1.0  0.00691  0.58753  0.12849  1.0000
  C   C551      1.0  0.05045  0.49266  0.96233  1.0000
  H   H662      1.0  0.23930  0.48451  0.13750  1.0000
  C   C552      1.0  0.38296  0.65499  0.02119  1.0000
  S   S143      1.0  0.38677  0.50360  0.88248  1.0000
  H   H663      1.0  0.31611  0.52441  0.91671  1.0000
  C   C553      1.0  0.13773  0.67703  0.96139  1.0000
  H   H664      1.0  0.10385  0.47973  0.17833  1.0000
  H   H665      1.0  0.14890  0.51939  0.01434  1.0000
  H   H666      1.0  0.38285  0.50566  0.14332  1.0000
  H   H667      1.0  0.01131  0.53675  0.85115  1.0000
  H   H668      1.0  0.27350  0.48854  0.01629  1.0000
  H   H669      1.0  0.23027  0.52893  0.08459  1.0000
  C   C554      1.0  0.42103  0.45536  0.16211  1.0000
  H   H670      1.0  0.00999  0.63517  0.12027  1.0000
  H   H671      1.0  0.05299  0.57542  0.83514  1.0000
  H   H672      1.0  0.23663  0.61103  0.76578  1.0000
  C   C555      1.0  0.36628  0.67021  0.08656  1.0000
  C   C556      1.0  0.29579  0.52042  0.78184  1.0000
  C   C557      1.0  0.95370  0.48759  0.03344  1.0000
  H   H673      1.0  0.97435  0.52144  0.76272  1.0000
  H   H674      1.0  0.14591  0.67404  0.92054  1.0000
  C   C558      1.0  0.17313  0.46286  0.13003  1.0000
  H   H675      1.0  0.04150  0.52955  0.92384  1.0000
  Fe  Fe64      1.0  0.20920  0.65696  0.94702  1.0000
  C   C559      1.0  0.13522  0.49057  0.77009  1.0000
  H   H676      1.0  0.16274  0.65306  0.77365  1.0000
  N   N40       1.0  0.32507  0.62350  0.90371  1.0000
  H   H677      1.0  0.21827  0.44831  0.18485  1.0000
  H   H678      1.0  0.31659  0.63348  0.82533  1.0000
  S   S144      1.0  0.40995  0.59629  0.07595  1.0000
  S   S145      1.0  0.98446  0.54160  0.08670  1.0000
  C   C560      1.0  0.14802  0.58291  0.88612  1.0000
  H   H679      1.0  0.36952  0.56701  0.91629  1.0000
  H   H680      1.0  0.00567  0.62491  0.84543  1.0000
  H   H681      1.0  0.98362  0.61801  0.77935  1.0000
  H   H682      1.0  0.21948  0.46791  0.98160  1.0000
  C   C561      1.0  0.14763  0.47934  0.76200  1.0000
  Fe  Fe65      1.0  0.22206  0.66967  0.04727  1.0000
  C   C562      1.0  0.19384  0.61899  0.82356  1.0000
  N   N41       1.0  0.11541  0.67594  0.96564  1.0000
  C   C563      1.0  0.96394  0.47829  0.99917  1.0000
  Fe  Fe66      1.0  0.13605  0.56644  0.78368  1.0000
  H   H683      1.0  0.15204  0.61411  0.18484  1.0000
  C   C564      1.0  0.07163  0.62575  0.78114  1.0000
  S   S146      1.0  0.22017  0.64545  0.87338  1.0000
  C   C565      1.0  0.06998  0.47123  0.94041  1.0000
  C   C566      1.0  0.34153  0.56685  0.84801  1.0000
  S   S147      1.0  0.35571  0.58836  0.03128  1.0000
  C   C567      1.0  0.30390  0.46345  0.17476  1.0000
  H   H684      1.0  0.09022  0.63289  0.01322  1.0000
  H   H685      1.0  0.13827  0.62402  0.89655  1.0000
  H   H686      1.0  0.02631  0.65786  0.87595  1.0000
  C   C568      1.0  0.16574  0.52012  0.98947  1.0000
  N   N42       1.0  0.95378  0.59232  0.88244  1.0000
  H   H687      1.0  0.00385  0.65375  0.19348  1.0000
  N   N43       1.0  0.93372  0.60092  0.20663  1.0000
  S   S148      1.0  0.08007  0.44987  0.12144  1.0000
  H   H688      1.0  0.21787  0.58825  0.15288  1.0000
  Fe  Fe67      1.0  0.16991  0.65083  0.06123  1.0000
  H   H689      1.0  0.19904  0.56778  0.97546  1.0000
  S   S149      1.0  0.10778  0.54201  0.75949  1.0000
  S   S150      1.0  0.95096  0.44470  0.04134  1.0000
  H   H690      1.0  0.38017  0.64265  0.99876  1.0000
  H   H691      1.0  0.24794  0.58091  0.10398  1.0000
  H   H692      1.0  0.21227  0.63153  0.77814  1.0000
  H   H693      1.0  0.26246  0.50807  0.01210  1.0000
  C   C569      1.0  0.36242  0.65374  0.05879  1.0000
  C   C570      1.0  0.04389  0.49029  0.91298  1.0000
  H   H694      1.0  0.92943  0.53683  0.09935  1.0000
  C   C571      1.0  0.19374  0.46401  0.13119  1.0000
  H   H695      1.0  0.27267  0.64332  0.15019  1.0000
  H   H696      1.0  0.31121  0.57744  0.00719  1.0000
  C   C572      1.0  0.13400  0.48467  0.87443  1.0000
  S   S151      1.0  0.13017  0.63465  0.13177  1.0000
  H   H697      1.0  0.06054  0.62400  0.75502  1.0000
  C   C573      1.0  0.20723  0.46700  0.02343  1.0000
  S   S152      1.0  0.93141  0.53593  0.21811  1.0000
  C   C574      1.0  0.20991  0.54751  0.89757  1.0000
  Fe  Fe68      1.0  0.99022  0.43717  0.84099  1.0000
  C   C575      1.0  0.06397  0.47001  0.89088  1.0000
  C   C576      1.0  0.39527  0.54579  0.11025  1.0000
  Fe  Fe69      1.0  0.19646  0.44163  0.77487  1.0000
  H   H698      1.0  0.38409  0.44227  0.79916  1.0000
  H   H699      1.0  0.29737  0.44607  0.94725  1.0000
  H   H700      1.0  0.93890  0.59468  0.12229  1.0000
  C   C577      1.0  0.93393  0.59279  0.87140  1.0000
  C   C578      1.0  0.26722  0.63324  0.05084  1.0000
  H   H701      1.0  0.96504  0.49742  0.84096  1.0000
  C   C579      1.0  0.41296  0.57095  0.10037  1.0000
  C   C580      1.0  0.25332  0.54890  0.84571  1.0000
  C   C581      1.0  0.24938  0.54779  0.04829  1.0000
  H   H702      1.0  0.31196  0.64688  0.90966  1.0000
  C   C582      1.0  0.11837  0.50074  0.15733  1.0000
  C   C583      1.0  0.28226  0.66856  0.92093  1.0000
  H   H703      1.0  0.12769  0.57267  0.98753  1.0000
  C   C584      1.0  0.12885  0.63794  0.76523  1.0000
  H   H704      1.0  0.00124  0.66433  0.95321  1.0000
  Fe  Fe70      1.0  0.06214  0.46229  0.18170  1.0000
  H   H705      1.0  0.09073  0.59235  0.95758  1.0000
  H   H706      1.0  0.96871  0.52702  0.83220  1.0000
  S   S153      1.0  0.15083  0.45994  0.92992  1.0000
  C   C585      1.0  0.00455  0.48662  0.21752  1.0000
  H   H707      1.0  0.17314  0.59753  0.78412  1.0000
  C   C586      1.0  0.01898  0.66705  0.14150  1.0000
  C   C587      1.0  0.14609  0.58588  0.94163  1.0000
  H   H708      1.0  0.39963  0.58051  0.98636  1.0000
  H   H709      1.0  0.34574  0.66492  0.87707  1.0000
  H   H710      1.0  0.26985  0.54934  0.82629  1.0000
  Fe  Fe71      1.0  0.42311  0.52838  0.78361  1.0000
  H   H711      1.0  0.96495  0.59893  0.16980  1.0000
  H   H712      1.0  0.94219  0.61337  0.83489  1.0000
  C   C588      1.0  0.27693  0.59308  0.95500  1.0000
  Fe  Fe72      1.0  0.31688  0.54608  0.22415  1.0000
  H   H713      1.0  0.99092  0.50101  0.16103  1.0000
  C   C589      1.0  0.14611  0.47310  0.86683  1.0000
  H   H714      1.0  0.34617  0.62266  0.95354  1.0000
  C   C590      1.0  0.93279  0.51816  0.79860  1.0000
  Fe  Fe73      1.0  0.33332  0.59395  0.10450  1.0000
  S   S154      1.0  0.24081  0.66734  0.10788  1.0000
  H   H715      1.0  0.99248  0.48876  0.90659  1.0000
  H   H716      1.0  0.20546  0.58773  0.89431  1.0000
  H   H717      1.0  0.25792  0.48896  0.97056  1.0000
  S   S155      1.0  0.12154  0.55810  0.88844  1.0000
  H   H718      1.0  0.08417  0.64710  0.76758  1.0000
  H   H719      1.0  0.17372  0.56528  0.96426  1.0000
  C   C591      1.0  0.21145  0.46603  0.07764  1.0000
  C   C592      1.0  0.23132  0.60110  0.16559  1.0000
  Fe  Fe74      1.0  0.36960  0.58007  0.10097  1.0000
  H   H720      1.0  0.23544  0.60412  0.04506  1.0000
  H   H721      1.0  0.23561  0.56561  0.00100  1.0000
  C   C593      1.0  0.34654  0.62416  0.90638  1.0000
  H   H722      1.0  0.04766  0.64621  0.16748  1.0000
  C   C594      1.0  0.41460  0.46582  0.96072  1.0000
  Fe  Fe75      1.0  0.97071  0.56101  0.12865  1.0000
  S   S156      1.0  0.19002  0.63253  0.05801  1.0000
  H   H723      1.0  0.13197  0.66114  0.00891  1.0000
  C   C595      1.0  0.36302  0.58788  0.78493  1.0000
  H   H724      1.0  0.93088  0.54952  0.92630  1.0000
  C   C596      1.0  0.18672  0.46608  0.02276  1.0000
  H   H725      1.0  0.34635  0.60810  0.90029  1.0000
  C   C597      1.0  0.25749  0.48876  0.01678  1.0000
  H   H726      1.0  0.37670  0.48437  0.06253  1.0000
  H   H727      1.0  0.29442  0.63639  0.11834  1.0000
  C   C598      1.0  0.12813  0.62311  0.86956  1.0000
  H   H728      1.0  0.42269  0.67217  0.98568  1.0000
  C   C599      1.0  0.27085  0.55157  0.04957  1.0000
  C   C600      1.0  0.32657  0.64503  0.91427  1.0000
  H   H729      1.0  0.98484  0.59263  0.82659  1.0000
  H   H730      1.0  0.04603  0.47819  0.83927  1.0000
  C   C601      1.0  0.23552  0.46635  0.13633  1.0000
  Fe  Fe76      1.0  0.99959  0.57418  0.98688  1.0000
  H   H731      1.0  0.31696  0.49248  0.99392  1.0000
  S   S157      1.0  0.96650  0.45061  0.86605  1.0000
  H   H732      1.0  0.00493  0.48184  0.01126  1.0000
  H   H733      1.0  0.36569  0.64326  0.86525  1.0000
  Fe  Fe77      1.0  0.32122  0.54499  0.09741  1.0000
  C   C602      1.0  0.25273  0.62452  0.01994  1.0000
  C   C603      1.0  0.09708  0.65081  0.96870  1.0000
  H   H734      1.0  0.08016  0.64913  0.96986  1.0000
  H   H735      1.0  0.26651  0.61290  0.19936  1.0000
  C   C604      1.0  0.39705  0.52531  0.13395  1.0000
  C   C605      1.0  0.96737  0.45778  0.21152  1.0000
  C   C606      1.0  0.04160  0.67373  0.03272  1.0000
  C   C607      1.0  0.29548  0.57597  0.00328  1.0000
  C   C608      1.0  0.39218  0.50523  0.02410  1.0000
  C   C609      1.0  0.30017  0.48228  0.15091  1.0000
  H   H736      1.0  0.25673  0.58021  0.16646  1.0000
  C   C610      1.0  0.13303  0.54617  0.10615  1.0000
  H   H737      1.0  0.04594  0.48848  0.08470  1.0000
  N   N44       1.0  0.25871  0.61442  0.11900  1.0000
  C   C611      1.0  0.05069  0.47923  0.87776  1.0000
  C   C612      1.0  0.15709  0.55543  0.10003  1.0000
  C   C613      1.0  0.10621  0.61183  0.12243  1.0000
  Fe  Fe78      1.0  0.17019  0.44367  0.89520  1.0000
  S   S158      1.0  0.41380  0.66548  0.22672  1.0000
  C   C614      1.0  0.11368  0.51875  0.13424  1.0000
  H   H738      1.0  0.16407  0.46350  0.80203  1.0000
  H   H739      1.0  0.32365  0.45916  0.03589  1.0000
  C   C615      1.0  0.94124  0.56547  0.93737  1.0000
  C   C616      1.0  0.39318  0.43637  0.77136  1.0000
  H   H740      1.0  0.92720  0.56075  0.98526  1.0000
  C   C617      1.0  0.22721  0.44060  0.08208  1.0000
  H   H741      1.0  0.96341  0.60928  0.23061  1.0000
  C   C618      1.0  0.10411  0.67806  0.02363  1.0000
  H   H742      1.0  0.36794  0.67776  0.22336  1.0000
  C   C619      1.0  0.93015  0.67935  0.84624  1.0000
  S   S159      1.0  0.32046  0.43444  0.15874  1.0000
  S   S160      1.0  0.21204  0.52402  0.23685  1.0000
  H   H743      1.0  0.10784  0.58057  0.22590  1.0000
  H   H744      1.0  0.16209  0.62564  0.23672  1.0000
  H   H745      1.0  0.33167  0.62606  0.22421  1.0000
  Fe  Fe79      1.0  0.18097  0.51924  0.21745  1.0000
  H   H746      1.0  0.42206  0.50299  0.02470  1.0000
  H   H747      1.0  0.09456  0.43655  0.88709  1.0000
  H   H748      1.0  0.00294  0.53855  0.23765  1.0000
  C   C620      1.0  0.03684  0.50539  0.74619  1.0000
  H   H749      1.0  0.04522  0.54119  0.74644  1.0000
  H   H750      1.0  0.94513  0.52761  0.74371  1.0000
  H   H751      1.0  0.22791  0.67864  0.74436  1.0000
  H   H752      1.0  0.09244  0.59211  0.40471  1.0000
  C   C621      1.0  0.33002  0.46321  0.52731  1.0000
  S   S161      1.0  0.16709  0.47912  0.39477  1.0000
  H   H753      1.0  0.24862  0.51405  0.37406  1.0000
  H   H754      1.0  0.24287  0.45386  0.28522  1.0000
  C   C622      1.0  0.34314  0.52136  0.37755  1.0000
  H   H755      1.0  0.96122  0.66784  0.67064  1.0000
  H   H756      1.0  0.14587  0.59320  0.34976  1.0000
  H   H757      1.0  0.14584  0.66550  0.53214  1.0000
  H   H758      1.0  0.40345  0.52672  0.57686  1.0000
  H   H759      1.0  0.00234  0.61945  0.28323  1.0000
  H   H760      1.0  0.17976  0.54980  0.59670  1.0000
  C   C623      1.0  0.99585  0.59920  0.30843  1.0000
  C   C624      1.0  0.18236  0.56311  0.38222  1.0000
  Fe  Fe80      1.0  0.37941  0.66957  0.54819  1.0000
  H   H761      1.0  0.02853  0.61206  0.42805  1.0000
  C   C625      1.0  0.28906  0.52000  0.67395  1.0000
  H   H762      1.0  0.40553  0.45617  0.56031  1.0000
  S   S162      1.0  0.94741  0.58423  0.36559  1.0000
  H   H763      1.0  0.35406  0.43831  0.62337  1.0000
  C   C626      1.0  0.35206  0.67657  0.25325  1.0000
  C   C627      1.0  0.98736  0.63497  0.40604  1.0000
  C   C628      1.0  0.01384  0.59440  0.29848  1.0000
  H   H764      1.0  0.08787  0.44151  0.57277  1.0000
  H   H765      1.0  0.08287  0.61170  0.41487  1.0000
  C   C629      1.0  0.10554  0.56241  0.24724  1.0000
  C   C630      1.0  0.06057  0.47900  0.48287  1.0000
  H   H766      1.0  0.06749  0.49935  0.27445  1.0000
  H   H767      1.0  0.11550  0.52113  0.47918  1.0000
  H   H768      1.0  0.36518  0.48935  0.67079  1.0000
  C   C631      1.0  0.26391  0.47946  0.31805  1.0000
  S   S163      1.0  0.02860  0.56316  0.32041  1.0000
  H   H769      1.0  0.01253  0.66593  0.30207  1.0000
  N   N45       1.0  0.36867  0.54652  0.32151  1.0000
  H   H770      1.0  0.15410  0.56803  0.42516  1.0000
  H   H771      1.0  0.01139  0.43216  0.36780  1.0000
  H   H772      1.0  0.31126  0.65207  0.41510  1.0000
  S   S164      1.0  0.09651  0.44849  0.43419  1.0000
  C   C632      1.0  0.25288  0.52874  0.48900  1.0000
  C   C633      1.0  0.41165  0.59703  0.36054  1.0000
  C   C634      1.0  0.08897  0.46745  0.45760  1.0000
  Fe  Fe81      1.0  0.41457  0.50363  0.38567  1.0000
  H   H773      1.0  0.21404  0.49215  0.35086  1.0000
  H   H774      1.0  0.40444  0.62001  0.39726  1.0000
  H   H775      1.0  0.00509  0.56703  0.66391  1.0000
  H   H776      1.0  0.37231  0.48493  0.36996  1.0000
  H   H777      1.0  0.00068  0.56247  0.49460  1.0000
  H   H778      1.0  0.11616  0.65432  0.67031  1.0000
  C   C635      1.0  0.06562  0.46237  0.46949  1.0000
  H   H779      1.0  0.12475  0.49213  0.45380  1.0000
  C   C636      1.0  0.30905  0.67080  0.33113  1.0000
  C   C637      1.0  0.96307  0.43455  0.25472  1.0000
  N   N46       1.0  0.09814  0.60340  0.47697  1.0000
  H   H780      1.0  0.97269  0.52678  0.39881  1.0000
  H   H781      1.0  0.05700  0.58221  0.53276  1.0000
  C   C638      1.0  0.92906  0.58107  0.58090  1.0000
  C   C639      1.0  0.17394  0.51877  0.51664  1.0000
  S   S165      1.0  0.38270  0.49723  0.46743  1.0000
  C   C640      1.0  0.20025  0.56058  0.57658  1.0000
  H   H782      1.0  0.35926  0.54338  0.24571  1.0000
  H   H783      1.0  0.25990  0.66775  0.66952  1.0000
  H   H784      1.0  0.09921  0.44670  0.73319  1.0000
  C   C641      1.0  0.29589  0.55348  0.47088  1.0000
  H   H785      1.0  0.06601  0.56097  0.53445  1.0000
  H   H786      1.0  0.21774  0.46848  0.53731  1.0000
  C   C642      1.0  0.92905  0.62597  0.72095  1.0000
  H   H787      1.0  0.16818  0.54227  0.39887  1.0000
  H   H788      1.0  0.12836  0.55826  0.37716  1.0000
  H   H789      1.0  0.37759  0.52448  0.28358  1.0000
  C   C643      1.0  0.17967  0.44209  0.55447  1.0000
  H   H790      1.0  0.32485  0.59097  0.38168  1.0000
  H   H791      1.0  0.01323  0.46701  0.28065  1.0000
  C   C644      1.0  0.14120  0.47073  0.57857  1.0000
  H   H792      1.0  0.31943  0.49106  0.62729  1.0000
  C   C645      1.0  0.33119  0.45702  0.41753  1.0000
  C   C646      1.0  0.09758  0.60904  0.41401  1.0000
  H   H793      1.0  0.03421  0.61091  0.26615  1.0000
  C   C647      1.0  0.02586  0.60471  0.57486  1.0000
  H   H794      1.0  0.11546  0.50307  0.59311  1.0000
  N   N47       1.0  0.95604  0.59752  0.52578  1.0000
  Fe  Fe82      1.0  0.32406  0.63688  0.65907  1.0000
  H   H795      1.0  0.34429  0.51320  0.42217  1.0000
  H   H796      1.0  0.24273  0.55463  0.72779  1.0000
  H   H797      1.0  0.36507  0.49215  0.59474  1.0000
  H   H798      1.0  0.33541  0.50560  0.36387  1.0000
  C   C648      1.0  0.00557  0.56835  0.33208  1.0000
  C   C649      1.0  0.08664  0.54058  0.24741  1.0000
  C   C650      1.0  0.95996  0.57896  0.51247  1.0000
  H   H799      1.0  0.94759  0.56879  0.49364  1.0000
  Fe  Fe83      1.0  0.18106  0.59824  0.64217  1.0000
  C   C651      1.0  0.08197  0.51612  0.27504  1.0000
  C   C652      1.0  0.39499  0.44714  0.53669  1.0000
  C   C653      1.0  0.02338  0.60228  0.47959  1.0000
  C   C654      1.0  0.40267  0.57802  0.34081  1.0000
  C   C655      1.0  0.26559  0.49656  0.34289  1.0000
  H   H800      1.0  0.26455  0.59164  0.35136  1.0000
  H   H801      1.0  0.97009  0.62456  0.56168  1.0000
  H   H802      1.0  0.07616  0.46524  0.62200  1.0000
  H   H803      1.0  0.19468  0.53502  0.66531  1.0000
  H   H804      1.0  0.23596  0.52537  0.61586  1.0000
  C   C656      1.0  0.24515  0.61823  0.71282  1.0000
  Fe  Fe84      1.0  0.98532  0.47277  0.51936  1.0000
  C   C657      1.0  0.30692  0.44641  0.52962  1.0000
  C   C658      1.0  0.09224  0.43366  0.71181  1.0000
  C   C659      1.0  0.32539  0.61187  0.27525  1.0000
  C   C660      1.0  0.22677  0.60174  0.33045  1.0000
  C   C661      1.0  0.27016  0.53069  0.50984  1.0000
  H   H805      1.0  0.36404  0.56152  0.59567  1.0000
  H   H806      1.0  0.29275  0.62138  0.27507  1.0000
  H   H807      1.0  0.18183  0.49109  0.51954  1.0000
  C   C662      1.0  0.35371  0.47659  0.47035  1.0000
  C   C663      1.0  0.30752  0.44288  0.47511  1.0000
  C   C664      1.0  0.11499  0.53503  0.30299  1.0000
  C   C665      1.0  0.22728  0.48782  0.34365  1.0000
  H   H808      1.0  0.10723  0.55150  0.59992  1.0000
  C   C666      1.0  0.97485  0.65538  0.34054  1.0000
  C   C667      1.0  0.20905  0.55225  0.61565  1.0000
  C   C668      1.0  0.24373  0.46643  0.30624  1.0000
  H   H809      1.0  0.34912  0.51541  0.54793  1.0000
  H   H810      1.0  0.11665  0.62741  0.37046  1.0000
  H   H811      1.0  0.01322  0.51546  0.30760  1.0000
  C   C669      1.0  0.99329  0.50583  0.32113  1.0000
  C   C670      1.0  0.21765  0.58304  0.51271  1.0000
  S   S166      1.0  0.02481  0.50179  0.42738  1.0000
  H   H812      1.0  0.27375  0.60095  0.50347  1.0000
  C   C671      1.0  0.40493  0.58832  0.54027  1.0000
  C   C672      1.0  0.30476  0.57375  0.40911  1.0000
  C   C673      1.0  0.39718  0.60499  0.38293  1.0000
  C   C674      1.0  0.28217  0.63978  0.60542  1.0000
  H   H813      1.0  0.33331  0.62428  0.29696  1.0000
  C   C675      1.0  0.97357  0.48082  0.37839  1.0000
  C   C676      1.0  0.31969  0.66151  0.36150  1.0000
  S   S167      1.0  0.03388  0.54525  0.47498  1.0000
  C   C677      1.0  0.27119  0.63026  0.67403  1.0000
  H   H814      1.0  0.09264  0.49436  0.32363  1.0000
  H   H815      1.0  0.30906  0.55545  0.48870  1.0000
  C   C678      1.0  0.21883  0.61668  0.34130  1.0000
  H   H816      1.0  0.07059  0.57716  0.58224  1.0000
  C   C679      1.0  0.12630  0.63809  0.50155  1.0000
  H   H817      1.0  0.25737  0.61498  0.43830  1.0000
  C   C680      1.0  0.10686  0.48847  0.46175  1.0000
  H   H818      1.0  0.39251  0.46138  0.50941  1.0000
  H   H819      1.0  0.95833  0.51828  0.26779  1.0000
  S   S168      1.0  0.34128  0.64334  0.55599  1.0000
  Fe  Fe85      1.0  0.12827  0.58070  0.66688  1.0000
  Fe  Fe86      1.0  0.03864  0.66655  0.53304  1.0000
  H   H820      1.0  0.41493  0.57286  0.32393  1.0000
  H   H821      1.0  0.28625  0.51972  0.63254  1.0000
  H   H822      1.0  0.33692  0.52322  0.69760  1.0000
  Fe  Fe87      1.0  0.34173  0.60925  0.60331  1.0000
  S   S169      1.0  0.15484  0.60580  0.69499  1.0000
  H   H823      1.0  0.40785  0.44632  0.49911  1.0000
  C   C681      1.0  0.00760  0.57421  0.51729  1.0000
  H   H824      1.0  0.39171  0.59875  0.69208  1.0000
  H   H825      1.0  0.09243  0.62866  0.66408  1.0000
  H   H826      1.0  0.04284  0.47553  0.49017  1.0000
  S   S170      1.0  0.32719  0.57372  0.58848  1.0000
  C   C682      1.0  0.18933  0.44312  0.64239  1.0000
  C   C683      1.0  0.97304  0.61089  0.55000  1.0000
  C   C684      1.0  0.08743  0.53881  0.63982  1.0000
  C   C685      1.0  0.12062  0.56039  0.27426  1.0000
  H   H827      1.0  0.95551  0.56330  0.55800  1.0000
  C   C686      1.0  0.16707  0.49334  0.53649  1.0000
  S   S171      1.0  0.04933  0.65249  0.46410  1.0000
  S   S172      1.0  0.09939  0.58283  0.64895  1.0000
  C   C687      1.0  0.24148  0.62671  0.61385  1.0000
  C   C688      1.0  0.28819  0.57797  0.28028  1.0000
  N   N48       1.0  0.24443  0.55743  0.63555  1.0000
  H   H828      1.0  0.23270  0.51138  0.52045  1.0000
  S   S173      1.0  0.21910  0.55645  0.33959  1.0000
  S   S174      1.0  0.16233  0.52168  0.30456  1.0000
  H   H829      1.0  0.27884  0.56621  0.63632  1.0000
  H   H830      1.0  0.99373  0.62293  0.51290  1.0000
  C   C689      1.0  0.36440  0.57487  0.36640  1.0000
  C   C690      1.0  0.96956  0.57787  0.35194  1.0000
  H   H831      1.0  0.18607  0.44995  0.50181  1.0000
  H   H832      1.0  0.93579  0.64076  0.39174  1.0000
  H   H833      1.0  0.21046  0.60769  0.71229  1.0000
  C   C691      1.0  0.07156  0.51139  0.66242  1.0000
  C   C692      1.0  0.26151  0.54887  0.42749  1.0000
  C   C693      1.0  0.28794  0.57142  0.38424  1.0000
  S   S175      1.0  0.01231  0.67702  0.53435  1.0000
  C   C694      1.0  0.00027  0.56139  0.58451  1.0000
  H   H834      1.0  0.28862  0.43564  0.57421  1.0000
  C   C695      1.0  0.28597  0.60558  0.32445  1.0000
  C   C696      1.0  0.35420  0.47375  0.41519  1.0000
  C   C697      1.0  0.24400  0.59710  0.48735  1.0000
  H   H835      1.0  0.21069  0.58995  0.48344  1.0000
  H   H836      1.0  0.34607  0.56690  0.36921  1.0000
  C   C698      1.0  0.27289  0.57341  0.60247  1.0000
  Fe  Fe88      1.0  0.03800  0.51313  0.49544  1.0000
  H   H837      1.0  0.32002  0.48817  0.73188  1.0000
  C   C699      1.0  0.36559  0.55727  0.26523  1.0000
  H   H838      1.0  0.97828  0.47100  0.40932  1.0000
  C   C700      1.0  0.23030  0.61633  0.68271  1.0000
  C   C701      1.0  0.99342  0.65337  0.34562  1.0000
  C   C702      1.0  0.25310  0.58888  0.52589  1.0000
  C   C703      1.0  0.20855  0.57488  0.35138  1.0000
  S   S176      1.0  0.15576  0.57635  0.60625  1.0000
  C   C704      1.0  0.09814  0.65716  0.50350  1.0000
  C   C705      1.0  0.38315  0.43614  0.26380  1.0000
  H   H839      1.0  0.26342  0.51464  0.55689  1.0000
  Fe  Fe89      1.0  0.01701  0.53132  0.41581  1.0000
  Fe  Fe90      1.0  0.99408  0.51382  0.56309  1.0000
  S   S177      1.0  0.97669  0.50171  0.50293  1.0000
  H   H840      1.0  0.35073  0.56005  0.28035  1.0000
  S   S178      1.0  0.24785  0.66399  0.39180  1.0000
  C   C706      1.0  0.12898  0.49920  0.57825  1.0000
  S   S179      1.0  0.35652  0.65571  0.35821  1.0000
  H   H841      1.0  0.05560  0.43566  0.70231  1.0000
  S   S180      1.0  0.98076  0.52638  0.63205  1.0000
  C   C707      1.0  0.37923  0.53937  0.59297  1.0000
  H   H842      1.0  0.13765  0.63134  0.50301  1.0000
  H   H843      1.0  0.10855  0.57817  0.46715  1.0000
  S   S181      1.0  0.15580  0.47434  0.27387  1.0000
  H   H844      1.0  0.12914  0.60811  0.25889  1.0000
  C   C708      1.0  0.04644  0.49450  0.71669  1.0000
  H   H845      1.0  0.33548  0.47041  0.67289  1.0000
  H   H846      1.0  0.26696  0.56484  0.30298  1.0000
  H   H847      1.0  0.11295  0.57291  0.36850  1.0000
  H   H848      1.0  0.07899  0.50324  0.63877  1.0000
  H   H849      1.0  0.40581  0.60586  0.52937  1.0000
  S   S182      1.0  0.18292  0.62291  0.39463  1.0000
  C   C709      1.0  0.07879  0.50051  0.48501  1.0000
  C   C710      1.0  0.19261  0.60457  0.37582  1.0000
  H   H850      1.0  0.15307  0.47747  0.71827  1.0000
  S   S183      1.0  0.21209  0.45844  0.66500  1.0000
  N   N49       1.0  0.09426  0.44847  0.64918  1.0000
  Fe  Fe91      1.0  0.36176  0.63021  0.68598  1.0000
  C   C711      1.0  0.15493  0.52166  0.53759  1.0000
  S   S184      1.0  0.28951  0.63388  0.71269  1.0000
  C   C712      1.0  0.24693  0.50020  0.35708  1.0000
  C   C713      1.0  0.07183  0.57998  0.53373  1.0000
  C   C714      1.0  0.17436  0.57774  0.39630  1.0000
  H   H851      1.0  0.39486  0.44820  0.28104  1.0000
  H   H852      1.0  0.27581  0.64550  0.52234  1.0000
  H   H853      1.0  0.13531  0.61264  0.43143  1.0000
  H   H854      1.0  0.29248  0.66859  0.36125  1.0000
  H   H855      1.0  0.29166  0.61546  0.35311  1.0000
  H   H856      1.0  0.28261  0.59486  0.58732  1.0000
  C   C715      1.0  0.97954  0.43861  0.28123  1.0000
  Fe  Fe92      1.0  0.18550  0.47953  0.30120  1.0000
  H   H857      1.0  0.12481  0.53161  0.32705  1.0000
  H   H858      1.0  0.24706  0.61116  0.30525  1.0000
  S   S185      1.0  0.29466  0.52011  0.33460  1.0000
  H   H859      1.0  0.20794  0.66881  0.53091  1.0000
  H   H860      1.0  0.33473  0.60236  0.26923  1.0000
  H   H861      1.0  0.28087  0.57216  0.55777  1.0000
  H   H862      1.0  0.03458  0.61640  0.59554  1.0000
  C   C716      1.0  0.96229  0.61780  0.46340  1.0000
  S   S186      1.0  0.99911  0.48220  0.58834  1.0000
  C   C717      1.0  0.10162  0.50481  0.47625  1.0000
  C   C718      1.0  0.38107  0.56277  0.57810  1.0000
  C   C719      1.0  0.05245  0.53301  0.72219  1.0000
  C   C720      1.0  0.22579  0.47125  0.31728  1.0000
  H   H863      1.0  0.24736  0.54638  0.41341  1.0000
  H   H864      1.0  0.94091  0.53522  0.41751  1.0000
  H   H865      1.0  0.19402  0.53630  0.48481  1.0000
  Fe  Fe93      1.0  0.19195  0.52365  0.32794  1.0000
  S   S187      1.0  0.40576  0.47672  0.66185  1.0000
  Fe  Fe94      1.0  0.21883  0.66201  0.36452  1.0000
  H   H866      1.0  0.08694  0.66428  0.50503  1.0000
  H   H867      1.0  0.96912  0.59619  0.59642  1.0000
  C   C721      1.0  0.40278  0.54318  0.56818  1.0000
  C   C722      1.0  0.13129  0.65787  0.51851  1.0000
  H   H868      1.0  0.00238  0.63395  0.40709  1.0000
  C   C723      1.0  0.23567  0.55992  0.69489  1.0000
  C   C724      1.0  0.13166  0.57668  0.34578  1.0000
  H   H869      1.0  0.33474  0.52574  0.59517  1.0000
  S   S188      1.0  0.01485  0.63781  0.64266  1.0000
  C   C725      1.0  0.07792  0.54962  0.66980  1.0000
  C   C726      1.0  0.23575  0.56622  0.59180  1.0000
  C   C727      1.0  0.09619  0.51337  0.30251  1.0000
  C   C728      1.0  0.03176  0.61754  0.50912  1.0000
  C   C729      1.0  0.37869  0.56638  0.34298  1.0000
  C   C730      1.0  0.10640  0.62671  0.48667  1.0000
  S   S189      1.0  0.22407  0.62696  0.57412  1.0000
  H   H870      1.0  0.40490  0.55746  0.25422  1.0000
  C   C731      1.0  0.11528  0.59591  0.47354  1.0000
  Fe  Fe95      1.0  0.13918  0.47699  0.36313  1.0000
  S   S190      1.0  0.07401  0.52312  0.49443  1.0000
  H   H871      1.0  0.16030  0.54145  0.52299  1.0000
  H   H872      1.0  0.17001  0.66700  0.58052  1.0000
  C   C732      1.0  0.11703  0.66714  0.52034  1.0000
  C   C733      1.0  0.96122  0.55175  0.38475  1.0000
  C   C734      1.0  0.30836  0.54405  0.66576  1.0000
  C   C735      1.0  0.26730  0.63800  0.57542  1.0000
  H   H873      1.0  0.38860  0.53102  0.33919  1.0000
  H   H874      1.0  0.05200  0.44644  0.46525  1.0000
  C   C736      1.0  0.98744  0.51880  0.28145  1.0000
  C   C737      1.0  0.96182  0.50696  0.29928  1.0000
  C   C738      1.0  0.94119  0.48153  0.35763  1.0000
  C   C739      1.0  0.37356  0.59387  0.38614  1.0000
  H   H875      1.0  0.94116  0.57498  0.25531  1.0000
  H   H876      1.0  0.30226  0.64923  0.57516  1.0000
  N   N50       1.0  0.29691  0.59146  0.31716  1.0000
  H   H877      1.0  0.29418  0.56524  0.27892  1.0000
  C   C740      1.0  0.94388  0.62069  0.45681  1.0000
  C   C741      1.0  0.34166  0.66512  0.32220  1.0000
  Fe  Fe96      1.0  0.99009  0.65003  0.64498  1.0000
  S   S191      1.0  0.94801  0.61584  0.70332  1.0000
  H   H878      1.0  0.21432  0.54683  0.72589  1.0000
  H   H879      1.0  0.23306  0.63756  0.32326  1.0000
  C   C742      1.0  0.40517  0.44960  0.70186  1.0000
  S   S192      1.0  0.38146  0.63603  0.58559  1.0000
  C   C743      1.0  0.38577  0.53965  0.29876  1.0000
  H   H880      1.0  0.11574  0.59000  0.52032  1.0000
  H   H881      1.0  0.11642  0.62693  0.67261  1.0000
  S   S193      1.0  0.05145  0.66463  0.72654  1.0000
  H   H882      1.0  0.13689  0.45149  0.59391  1.0000
  H   H883      1.0  0.27887  0.47732  0.30493  1.0000
  H   H884      1.0  0.98004  0.58943  0.47369  1.0000
  N   N51       1.0  0.14058  0.58296  0.27584  1.0000
  C   C744      1.0  0.95019  0.63921  0.39605  1.0000
  S   S194      1.0  0.40526  0.47220  0.35745  1.0000
  C   C745      1.0  0.09295  0.63733  0.48674  1.0000
  H   H885      1.0  0.07770  0.62969  0.47579  1.0000
  H   H886      1.0  0.16387  0.57024  0.28040  1.0000
  C   C746      1.0  0.33862  0.51115  0.59940  1.0000
  C   C747      1.0  0.00025  0.46429  0.26181  1.0000
  H   H887      1.0  0.36245  0.60022  0.40370  1.0000
  H   H888      1.0  0.35036  0.50870  0.72654  1.0000
  C   C748      1.0  0.00964  0.57672  0.61303  1.0000
  C   C749      1.0  0.12133  0.47289  0.60127  1.0000
  H   H889      1.0  0.32822  0.52409  0.39284  1.0000
  S   S195      1.0  0.36195  0.66522  0.64849  1.0000
  C   C750      1.0  0.97922  0.54700  0.37477  1.0000
  C   C751      1.0  0.35500  0.49021  0.64316  1.0000
  N   N52       1.0  0.35367  0.51255  0.63301  1.0000
  Fe  Fe97      1.0  0.03913  0.67243  0.65287  1.0000
  C   C752      1.0  0.10385  0.63240  0.68935  1.0000
  S   S196      1.0  0.16427  0.56093  0.73338  1.0000
  C   C753      1.0  0.23307  0.52895  0.65840  1.0000
  H   H890      1.0  0.21197  0.51499  0.69436  1.0000
  S   S197      1.0  0.20267  0.45862  0.29370  1.0000
  C   C754      1.0  0.07582  0.45422  0.66688  1.0000
  H   H891      1.0  0.32946  0.46539  0.57000  1.0000
  Fe  Fe98      1.0  0.13718  0.53961  0.70153  1.0000
  H   H892      1.0  0.24293  0.58079  0.67944  1.0000
  C   C755      1.0  0.94049  0.65292  0.69999  1.0000
  H   H893      1.0  0.33178  0.45548  0.37420  1.0000
  H   H894      1.0  0.08007  0.46626  0.69194  1.0000
  H   H895      1.0  0.37751  0.55256  0.72974  1.0000
  H   H896      1.0  0.24183  0.52265  0.68371  1.0000
  C   C756      1.0  0.33961  0.50793  0.69996  1.0000
  C   C757      1.0  0.31209  0.54408  0.71940  1.0000
  H   H897      1.0  0.32788  0.56220  0.71254  1.0000
  H   H898      1.0  0.00161  0.45277  0.43063  1.0000
  C   C758      1.0  0.94785  0.46872  0.39684  1.0000
  S   S198      1.0  0.32209  0.60134  0.70666  1.0000
  C   C759      1.0  0.41677  0.44134  0.66664  1.0000
  C   C760      1.0  0.19754  0.45277  0.57452  1.0000
  H   H899      1.0  0.14074  0.65118  0.71175  1.0000
  Fe  Fe99      1.0  0.39853  0.48956  0.73676  1.0000
  S   S199      1.0  0.40379  0.52712  0.72320  1.0000
  C   C761      1.0  0.98693  0.43225  0.44653  1.0000
  C   C762      1.0  0.27289  0.49635  0.73622  1.0000
  H   H900      1.0  0.25949  0.66949  0.74225  1.0000
  S   S200      1.0  0.12832  0.50144  0.71026  1.0000
  H   H901      1.0  0.25790  0.47789  0.74224  1.0000
  H   H902      1.0  0.97962  0.66944  0.29323  1.0000
  C   C763      1.0  0.37572  0.58266  0.74181  1.0000
  H   H903      1.0  0.93364  0.44958  0.44252  1.0000
  S   S201      1.0  0.05518  0.43563  0.27826  1.0000
  H   H904      1.0  0.92721  0.45935  0.65108  1.0000
  H   H905      1.0  0.23242  0.67862  0.66790  1.0000
  H   H906      1.0  0.18118  0.60531  0.24324  1.0000
  C   C764      1.0  0.16519  0.58702  0.24808  1.0000
  H   H907      1.0  0.96289  0.92684  0.77470  1.0000
  C   C765      1.0  0.40118  0.74308  0.95276  1.0000
  H   H908      1.0  0.39347  0.69936  0.10165  1.0000
  C   C766      1.0  0.13857  0.90644  0.76530  1.0000
  H   H909      1.0  0.96138  0.86850  0.15770  1.0000
  C   C767      1.0  0.29133  0.86561  0.09062  1.0000
  C   C768      1.0  0.27446  0.74577  0.07633  1.0000
  H   H910      1.0  0.93765  0.81793  0.74417  1.0000
  H   H911      1.0  0.99208  0.84510  0.99187  1.0000
  H   H912      1.0  0.04530  0.72517  0.93276  1.0000
  C   C769      1.0  0.18401  0.85142  0.87371  1.0000
  H   H913      1.0  0.08323  0.88175  0.00148  1.0000
  N   N53       1.0  0.09570  0.91512  0.91297  1.0000
  C   C770      1.0  0.21669  0.91024  0.07009  1.0000
  H   H914      1.0  0.00113  0.76107  0.09024  1.0000
  C   C771      1.0  0.16614  0.86805  0.79624  1.0000
  H   H915      1.0  0.25730  0.79601  0.03351  1.0000
  H   H916      1.0  0.41656  0.83080  0.07692  1.0000
  H   H917      1.0  0.96281  0.80274  0.75031  1.0000
  H   H918      1.0  0.07472  0.68680  0.17108  1.0000
  H   H919      1.0  0.06545  0.79000  0.76421  1.0000
  H   H920      1.0  0.01570  0.86875  0.85653  1.0000
  H   H921      1.0  0.96570  0.79562  0.07647  1.0000
  H   H922      1.0  0.38194  0.82945  0.09775  1.0000
  C   C772      1.0  0.34154  0.68592  0.22295  1.0000
  H   H923      1.0  0.25448  0.79500  0.89875  1.0000
  H   H924      1.0  0.06653  0.75839  0.91738  1.0000
  C   C773      1.0  0.97645  0.84686  0.16917  1.0000
  C   C774      1.0  0.94769  0.77715  0.12281  1.0000
  H   H925      1.0  0.37621  0.81522  0.99087  1.0000
  H   H926      1.0  0.97139  0.70284  0.89501  1.0000
  H   H927      1.0  0.97873  0.68139  0.83156  1.0000
  H   H928      1.0  0.40477  0.83142  0.99542  1.0000
  H   H929      1.0  0.06983  0.91068  0.87635  1.0000
  H   H930      1.0  0.27945  0.68147  0.14618  1.0000
  H   H931      1.0  0.94978  0.68207  0.17359  1.0000
  C   C775      1.0  0.31300  0.80323  0.97672  1.0000
  C   C776      1.0  0.28855  0.69626  0.09475  1.0000
  S   S202      1.0  0.26581  0.90439  0.91159  1.0000
  C   C777      1.0  0.12423  0.69860  0.90358  1.0000
  S   S203      1.0  0.22870  0.90189  0.81523  1.0000
  H   H932      1.0  0.28753  0.68223  0.87226  1.0000
  H   H933      1.0  0.27527  0.75062  0.11611  1.0000
  S   S204      1.0  0.31191  0.88774  0.85790  1.0000
  H   H934      1.0  0.09777  0.77723  0.80713  1.0000
  C   C778      1.0  0.05811  0.70137  0.00724  1.0000
  C   C779      1.0  0.38662  0.72814  0.81437  1.0000
  H   H935      1.0  0.03355  0.74345  0.94332  1.0000
  H   H936      1.0  0.14828  0.81203  0.92081  1.0000
  C   C780      1.0  0.14121  0.76322  0.86795  1.0000
  S   S205      1.0  0.41449  0.88322  0.18954  1.0000
  S   S206      1.0  0.24060  0.85292  0.88839  1.0000
  H   H937      1.0  0.11469  0.86493  0.84052  1.0000
  H   H938      1.0  0.29370  0.80935  0.10137  1.0000
  C   C781      1.0  0.29787  0.85110  0.81455  1.0000
  H   H939      1.0  0.98174  0.90479  0.93243  1.0000
  C   C782      1.0  0.95167  0.80292  0.17793  1.0000
  S   S207      1.0  0.37439  0.83119  0.81681  1.0000
  C   C783      1.0  0.15637  0.80921  0.16799  1.0000
  C   C784      1.0  0.16007  0.83275  0.88281  1.0000
  H   H940      1.0  0.08122  0.74425  0.82040  1.0000
  H   H941      1.0  0.06500  0.89360  0.01490  1.0000
  C   C785      1.0  0.98109  0.75612  0.03576  1.0000
  C   C786      1.0  0.01141  0.87740  0.00996  1.0000
  S   S208      1.0  0.39830  0.69420  0.84464  1.0000
  H   H942      1.0  0.26575  0.74711  0.78879  1.0000
  C   C787      1.0  0.31180  0.73596  0.96416  1.0000
  C   C788      1.0  0.99900  0.77111  0.05160  1.0000
  C   C789      1.0  0.33028  0.83082  0.95067  1.0000
  C   C790      1.0  0.93758  0.81145  0.79020  1.0000
  S   S209      1.0  0.41170  0.81556  0.77090  1.0000
  H   H943      1.0  0.27713  0.82800  0.19825  1.0000
  N   N54       1.0  0.21418  0.80356  0.78005  1.0000
  C   C791      1.0  0.21618  0.81001  0.20541  1.0000
  Fe  Fe100     1.0  0.27153  0.87401  0.91057  1.0000
  C   C792      1.0  0.32121  0.84526  0.95546  1.0000
  S   S210      1.0  0.92802  0.87054  0.05164  1.0000
  H   H944      1.0  0.08972  0.86846  0.92518  1.0000
  C   C793      1.0  0.23363  0.82205  0.79177  1.0000
  H   H945      1.0  0.10633  0.77813  0.21951  1.0000
  H   H946      1.0  0.34987  0.75872  0.08315  1.0000
  H   H947      1.0  0.39294  0.80149  0.99070  1.0000
  C   C794      1.0  0.39245  0.75811  0.17012  1.0000
  C   C795      1.0  0.95367  0.79448  0.84988  1.0000
  H   H948      1.0  0.08235  0.87188  0.10463  1.0000
  H   H949      1.0  0.35008  0.69537  0.16929  1.0000
  C   C796      1.0  0.27034  0.75572  0.97861  1.0000
  C   C797      1.0  0.34117  0.87610  0.79524  1.0000
  H   H950      1.0  0.32106  0.79315  0.96922  1.0000
  H   H951      1.0  0.35630  0.89140  0.79791  1.0000
  H   H952      1.0  0.39124  0.76010  0.00735  1.0000
  C   C798      1.0  0.09600  0.71281  0.77818  1.0000
  C   C799      1.0  0.19009  0.88680  0.78712  1.0000
  H   H953      1.0  0.19074  0.84489  0.90407  1.0000
  H   H954      1.0  0.96522  0.78798  0.85136  1.0000
  H   H955      1.0  0.09978  0.71038  0.81872  1.0000
  H   H956      1.0  0.26671  0.76709  0.94562  1.0000
  C   C800      1.0  0.01079  0.81201  0.96907  1.0000
  H   H957      1.0  0.18141  0.71708  0.00205  1.0000
  C   C801      1.0  0.16700  0.90624  0.92047  1.0000
  S   S211      1.0  0.20360  0.85472  0.00424  1.0000
  C   C802      1.0  0.41548  0.77944  0.15860  1.0000
  H   H958      1.0  0.27936  0.84683  0.83263  1.0000
  C   C803      1.0  0.01101  0.72850  0.86931  1.0000
  C   C804      1.0  0.99467  0.69702  0.83154  1.0000
  Fe  Fe101     1.0  0.23342  0.88170  0.89502  1.0000
  C   C805      1.0  0.08318  0.92488  0.88708  1.0000
  C   C806      1.0  0.18058  0.78777  0.89472  1.0000
  C   C807      1.0  0.10877  0.70403  0.08054  1.0000
  C   C808      1.0  0.18163  0.90076  0.94034  1.0000
  H   H959      1.0  0.20673  0.89677  0.05423  1.0000
  Fe  Fe102     1.0  0.21348  0.82762  0.99949  1.0000
  S   S212      1.0  0.24231  0.69278  0.93560  1.0000
  C   C809      1.0  0.07519  0.89010  0.97855  1.0000
  H   H960      1.0  0.92954  0.90124  0.74955  1.0000
  Fe  Fe103     1.0  0.21794  0.70581  0.94947  1.0000
  H   H961      1.0  0.24520  0.71747  0.75016  1.0000
  H   H962      1.0  0.15047  0.77304  0.99066  1.0000
  H   H963      1.0  0.96853  0.77683  0.23306  1.0000
  S   S213      1.0  0.12105  0.81704  0.85711  1.0000
  C   C810      1.0  0.05460  0.71190  0.04832  1.0000
  S   S214      1.0  0.05310  0.77828  0.14738  1.0000
  H   H964      1.0  0.19473  0.79678  0.90859  1.0000
  H   H965      1.0  0.15686  0.91820  0.08379  1.0000
  H   H966      1.0  0.02210  0.83359  0.94372  1.0000
  S   S215      1.0  0.12257  0.82877  0.11691  1.0000
  H   H967      1.0  0.33465  0.86678  0.93352  1.0000
  Fe  Fe104     1.0  0.05531  0.80033  0.05401  1.0000
  S   S216      1.0  0.09818  0.82911  0.99551  1.0000
  S   S217      1.0  0.41716  0.71897  0.18534  1.0000
  H   H968      1.0  0.38293  0.73248  0.95451  1.0000
  C   C811      1.0  0.03968  0.72387  0.79902  1.0000
  C   C812      1.0  0.15134  0.84093  0.84323  1.0000
  C   C813      1.0  0.28184  0.83968  0.22215  1.0000
  C   C814      1.0  0.15498  0.77395  0.94289  1.0000
  H   H969      1.0  0.33780  0.89425  0.08059  1.0000
  S   S218      1.0  0.96328  0.85478  0.93806  1.0000
  H   H970      1.0  0.15373  0.69646  0.95194  1.0000
  H   H971      1.0  0.96948  0.73452  0.06185  1.0000
  C   C815      1.0  0.01580  0.90089  0.00579  1.0000
  C   C816      1.0  0.27392  0.69407  0.06409  1.0000
  H   H972      1.0  0.23276  0.81118  0.83759  1.0000
  C   C817      1.0  0.12162  0.85532  0.10782  1.0000
  H   H973      1.0  0.31487  0.69817  0.92085  1.0000
  H   H974      1.0  0.00682  0.73697  0.89859  1.0000
  N   N55       1.0  0.94770  0.77828  0.18294  1.0000
  C   C818      1.0  0.95240  0.69868  0.78311  1.0000
  H   H975      1.0  0.25640  0.73423  0.99513  1.0000
  C   C819      1.0  0.99058  0.70898  0.86755  1.0000
  S   S219      1.0  0.36248  0.85896  0.14084  1.0000
  C   C820      1.0  0.23028  0.90634  0.09894  1.0000
  C   C821      1.0  0.27655  0.74305  0.75806  1.0000
  C   C822      1.0  0.07820  0.69024  0.77824  1.0000
  H   H976      1.0  0.02518  0.85420  0.81403  1.0000
  H   H977      1.0  0.10817  0.69936  0.90749  1.0000
  H   H978      1.0  0.38584  0.73783  0.19692  1.0000
  H   H979      1.0  0.94210  0.86347  0.79619  1.0000
  H   H980      1.0  0.41550  0.72771  0.90081  1.0000
  S   S220      1.0  0.03528  0.81767  0.04004  1.0000
  H   H981      1.0  0.20491  0.78440  0.16420  1.0000
  C   C823      1.0  0.19903  0.87845  0.82584  1.0000
  C   C824      1.0  0.10018  0.85293  0.10951  1.0000
  H   H982      1.0  0.99323  0.86275  0.16618  1.0000
  H   H983      1.0  0.08416  0.83463  0.11771  1.0000
  C   C825      1.0  0.01920  0.70462  0.79697  1.0000
  H   H984      1.0  0.12441  0.92908  0.94142  1.0000
  H   H985      1.0  0.27480  0.71272  0.97497  1.0000
  S   S221      1.0  0.93746  0.88710  0.23371  1.0000
  C   C826      1.0  0.94059  0.79496  0.90449  1.0000
  H   H986      1.0  0.99006  0.87782  0.77794  1.0000
  H   H987      1.0  0.26004  0.72361  0.10102  1.0000
  C   C827      1.0  0.28594  0.78918  0.00976  1.0000
  H   H988      1.0  0.08907  0.77101  0.74788  1.0000
  C   C828      1.0  0.14123  0.90020  0.08992  1.0000
  C   C829      1.0  0.40920  0.81023  0.10277  1.0000
  H   H989      1.0  0.17549  0.81368  0.15024  1.0000
  C   C830      1.0  0.31588  0.80888  0.23048  1.0000
  C   C831      1.0  0.27737  0.80467  0.01200  1.0000
  H   H990      1.0  0.98938  0.70830  0.06423  1.0000
  Fe  Fe105     1.0  0.09626  0.80538  0.08569  1.0000
  C   C832      1.0  0.11014  0.91159  0.86341  1.0000
  H   H991      1.0  0.27017  0.84937  0.12015  1.0000
  C   C833      1.0  0.38577  0.78900  0.11291  1.0000
  H   H992      1.0  0.05794  0.72815  0.77250  1.0000
  S   S222      1.0  0.02952  0.70792  0.16597  1.0000
  C   C834      1.0  0.32607  0.84145  0.76603  1.0000
  H   H993      1.0  0.06025  0.87458  0.97387  1.0000
  C   C835      1.0  0.31495  0.71796  0.05927  1.0000
  C   C836      1.0  0.28704  0.89534  0.12005  1.0000
  H   H994      1.0  0.93545  0.92545  0.15343  1.0000
  H   H995      1.0  0.17287  0.88032  0.97529  1.0000
  H   H996      1.0  0.02233  0.69494  0.77001  1.0000
  Fe  Fe106     1.0  0.93345  0.86046  0.97072  1.0000
  C   C837      1.0  0.31711  0.87053  0.81958  1.0000
  H   H997      1.0  0.15872  0.87474  0.76885  1.0000
  C   C838      1.0  0.93746  0.83048  0.16571  1.0000
  C   C839      1.0  0.32784  0.90333  0.07885  1.0000
  C   C840      1.0  0.98517  0.90550  0.21799  1.0000
  N   N56       1.0  0.26799  0.76006  0.03594  1.0000
  C   C841      1.0  0.95859  0.85026  0.16419  1.0000
  C   C842      1.0  0.10480  0.88655  0.87731  1.0000
  C   C843      1.0  0.11897  0.88418  0.82876  1.0000
  H   H998      1.0  0.01942  0.86959  0.03228  1.0000
  H   H999      1.0  0.33536  0.91808  0.09535  1.0000
  H   H1000     1.0  0.30626  0.90108  0.20702  1.0000
  H   H1001     1.0  0.98911  0.90198  0.17672  1.0000
  H   H1002     1.0  0.23114  0.83709  0.79509  1.0000
  H   H1003     1.0  0.22025  0.82663  0.16544  1.0000
  H   H1004     1.0  0.06709  0.73328  0.02814  1.0000
  N   N57       1.0  0.13740  0.78641  0.23773  1.0000
  H   H1005     1.0  0.14688  0.89016  0.94074  1.0000
  H   H1006     1.0  0.07337  0.71467  0.95541  1.0000
  C   C844      1.0  0.30250  0.83688  0.78681  1.0000
  H   H1007     1.0  0.35086  0.84123  0.92500  1.0000
  C   C845      1.0  0.93446  0.71417  0.86787  1.0000
  C   C846      1.0  0.16670  0.77643  0.82003  1.0000
  C   C847      1.0  0.38698  0.81149  0.01289  1.0000
  C   C848      1.0  0.29784  0.88017  0.22778  1.0000
  C   C849      1.0  0.08299  0.68434  0.13063  1.0000
  C   C850      1.0  0.13535  0.76197  0.92929  1.0000
  S   S223      1.0  0.20039  0.68583  0.05998  1.0000
  H   H1008     1.0  0.36040  0.74522  0.15739  1.0000
  H   H1009     1.0  0.28752  0.82171  0.78346  1.0000
  H   H1010     1.0  0.28805  0.84377  0.98693  1.0000
  C   C851      1.0  0.95224  0.80277  0.79292  1.0000
  C   C852      1.0  0.32353  0.83173  0.12021  1.0000
  H   H1011     1.0  0.37402  0.71823  0.86763  1.0000
  Fe  Fe107     1.0  0.37112  0.79403  0.84794  1.0000
  C   C853      1.0  0.97334  0.82370  0.17520  1.0000
  C   C854      1.0  0.41080  0.68749  0.04318  1.0000
  S   S224      1.0  0.24508  0.84620  0.02105  1.0000
  H   H1012     1.0  0.23507  0.80830  0.96745  1.0000
  Fe  Fe108     1.0  0.23662  0.87464  0.02037  1.0000
  C   C855      1.0  0.97768  0.68668  0.09197  1.0000
  H   H1013     1.0  0.12311  0.90643  0.20501  1.0000
  C   C856      1.0  0.29487  0.83224  0.98557  1.0000
  H   H1014     1.0  0.32631  0.71923  0.08249  1.0000
  C   C857      1.0  0.28579  0.71389  0.99858  1.0000
  C   C858      1.0  0.11928  0.70099  0.02784  1.0000
  C   C859      1.0  0.36465  0.80939  0.11388  1.0000
  Fe  Fe109     1.0  0.09601  0.79964  0.96561  1.0000
  C   C860      1.0  0.99341  0.79708  0.95195  1.0000
  H   H1015     1.0  0.10332  0.86020  0.22054  1.0000
  C   C861      1.0  0.19682  0.77086  0.02114  1.0000
  H   H1016     1.0  0.32021  0.75173  0.91518  1.0000
  S   S225      1.0  0.25570  0.75794  0.21806  1.0000
  C   C862      1.0  0.22315  0.78862  0.97425  1.0000
  C   C863      1.0  0.20758  0.92137  0.91471  1.0000
  S   S226      1.0  0.05314  0.77236  0.01751  1.0000
  C   C864      1.0  0.23418  0.78109  0.93544  1.0000
  H   H1017     1.0  0.13937  0.71683  0.99014  1.0000
  H   H1018     1.0  0.92772  0.72007  0.90161  1.0000
  S   S227      1.0  0.18321  0.78295  0.05957  1.0000
  S   S228      1.0  0.09802  0.77815  0.05068  1.0000
  C   C865      1.0  0.21745  0.78308  0.78064  1.0000
  C   C866      1.0  0.21911  0.75559  0.94430  1.0000
  S   S229      1.0  0.03455  0.91811  0.03562  1.0000
  C   C867      1.0  0.01366  0.79903  0.01862  1.0000
  H   H1019     1.0  0.17002  0.77593  0.77433  1.0000
  S   S230      1.0  0.35550  0.78207  0.78403  1.0000
  S   S231      1.0  0.95613  0.75093  0.96548  1.0000
  H   H1020     1.0  0.07736  0.79713  0.81839  1.0000
  C   C868      1.0  0.18731  0.78979  0.83120  1.0000
  C   C869      1.0  0.03485  0.69477  0.11532  1.0000
  C   C870      1.0  0.08232  0.76237  0.80218  1.0000
  H   H1021     1.0  0.98835  0.82281  0.17672  1.0000
  C   C871      1.0  0.00538  0.91089  0.97693  1.0000
  H   H1022     1.0  0.35285  0.81312  0.09676  1.0000
  H   H1023     1.0  0.13123  0.69686  0.85901  1.0000
  H   H1024     1.0  0.21197  0.76962  0.83140  1.0000
  C   C872      1.0  0.24259  0.92332  0.12090  1.0000
  H   H1025     1.0  0.14037  0.71817  0.89307  1.0000
  H   H1026     1.0  0.33395  0.91485  0.02570  1.0000
  H   H1027     1.0  0.15577  0.91328  0.22223  1.0000
  H   H1028     1.0  0.04392  0.77942  0.84743  1.0000
  H   H1029     1.0  0.15874  0.82765  0.16255  1.0000
  C   C873      1.0  0.05026  0.74532  0.91170  1.0000
  C   C874      1.0  0.01007  0.89452  0.76157  1.0000
  S   S232      1.0  0.93042  0.88950  0.90860  1.0000
  C   C875      1.0  0.06106  0.78170  0.81674  1.0000
  H   H1030     1.0  0.00834  0.90036  0.80048  1.0000
  H   H1031     1.0  0.33586  0.84909  0.07048  1.0000
  C   C876      1.0  0.99609  0.86363  0.98674  1.0000
  H   H1032     1.0  0.23809  0.75183  0.12118  1.0000
  H   H1033     1.0  0.12063  0.72174  0.08264  1.0000
  H   H1034     1.0  0.26595  0.88043  0.15673  1.0000
  S   S233      1.0  0.35846  0.76702  0.95252  1.0000
  H   H1035     1.0  0.29616  0.87757  0.03914  1.0000
  N   N58       1.0  0.37109  0.79470  0.08679  1.0000
  C   C877      1.0  0.98501  0.87326  0.95984  1.0000
  S   S234      1.0  0.23323  0.88110  0.10687  1.0000
  H   H1036     1.0  0.96629  0.75436  0.79128  1.0000
  C   C878      1.0  0.28421  0.78645  0.20052  1.0000
  H   H1037     1.0  0.28998  0.76273  0.94661  1.0000
  H   H1038     1.0  0.23304  0.75466  0.05100  1.0000
  C   C879      1.0  0.29275  0.86718  0.19050  1.0000
  H   H1039     1.0  0.11559  0.75168  0.96647  1.0000
  H   H1040     1.0  0.12590  0.75375  0.85751  1.0000
  N   N59       1.0  0.05722  0.75614  0.84087  1.0000
  H   H1041     1.0  0.33581  0.77503  0.08415  1.0000
  S   S235      1.0  0.23364  0.74799  0.89118  1.0000
  Fe  Fe110     1.0  0.05487  0.75265  0.10553  1.0000
  C   C880      1.0  0.20734  0.78615  0.20527  1.0000
  C   C881      1.0  0.24059  0.74764  0.07942  1.0000
  C   C882      1.0  0.98999  0.89709  0.95405  1.0000
  H   H1042     1.0  0.23783  0.79231  0.74655  1.0000
  H   H1043     1.0  0.00865  0.92896  0.97373  1.0000
  H   H1044     1.0  0.29326  0.75081  0.04635  1.0000
  C   C883      1.0  0.18182  0.74479  0.03255  1.0000
  C   C884      1.0  0.11989  0.89788  0.09075  1.0000
  Fe  Fe111     1.0  0.37346  0.85358  0.21901  1.0000
  H   H1045     1.0  0.99112  0.80706  0.91378  1.0000
  H   H1046     1.0  0.31068  0.76817  0.75956  1.0000
  C   C885      1.0  0.09918  0.87404  0.10190  1.0000
  C   C886      1.0  0.42373  0.80542  0.12556  1.0000
  C   C887      1.0  0.34647  0.77023  0.10439  1.0000
  H   H1047     1.0  0.13013  0.75932  0.19962  1.0000
  H   H1048     1.0  0.16153  0.73082  0.06980  1.0000
  N   N60       1.0  0.29949  0.88239  0.12124  1.0000
  H   H1049     1.0  0.19015  0.91222  0.22324  1.0000
  C   C888      1.0  0.14198  0.87882  0.09907  1.0000
  H   H1050     1.0  0.15846  0.88063  0.09853  1.0000
  H   H1051     1.0  0.15013  0.80492  0.13252  1.0000
  C   C889      1.0  0.38988  0.75004  0.77049  1.0000
  C   C890      1.0  0.37782  0.76268  0.14742  1.0000
  H   H1052     1.0  0.95862  0.69122  0.75387  1.0000
  C   C891      1.0  0.29976  0.80927  0.13741  1.0000
  C   C892      1.0  0.40030  0.71969  0.78951  1.0000
  H   H1053     1.0  0.21825  0.91590  0.93019  1.0000
  H   H1054     1.0  0.30121  0.85656  0.08585  1.0000
  C   C893      1.0  0.97842  0.76916  0.98575  1.0000
  C   C894      1.0  0.93392  0.80714  0.17298  1.0000
  C   C895      1.0  0.96589  0.72652  0.75947  1.0000
  C   C896      1.0  0.19304  0.73707  0.99420  1.0000
  C   C897      1.0  0.03622  0.73648  0.83531  1.0000
  C   C898      1.0  0.40593  0.75866  0.98267  1.0000
  C   C899      1.0  0.96788  0.77679  0.18787  1.0000
  H   H1055     1.0  0.37967  0.75681  0.79005  1.0000
  C   C900      1.0  0.32645  0.73814  0.99438  1.0000
  H   H1056     1.0  0.98720  0.79383  0.14326  1.0000
  H   H1057     1.0  0.33331  0.75678  0.15941  1.0000
  C   C901      1.0  0.95652  0.73365  0.80448  1.0000
  H   H1058     1.0  0.22781  0.72547  0.10228  1.0000
  H   H1059     1.0  0.35348  0.79793  0.16946  1.0000
  C   C902      1.0  0.33170  0.83145  0.16653  1.0000
  S   S236      1.0  0.30932  0.69727  0.21998  1.0000
  C   C903      1.0  0.01519  0.86313  0.81760  1.0000
  H   H1060     1.0  0.94614  0.75971  0.12248  1.0000
  H   H1061     1.0  0.00259  0.68511  0.01950  1.0000
  H   H1062     1.0  0.96458  0.75824  0.19072  1.0000
  C   C904      1.0  0.14430  0.93120  0.75032  1.0000
  H   H1063     1.0  0.20141  0.90782  0.75120  1.0000
  H   H1064     1.0  0.99459  0.84705  0.83657  1.0000
  C   C905      1.0  0.34556  0.86143  0.76913  1.0000
  H   H1065     1.0  0.94201  0.78882  0.94859  1.0000
  H   H1066     1.0  0.18123  0.83247  0.21725  1.0000
  C   C906      1.0  0.39050  0.68693  0.07936  1.0000
  H   H1067     1.0  0.93130  0.77525  0.11920  1.0000
  H   H1068     1.0  0.01889  0.91320  0.22065  1.0000
  H   H1069     1.0  0.20554  0.77036  0.76461  1.0000
  H   H1070     1.0  0.15262  0.76527  0.22761  1.0000
  Fe  Fe112     1.0  0.36152  0.82086  0.74727  1.0000
  H   H1071     1.0  0.07190  0.92749  0.92332  1.0000
  H   H1072     1.0  0.29498  0.91146  0.13221  1.0000
  H   H1073     1.0  0.28949  0.90483  0.07011  1.0000
  N   N61       1.0  0.02706  0.88675  0.75313  1.0000
  H   H1074     1.0  0.25370  0.83326  0.75091  1.0000
  C   C907      1.0  0.41969  0.74068  0.92184  1.0000
  S   S237      1.0  0.11826  0.92410  0.07995  1.0000
  H   H1075     1.0  0.25298  0.92024  0.14348  1.0000
  H   H1076     1.0  0.36411  0.86572  0.75103  1.0000
  C   C908      1.0  0.13451  0.76265  0.23837  1.0000
  C   C909      1.0  0.00222  0.91224  0.24216  1.0000
  C   C910      1.0  0.07348  0.69326  0.72537  1.0000
  S   S238      1.0  0.20829  0.92337  0.32783  1.0000
  H   H1077     1.0  0.92653  0.78050  0.70125  1.0000
  C   C911      1.0  0.40916  0.74338  0.33210  1.0000
  C   C912      1.0  0.95369  0.77470  0.53944  1.0000
  H   H1078     1.0  0.38720  0.77874  0.30721  1.0000
  H   H1079     1.0  0.26912  0.80560  0.30911  1.0000
  C   C913      1.0  0.05365  0.90832  0.73341  1.0000
  H   H1080     1.0  0.12363  0.75947  0.45411  1.0000
  S   S239      1.0  0.37056  0.81797  0.27479  1.0000
  C   C914      1.0  0.23361  0.92414  0.49773  1.0000
  C   C915      1.0  0.96829  0.92506  0.73112  1.0000
  C   C916      1.0  0.23664  0.72545  0.54014  1.0000
  S   S240      1.0  0.26150  0.71052  0.47495  1.0000
  C   C917      1.0  0.21761  0.91922  0.55854  1.0000
  C   C918      1.0  0.31425  0.70309  0.43970  1.0000
  C   C919      1.0  0.20147  0.76448  0.25795  1.0000
  H   H1081     1.0  0.98321  0.77758  0.68064  1.0000
  H   H1082     1.0  0.05989  0.73761  0.60842  1.0000
  C   C920      1.0  0.27683  0.82634  0.28653  1.0000
  C   C921      1.0  0.06129  0.76792  0.54039  1.0000
  H   H1083     1.0  0.33499  0.72745  0.30689  1.0000
  C   C922      1.0  0.40925  0.76518  0.30952  1.0000
  C   C923      1.0  0.28260  0.80806  0.50468  1.0000
  C   C924      1.0  0.10501  0.74144  0.67132  1.0000
  C   C925      1.0  0.16545  0.86993  0.29116  1.0000
  C   C926      1.0  0.07664  0.77287  0.61726  1.0000
  C   C927      1.0  0.14506  0.79126  0.28640  1.0000
  H   H1084     1.0  0.34943  0.89632  0.45664  1.0000
  H   H1085     1.0  0.16741  0.71827  0.47692  1.0000
  S   S241      1.0  0.20810  0.81731  0.56326  1.0000
  C   C928      1.0  0.21520  0.72444  0.56794  1.0000
  H   H1086     1.0  0.08014  0.76497  0.65520  1.0000
  H   H1087     1.0  0.06405  0.80111  0.48120  1.0000
  S   S242      1.0  0.22187  0.83376  0.37999  1.0000
  H   H1088     1.0  0.14930  0.90462  0.72719  1.0000
  H   H1089     1.0  0.28933  0.68852  0.66592  1.0000
  C   C929      1.0  0.08662  0.71888  0.67233  1.0000
  H   H1090     1.0  0.37344  0.85709  0.49293  1.0000
  H   H1091     1.0  0.11160  0.92051  0.69391  1.0000
  C   C930      1.0  0.20996  0.68435  0.54125  1.0000
  H   H1092     1.0  0.13439  0.80827  0.65298  1.0000
  H   H1093     1.0  0.32205  0.80870  0.26662  1.0000
  C   C931      1.0  0.95086  0.84252  0.35013  1.0000
  Fe  Fe113     1.0  0.39769  0.88302  0.28380  1.0000
  H   H1094     1.0  0.01114  0.75305  0.59751  1.0000
  C   C932      1.0  0.14024  0.84616  0.33015  1.0000
  H   H1095     1.0  0.96432  0.75704  0.48768  1.0000
  C   C933      1.0  0.35161  0.88038  0.46473  1.0000
  C   C934      1.0  0.22005  0.81986  0.71253  1.0000
  C   C935      1.0  0.26500  0.72607  0.73508  1.0000
  N   N62       1.0  0.35394  0.87230  0.52461  1.0000
  S   S243      1.0  0.35682  0.85553  0.30970  1.0000
  H   H1096     1.0  0.27808  0.82921  0.37146  1.0000
  S   S244      1.0  0.28398  0.72892  0.29580  1.0000
  H   H1097     1.0  0.01734  0.91142  0.71380  1.0000
  H   H1098     1.0  0.07241  0.83590  0.39758  1.0000
  H   H1099     1.0  0.93366  0.75948  0.73828  1.0000
  H   H1100     1.0  0.31858  0.74489  0.43613  1.0000
  Fe  Fe114     1.0  0.94685  0.87291  0.58589  1.0000
  Fe  Fe115     1.0  0.25193  0.72246  0.27895  1.0000
  C   C936      1.0  0.32030  0.68345  0.26171  1.0000
  S   S245      1.0  0.22345  0.78521  0.50296  1.0000
  N   N63       1.0  0.33752  0.73126  0.39008  1.0000
  C   C937      1.0  0.40696  0.79489  0.48727  1.0000
  H   H1101     1.0  0.03756  0.89667  0.65154  1.0000
  C   C938      1.0  0.95217  0.75359  0.53478  1.0000
  H   H1102     1.0  0.29621  0.87676  0.32026  1.0000
  C   C939      1.0  0.41661  0.73259  0.72066  1.0000
  H   H1103     1.0  0.09343  0.86652  0.39367  1.0000
  H   H1104     1.0  0.96710  0.79466  0.49587  1.0000
  C   C940      1.0  0.06928  0.88387  0.46342  1.0000
  H   H1105     1.0  0.11116  0.75217  0.37310  1.0000
  H   H1106     1.0  0.03778  0.87029  0.69614  1.0000
  C   C941      1.0  0.99465  0.73675  0.64900  1.0000
  C   C942      1.0  0.26925  0.68149  0.68701  1.0000
  H   H1107     1.0  0.15050  0.81094  0.73792  1.0000
  Fe  Fe116     1.0  0.22309  0.79463  0.58459  1.0000
  H   H1108     1.0  0.23481  0.75678  0.33971  1.0000
  H   H1109     1.0  0.36779  0.77574  0.50354  1.0000
  H   H1110     1.0  0.94000  0.90373  0.32787  1.0000
  H   H1111     1.0  0.02671  0.82662  0.61564  1.0000
  C   C943      1.0  0.98259  0.92179  0.61608  1.0000
  H   H1112     1.0  0.13940  0.85562  0.64997  1.0000
  H   H1113     1.0  0.93854  0.78686  0.59983  1.0000
  S   S246      1.0  0.24721  0.69078  0.25496  1.0000
  H   H1114     1.0  0.12388  0.82363  0.71819  1.0000
  S   S247      1.0  0.93296  0.88813  0.64584  1.0000
  H   H1115     1.0  0.35292  0.83983  0.58229  1.0000
  C   C944      1.0  0.40478  0.90916  0.56664  1.0000
  H   H1116     1.0  0.02926  0.77930  0.64724  1.0000
  C   C945      1.0  0.42389  0.83530  0.49643  1.0000
  H   H1117     1.0  0.31661  0.73018  0.64714  1.0000
  H   H1118     1.0  0.21254  0.73251  0.42700  1.0000
  C   C946      1.0  0.95665  0.90858  0.65980  1.0000
  C   C947      1.0  0.41996  0.75453  0.67685  1.0000
  H   H1119     1.0  0.96991  0.91590  0.36931  1.0000
  H   H1120     1.0  0.21486  0.83330  0.71250  1.0000
  H   H1121     1.0  0.32916  0.87880  0.57947  1.0000
  Fe  Fe117     1.0  0.27629  0.69431  0.28331  1.0000
  S   S248      1.0  0.06510  0.70085  0.54237  1.0000
  H   H1122     1.0  0.24017  0.90680  0.43911  1.0000
  C   C948      1.0  0.11996  0.84619  0.33117  1.0000
  S   S249      1.0  0.32948  0.78802  0.46896  1.0000
  H   H1123     1.0  0.19483  0.74665  0.25456  1.0000
  H   H1124     1.0  0.07383  0.85377  0.26913  1.0000
  H   H1125     1.0  0.41279  0.88695  0.38634  1.0000
  C   C949      1.0  0.39413  0.92094  0.46476  1.0000
  C   C950      1.0  0.21148  0.89803  0.34426  1.0000
  H   H1126     1.0  0.15367  0.83811  0.57396  1.0000
  H   H1127     1.0  0.09308  0.89596  0.26389  1.0000
  N   N64       1.0  0.41036  0.77553  0.47757  1.0000
  S   S250      1.0  0.22128  0.69358  0.38633  1.0000
  C   C951      1.0  0.17465  0.73612  0.43149  1.0000
  H   H1128     1.0  0.00028  0.72449  0.66857  1.0000
  C   C952      1.0  0.21763  0.85824  0.36813  1.0000
  S   S251      1.0  0.98676  0.88565  0.53353  1.0000
  C   C953      1.0  0.08349  0.85785  0.36849  1.0000
  C   C954      1.0  0.37693  0.89424  0.51970  1.0000
  H   H1129     1.0  0.07352  0.86053  0.53344  1.0000
  H   H1130     1.0  0.06902  0.86131  0.37341  1.0000
  H   H1131     1.0  0.17770  0.87016  0.44263  1.0000
  H   H1132     1.0  0.24090  0.83273  0.67461  1.0000
  C   C955      1.0  0.08935  0.85311  0.27156  1.0000
  H   H1133     1.0  0.31206  0.68974  0.41904  1.0000
  H   H1134     1.0  0.20229  0.72267  0.32295  1.0000
  Fe  Fe118     1.0  0.18312  0.74788  0.57986  1.0000
  N   N65       1.0  0.16369  0.84396  0.64734  1.0000
  H   H1135     1.0  0.36331  0.80710  0.52457  1.0000
  H   H1136     1.0  0.18348  0.83518  0.46442  1.0000
  H   H1137     1.0  0.01210  0.86657  0.48084  1.0000
  C   C956      1.0  0.07946  0.80890  0.54444  1.0000
  C   C957      1.0  0.05183  0.88498  0.44782  1.0000
  C   C958      1.0  0.23482  0.88222  0.30669  1.0000
  C   C959      1.0  0.28236  0.79009  0.60674  1.0000
  C   C960      1.0  0.10997  0.89681  0.25939  1.0000
  Fe  Fe119     1.0  0.25324  0.69843  0.40258  1.0000
  H   H1138     1.0  0.33864  0.74202  0.46538  1.0000
  H   H1139     1.0  0.30320  0.72990  0.57099  1.0000
  Fe  Fe120     1.0  0.41392  0.85184  0.73362  1.0000
  H   H1140     1.0  0.18066  0.75248  0.44324  1.0000
  S   S252      1.0  0.96309  0.84128  0.48743  1.0000
  S   S253      1.0  0.16657  0.70650  0.59768  1.0000
  H   H1141     1.0  0.30521  0.77670  0.60270  1.0000
  C   C961      1.0  0.36191  0.73504  0.37026  1.0000
  C   C962      1.0  0.23194  0.90222  0.29514  1.0000
  C   C963      1.0  0.13616  0.77506  0.40187  1.0000
  H   H1142     1.0  0.09652  0.76335  0.30584  1.0000
  N   N66       1.0  0.19607  0.74308  0.37231  1.0000
  H   H1143     1.0  0.27974  0.76907  0.29722  1.0000
  C   C964      1.0  0.12433  0.87022  0.29358  1.0000
  C   C965      1.0  0.20420  0.76617  0.31274  1.0000
  N   N67       1.0  0.10233  0.86978  0.29776  1.0000
  C   C966      1.0  0.28231  0.71966  0.59275  1.0000
  S   S254      1.0  0.33069  0.82180  0.73709  1.0000
  H   H1144     1.0  0.08413  0.82838  0.52799  1.0000
  H   H1145     1.0  0.11590  0.76123  0.62905  1.0000
  C   C967      1.0  0.33693  0.74760  0.42047  1.0000
  C   C968      1.0  0.36259  0.71323  0.39108  1.0000
  C   C969      1.0  0.01175  0.76300  0.69723  1.0000
  H   H1146     1.0  0.21008  0.80740  0.69320  1.0000
  H   H1147     1.0  0.25538  0.74219  0.52701  1.0000
  H   H1148     1.0  0.40908  0.90459  0.60586  1.0000
  H   H1149     1.0  0.31750  0.73769  0.34362  1.0000
  C   C970      1.0  0.98485  0.76613  0.65648  1.0000
  C   C971      1.0  0.27893  0.72079  0.69382  1.0000
  H   H1150     1.0  0.38257  0.75919  0.44770  1.0000
  H   H1151     1.0  0.11387  0.79879  0.25616  1.0000
  C   C972      1.0  0.15909  0.79908  0.38176  1.0000
  C   C973      1.0  0.38732  0.75244  0.48530  1.0000
  C   C974      1.0  0.28203  0.83968  0.32163  1.0000
  S   S255      1.0  0.25420  0.80798  0.60961  1.0000
  H   H1152     1.0  0.38601  0.70056  0.38833  1.0000
  H   H1153     1.0  0.36868  0.88769  0.41889  1.0000
  H   H1154     1.0  0.16607  0.82121  0.60035  1.0000
  H   H1155     1.0  0.35174  0.76110  0.29157  1.0000
  S   S256      1.0  0.16543  0.76712  0.55558  1.0000
  S   S257      1.0  0.41176  0.79142  0.64645  1.0000
  S   S258      1.0  0.94082  0.87433  0.49997  1.0000
  S   S259      1.0  0.41380  0.71113  0.46297  1.0000
  H   H1156     1.0  0.00940  0.77269  0.72636  1.0000
  C   C975      1.0  0.38395  0.79188  0.50126  1.0000
  Fe  Fe121     1.0  0.41030  0.84785  0.25318  1.0000
  C   C976      1.0  0.14251  0.84415  0.68419  1.0000
  C   C977      1.0  0.18698  0.71875  0.36667  1.0000
  H   H1157     1.0  0.34546  0.69256  0.42187  1.0000
  N   N68       1.0  0.26770  0.70365  0.66661  1.0000
  H   H1158     1.0  0.17619  0.84313  0.71880  1.0000
  Fe  Fe122     1.0  0.03639  0.70864  0.55405  1.0000
  C   C978      1.0  0.30730  0.79209  0.50871  1.0000
  C   C979      1.0  0.21774  0.74998  0.38437  1.0000
  C   C980      1.0  0.08429  0.79884  0.59302  1.0000
  C   C981      1.0  0.38601  0.76116  0.32753  1.0000
  H   H1159     1.0  0.08325  0.72125  0.63106  1.0000
  H   H1160     1.0  0.27606  0.78513  0.65819  1.0000
  H   H1161     1.0  0.11861  0.74386  0.28694  1.0000
  H   H1162     1.0  0.18266  0.82826  0.67211  1.0000
  C   C982      1.0  0.40097  0.83147  0.51145  1.0000
  C   C983      1.0  0.29237  0.86650  0.29251  1.0000
  S   S260      1.0  0.01174  0.91520  0.34310  1.0000
  H   H1163     1.0  0.11938  0.91012  0.27795  1.0000
  H   H1164     1.0  0.13632  0.82764  0.36039  1.0000
  C   C984      1.0  0.35501  0.84990  0.53337  1.0000
  Fe  Fe123     1.0  0.96769  0.84198  0.57417  1.0000
  H   H1165     1.0  0.18381  0.89072  0.65364  1.0000
  H   H1166     1.0  0.05871  0.90121  0.40114  1.0000
  S   S261      1.0  0.04718  0.74948  0.50562  1.0000
  S   S262      1.0  0.10229  0.90970  0.40796  1.0000
  C   C985      1.0  0.40660  0.76329  0.70165  1.0000
  S   S263      1.0  0.98330  0.82258  0.61379  1.0000
  C   C986      1.0  0.07229  0.90403  0.72235  1.0000
  H   H1167     1.0  0.96045  0.80054  0.31961  1.0000
  C   C987      1.0  0.01627  0.84474  0.55452  1.0000
  C   C988      1.0  0.19709  0.85393  0.41741  1.0000
  Fe  Fe124     1.0  0.17296  0.90972  0.41396  1.0000
  C   C989      1.0  0.19385  0.87371  0.40513  1.0000
  S   S264      1.0  0.39659  0.84986  0.34528  1.0000
  H   H1168     1.0  0.41444  0.68860  0.57995  1.0000
  Fe  Fe125     1.0  0.12405  0.90366  0.45344  1.0000
  H   H1169     1.0  0.96714  0.75513  0.65388  1.0000
  H   H1170     1.0  0.10074  0.82726  0.36224  1.0000
  H   H1171     1.0  0.32961  0.85391  0.63089  1.0000
  H   H1172     1.0  0.21657  0.79384  0.34967  1.0000
  C   C990      1.0  0.94956  0.91094  0.71629  1.0000
  S   S265      1.0  0.18417  0.75580  0.66259  1.0000
  C   C991      1.0  0.12919  0.77112  0.35504  1.0000
  C   C992      1.0  0.06015  0.86217  0.52273  1.0000
  H   H1173     1.0  0.27667  0.81724  0.47702  1.0000
  C   C993      1.0  0.29208  0.78638  0.24752  1.0000
  H   H1174     1.0  0.29621  0.70080  0.45493  1.0000
  S   S266      1.0  0.13361  0.87713  0.43997  1.0000
  C   C994      1.0  0.99606  0.91490  0.29855  1.0000
  H   H1175     1.0  0.01592  0.74996  0.72170  1.0000
  C   C995      1.0  0.95084  0.80896  0.33066  1.0000
  C   C996      1.0  0.31612  0.75007  0.70180  1.0000
  Fe  Fe126     1.0  0.35714  0.82220  0.36355  1.0000
  C   C997      1.0  0.93444  0.72785  0.59036  1.0000
  S   S267      1.0  0.40147  0.84414  0.66150  1.0000
  H   H1176     1.0  0.33596  0.75947  0.68904  1.0000
  C   C998      1.0  0.18794  0.87135  0.59655  1.0000
  H   H1177     1.0  0.39863  0.84517  0.52207  1.0000
  H   H1178     1.0  0.16946  0.71112  0.36252  1.0000
  C   C999      1.0  0.02758  0.87896  0.70140  1.0000
  H   H1179     1.0  0.31464  0.69537  0.48605  1.0000
  H   H1180     1.0  0.06759  0.88527  0.72742  1.0000
  C   C1000     1.0  0.20551  0.87688  0.53549  1.0000
  H   H1181     1.0  0.16460  0.80208  0.41792  1.0000
  C   C1001     1.0  0.33031  0.86237  0.58316  1.0000
  Fe  Fe127     1.0  0.20582  0.80532  0.48631  1.0000
  H   H1182     1.0  0.19270  0.83812  0.29956  1.0000
  H   H1183     1.0  0.14580  0.85237  0.71697  1.0000
  H   H1184     1.0  0.41638  0.74818  0.52607  1.0000
  S   S268      1.0  0.16419  0.89276  0.51898  1.0000
  H   H1185     1.0  0.30559  0.80853  0.42183  1.0000
  H   H1186     1.0  0.22378  0.76595  0.39736  1.0000
  C   C1002     1.0  0.38593  0.71751  0.37187  1.0000
  C   C1003     1.0  0.03363  0.84271  0.56869  1.0000
  C   C1004     1.0  0.29924  0.80350  0.47325  1.0000
  C   C1005     1.0  0.16807  0.81574  0.26789  1.0000
  C   C1006     1.0  0.38110  0.80993  0.51340  1.0000
  C   C1007     1.0  0.02538  0.86540  0.49318  1.0000
  C   C1008     1.0  0.30198  0.75500  0.74152  1.0000
  C   C1009     1.0  0.21390  0.79102  0.31006  1.0000
  S   S269      1.0  0.09993  0.81866  0.62332  1.0000
  H   H1187     1.0  0.00126  0.78154  0.60423  1.0000
  C   C1010     1.0  0.27430  0.80150  0.57121  1.0000
  C   C1011     1.0  0.17491  0.81937  0.31505  1.0000
  H   H1188     1.0  0.21723  0.73981  0.57873  1.0000
  C   C1012     1.0  0.19528  0.89321  0.60768  1.0000
  H   H1189     1.0  0.35250  0.76938  0.38563  1.0000
  C   C1013     1.0  0.06525  0.75743  0.59069  1.0000
  Fe  Fe128     1.0  0.15236  0.91804  0.52735  1.0000
  C   C1014     1.0  0.22770  0.90297  0.48650  1.0000
  S   S270      1.0  0.41347  0.92191  0.28237  1.0000
  C   C1015     1.0  0.97422  0.91295  0.32727  1.0000
  H   H1190     1.0  0.18181  0.70208  0.41121  1.0000
  H   H1191     1.0  0.28015  0.73537  0.57477  1.0000
  Fe  Fe129     1.0  0.39654  0.80621  0.70481  1.0000
  H   H1192     1.0  0.96034  0.86009  0.35463  1.0000
  H   H1193     1.0  0.31252  0.84609  0.58799  1.0000
  C   C1016     1.0  0.96210  0.90125  0.25095  1.0000
  H   H1194     1.0  0.33439  0.86330  0.46957  1.0000
  H   H1195     1.0  0.20224  0.86141  0.52386  1.0000
  Fe  Fe130     1.0  0.16902  0.77740  0.63421  1.0000
  C   C1017     1.0  0.38275  0.88912  0.57098  1.0000
  C   C1018     1.0  0.06794  0.79342  0.51828  1.0000
  H   H1196     1.0  0.37039  0.86949  0.61474  1.0000
  Fe  Fe131     1.0  0.12364  0.86214  0.54672  1.0000
  C   C1019     1.0  0.18853  0.68334  0.56916  1.0000
  C   C1020     1.0  0.29856  0.78500  0.57571  1.0000
  H   H1197     1.0  0.25055  0.88548  0.26826  1.0000
  S   S271      1.0  0.11121  0.88644  0.56242  1.0000
  H   H1198     1.0  0.33925  0.83408  0.53160  1.0000
  C   C1021     1.0  0.95730  0.90620  0.30349  1.0000
  H   H1199     1.0  0.98259  0.84149  0.32703  1.0000
  H   H1200     1.0  0.93267  0.71123  0.58631  1.0000
  C   C1022     1.0  0.15424  0.82736  0.61708  1.0000
  Fe  Fe132     1.0  0.97977  0.88432  0.44991  1.0000
  H   H1201     1.0  0.39061  0.73835  0.47743  1.0000
  C   C1023     1.0  0.96331  0.83190  0.33504  1.0000
  C   C1024     1.0  0.33542  0.73978  0.33028  1.0000
  H   H1202     1.0  0.15826  0.73178  0.42384  1.0000
  H   H1203     1.0  0.97804  0.72452  0.64345  1.0000
  H   H1204     1.0  0.00780  0.86369  0.71298  1.0000
  H   H1205     1.0  0.37037  0.74061  0.53638  1.0000
  H   H1206     1.0  0.98832  0.92128  0.57064  1.0000
  S   S272      1.0  0.13488  0.76611  0.71888  1.0000
  C   C1025     1.0  0.23415  0.70595  0.52440  1.0000
  H   H1207     1.0  0.23782  0.70711  0.67211  1.0000
  C   C1026     1.0  0.30483  0.73322  0.67821  1.0000
  H   H1208     1.0  0.27531  0.70690  0.57087  1.0000
  C   C1027     1.0  0.24025  0.69151  0.68904  1.0000
  C   C1028     1.0  0.16851  0.83100  0.69607  1.0000
  N   N69       1.0  0.98883  0.74753  0.69176  1.0000
  C   C1029     1.0  0.10971  0.73835  0.72419  1.0000
  H   H1209     1.0  0.08055  0.83174  0.30218  1.0000
  C   C1030     1.0  0.19148  0.70414  0.57921  1.0000
  C   C1031     1.0  0.93737  0.77007  0.59958  1.0000
  H   H1210     1.0  0.39162  0.92685  0.42281  1.0000
  H   H1211     1.0  0.18120  0.87007  0.29072  1.0000
  C   C1032     1.0  0.21986  0.81257  0.25710  1.0000
  C   C1033     1.0  0.09750  0.92397  0.70375  1.0000
  H   H1212     1.0  0.40128  0.75646  0.57897  1.0000
  H   H1213     1.0  0.95359  0.92594  0.47880  1.0000
  C   C1034     1.0  0.11244  0.78136  0.25592  1.0000
  C   C1035     1.0  0.41604  0.76462  0.52734  1.0000
  H   H1214     1.0  0.24552  0.92093  0.24802  1.0000
  H   H1215     1.0  0.22698  0.83123  0.25694  1.0000
  C   C1036     1.0  0.15036  0.89408  0.25342  1.0000
  S   S273      1.0  0.92851  0.82930  0.63403  1.0000
  C   C1037     1.0  0.17047  0.89378  0.25289  1.0000
  S   S274      1.0  0.01200  0.68225  0.66566  1.0000
  H   H1216     1.0  0.12028  0.68172  0.53595  1.0000
  H   H1217     1.0  0.93374  0.68133  0.70067  1.0000
  Fe  Fe133     1.0  0.39830  0.68140  0.27970  1.0000
  C   C1038     1.0  0.92609  0.83052  0.36017  1.0000
  H   H1218     1.0  0.83683  0.07511  0.87645  1.0000
  C   C1039     1.0  0.91267  0.93799  0.15412  1.0000
  H   H1219     1.0  0.84900  0.10189  0.92575  1.0000
  S   S275      1.0  0.84499  0.93794  0.07482  1.0000
  H   H1220     1.0  0.72150  0.00336  0.06856  1.0000
  S   S276      1.0  0.73214  0.00474  0.94002  1.0000
  H   H1221     1.0  0.75218  0.94177  0.14312  1.0000
  H   H1222     1.0  0.62312  0.93571  0.84455  1.0000
  H   H1223     1.0  0.79144  0.99007  0.97089  1.0000
  C   C1040     1.0  0.74527  0.98796  0.94310  1.0000
  C   C1041     1.0  0.90478  0.11426  0.86352  1.0000
  Fe  Fe134     1.0  0.77735  0.06358  0.19693  1.0000
  C   C1042     1.0  0.91888  0.11728  0.10452  1.0000
  N   N70       1.0  0.91847  0.09398  0.13147  1.0000
  H   H1224     1.0  0.81919  0.03839  0.15838  1.0000
  C   C1043     1.0  0.91214  0.95305  0.75355  1.0000
  S   S277      1.0  0.59358  0.03590  0.11755  1.0000
  C   C1044     1.0  0.77216  0.96736  0.17714  1.0000
  S   S278      1.0  0.79385  0.96067  0.90407  1.0000
  C   C1045     1.0  0.91122  0.95792  0.12343  1.0000
  H   H1225     1.0  0.73745  0.10637  0.12536  1.0000
  H   H1226     1.0  0.70060  0.16844  0.98641  1.0000
  Fe  Fe135     1.0  0.73276  0.01539  0.84273  1.0000
  H   H1227     1.0  0.81341  0.97795  0.23215  1.0000
  C   C1046     1.0  0.79443  0.15127  0.97394  1.0000
  C   C1047     1.0  0.64882  0.02291  0.23742  1.0000
  H   H1228     1.0  0.88394  0.07364  0.88410  1.0000
  H   H1229     1.0  0.76518  0.16838  0.92717  1.0000
  H   H1230     1.0  0.52675  0.98115  0.10990  1.0000
  H   H1231     1.0  0.90488  0.93258  0.76856  1.0000
  C   C1048     1.0  0.87926  0.09180  0.00208  1.0000
  C   C1049     1.0  0.87434  0.07521  0.97456  1.0000
  H   H1232     1.0  0.77627  0.06036  0.90015  1.0000
  Fe  Fe136     1.0  0.71371  0.03363  0.75707  1.0000
  H   H1233     1.0  0.72971  0.99304  0.12799  1.0000
  H   H1234     1.0  0.82174  0.08769  0.84785  1.0000
  C   C1050     1.0  0.82943  0.15847  0.88771  1.0000
  C   C1051     1.0  0.67250  0.97640  0.14732  1.0000
  Fe  Fe137     1.0  0.91317  0.15455  0.21426  1.0000
  H   H1235     1.0  0.61899  0.03849  0.99733  1.0000
  Fe  Fe138     1.0  0.85066  0.97091  0.99695  1.0000
  H   H1236     1.0  0.67420  0.99335  0.15195  1.0000
  C   C1052     1.0  0.75237  0.06990  0.04831  1.0000
  C   C1053     1.0  0.91518  0.96208  0.95511  1.0000
  S   S279      1.0  0.81661  0.08389  0.11303  1.0000
  C   C1054     1.0  0.72403  0.10982  0.21132  1.0000
  H   H1237     1.0  0.78909  0.98153  0.12770  1.0000
  C   C1055     1.0  0.91479  0.94125  0.99138  1.0000
  H   H1238     1.0  0.78592  0.07978  0.05182  1.0000
  S   S280      1.0  0.69658  0.99391  0.83988  1.0000
  H   H1239     1.0  0.80425  0.05208  0.89901  1.0000
  H   H1240     1.0  0.65187  0.95834  0.17795  1.0000
  C   C1056     1.0  0.78568  0.07113  0.97154  1.0000
  H   H1241     1.0  0.77269  0.11571  0.89990  1.0000
  C   C1057     1.0  0.52940  0.97605  0.15344  1.0000
  C   C1058     1.0  0.81506  0.16219  0.12796  1.0000
  C   C1059     1.0  0.68490  0.11688  0.03688  1.0000
  C   C1060     1.0  0.80489  0.05219  0.00733  1.0000
  C   C1061     1.0  0.77702  0.98443  0.95661  1.0000
  H   H1242     1.0  0.85148  0.15244  0.18197  1.0000
  H   H1243     1.0  0.81201  0.17832  0.77410  1.0000
  H   H1244     1.0  0.71935  0.05793  0.03755  1.0000
  Fe  Fe139     1.0  0.91332  0.16951  0.76819  1.0000
  S   S281      1.0  0.75372  0.00930  0.76779  1.0000
  Fe  Fe140     1.0  0.86632  0.15774  0.75856  1.0000
  H   H1245     1.0  0.65460  0.03081  0.18515  1.0000
  H   H1246     1.0  0.56664  0.96670  0.12118  1.0000
  C   C1062     1.0  0.61239  0.11166  0.23108  1.0000
  H   H1247     1.0  0.67826  0.98198  0.09424  1.0000
  C   C1063     1.0  0.67141  0.93354  0.99898  1.0000
  H   H1248     1.0  0.61180  0.97290  0.17953  1.0000
  H   H1249     1.0  0.90303  0.11197  0.09369  1.0000
  C   C1064     1.0  0.83662  0.09246  0.14630  1.0000
  H   H1250     1.0  0.48323  0.93618  0.18123  1.0000
  S   S282      1.0  0.69097  0.04762  0.74342  1.0000
  H   H1251     1.0  0.82699  0.10280  0.98208  1.0000
  S   S283      1.0  0.78478  0.16207  0.02584  1.0000
  N   N71       1.0  0.79461  0.99546  0.22145  1.0000
  H   H1252     1.0  0.89288  0.95427  0.14318  1.0000
  H   H1253     1.0  0.82188  0.05264  0.99331  1.0000
  C   C1065     1.0  0.65447  0.93575  0.98276  1.0000
  N   N72       1.0  0.51649  0.94700  0.19116  1.0000
  H   H1254     1.0  0.63508  0.01398  0.97347  1.0000
  C   C1066     1.0  0.83388  0.14848  0.18225  1.0000
  C   C1067     1.0  0.60424  0.00095  0.15334  1.0000
  Fe  Fe141     1.0  0.85050  0.01801  0.97455  1.0000
  H   H1255     1.0  0.68077  0.94524  0.01919  1.0000
  C   C1068     1.0  0.85973  0.11841  0.11323  1.0000
  S   S284      1.0  0.63325  0.97254  0.05813  1.0000
  H   H1256     1.0  0.73687  0.15150  0.04603  1.0000
  C   C1069     1.0  0.87217  0.12670  0.14780  1.0000
  C   C1070     1.0  0.89488  0.07370  0.19866  1.0000
  C   C1071     1.0  0.67656  0.07843  0.02766  1.0000
  H   H1257     1.0  0.81808  0.17760  0.08517  1.0000
  H   H1258     1.0  0.71855  0.01222  0.13237  1.0000
  C   C1072     1.0  0.71582  0.99598  0.12210  1.0000
  H   H1259     1.0  0.87337  0.17631  0.05859  1.0000
  S   S285      1.0  0.75897  0.08316  0.18937  1.0000
  H   H1260     1.0  0.73870  0.95893  0.78642  1.0000
  H   H1261     1.0  0.63897  0.96282  0.92116  1.0000
  S   S286      1.0  0.85035  0.04065  0.02707  1.0000
  H   H1262     1.0  0.52174  0.98258  0.18528  1.0000
  C   C1073     1.0  0.62071  0.94196  0.94875  1.0000
  C   C1074     1.0  0.68157  0.96347  0.23741  1.0000
  C   C1075     1.0  0.90160  0.04991  0.05309  1.0000
  H   H1263     1.0  0.66326  0.05749  0.04305  1.0000
  H   H1264     1.0  0.82140  0.99512  0.14891  1.0000
  H   H1265     1.0  0.80306  0.02041  0.12471  1.0000
  S   S287      1.0  0.74850  0.05609  0.76608  1.0000
  C   C1076     1.0  0.74687  0.05858  0.96534  1.0000
  H   H1266     1.0  0.71187  0.15473  0.06791  1.0000
  C   C1077     1.0  0.76246  0.99349  0.96630  1.0000
  N   N73       1.0  0.68874  0.97118  0.16700  1.0000
  C   C1078     1.0  0.62657  0.01038  0.02367  1.0000
  H   H1267     1.0  0.60771  0.09985  0.20736  1.0000
  Fe  Fe142     1.0  0.82651  0.98221  0.92063  1.0000
  S   S288      1.0  0.92411  0.05017  0.76561  1.0000
  H   H1268     1.0  0.82317  0.12903  0.18363  1.0000
  C   C1079     1.0  0.73065  0.16307  0.02629  1.0000
  H   H1269     1.0  0.76384  0.17046  0.19085  1.0000
  C   C1080     1.0  0.92332  0.06703  0.98927  1.0000
  S   S289      1.0  0.82360  0.13654  0.80791  1.0000
  N   N74       1.0  0.83981  0.17045  0.12425  1.0000
  H   H1270     1.0  0.82169  0.14551  0.23000  1.0000
  H   H1271     1.0  0.92035  0.02431  0.11726  1.0000
  H   H1272     1.0  0.88245  0.04387  0.14851  1.0000
  S   S290      1.0  0.81905  0.97409  0.02327  1.0000
  C   C1081     1.0  0.68639  0.94953  0.15534  1.0000
  C   C1082     1.0  0.63598  0.93427  0.86127  1.0000
  C   C1083     1.0  0.90929  0.13087  0.89089  1.0000
  C   C1084     1.0  0.62385  0.99126  0.07538  1.0000
  C   C1085     1.0  0.81229  0.14145  0.87352  1.0000
  H   H1273     1.0  0.83565  0.11691  0.89693  1.0000
  H   H1274     1.0  0.84956  0.16809  0.85969  1.0000
  C   C1086     1.0  0.92134  0.96459  0.78890  1.0000
  H   H1275     1.0  0.74551  0.07287  0.08899  1.0000
  H   H1276     1.0  0.65951  0.07662  0.21357  1.0000
  H   H1277     1.0  0.73918  0.13185  0.91984  1.0000
  C   C1087     1.0  0.61303  0.98685  0.14003  1.0000
  S   S291      1.0  0.85643  0.97621  0.89680  1.0000
  C   C1088     1.0  0.77698  0.13322  0.96233  1.0000
  H   H1278     1.0  0.69599  0.08512  0.12884  1.0000
  C   C1089     1.0  0.77354  0.96899  0.92591  1.0000
  S   S292      1.0  0.88105  0.13439  0.77335  1.0000
  H   H1279     1.0  0.70894  0.08491  0.95618  1.0000
  C   C1090     1.0  0.52688  0.93913  0.14661  1.0000
  S   S293      1.0  0.67627  0.17594  0.20219  1.0000
  H   H1280     1.0  0.80966  0.05396  0.23637  1.0000
  H   H1281     1.0  0.90018  0.13249  0.98137  1.0000
  C   C1091     1.0  0.81838  0.07208  0.89115  1.0000
  H   H1282     1.0  0.88901  0.14722  0.12404  1.0000
  S   S294      1.0  0.88153  0.01410  0.95636  1.0000
  H   H1283     1.0  0.72709  0.96653  0.89924  1.0000
  H   H1284     1.0  0.87709  0.06742  0.19662  1.0000
  N   N75       1.0  0.80958  0.07386  0.95189  1.0000
  C   C1092     1.0  0.88752  0.08640  0.90540  1.0000
  C   C1093     1.0  0.60598  0.01926  0.10219  1.0000
  C   C1094     1.0  0.89980  0.05817  0.10008  1.0000
  Fe  Fe143     1.0  0.88468  0.02019  0.85774  1.0000
  C   C1095     1.0  0.71131  0.13338  0.98682  1.0000
  C   C1096     1.0  0.89701  0.11969  0.96018  1.0000
  C   C1097     1.0  0.74078  0.97128  0.91599  1.0000
  C   C1098     1.0  0.66782  0.08989  0.05648  1.0000
  C   C1099     1.0  0.80071  0.01995  0.17211  1.0000
  C   C1100     1.0  0.72146  0.10304  0.16324  1.0000
  H   H1285     1.0  0.83481  0.01377  0.18566  1.0000
  H   H1286     1.0  0.80101  0.05407  0.05248  1.0000
  C   C1101     1.0  0.71954  0.12106  0.95813  1.0000
  H   H1287     1.0  0.86895  0.08312  0.05563  1.0000
  C   C1102     1.0  0.83111  0.09992  0.93865  1.0000
  H   H1288     1.0  0.78531  0.02170  0.19159  1.0000
  H   H1289     1.0  0.64758  0.07772  0.09388  1.0000
  S   S295      1.0  0.69681  0.95088  0.76339  1.0000
  H   H1290     1.0  0.75668  0.12336  0.99147  1.0000
  H   H1291     1.0  0.89343  0.97657  0.95227  1.0000
  H   H1292     1.0  0.54228  0.95417  0.22972  1.0000
  S   S296      1.0  0.85515  0.02684  0.87336  1.0000
  C   C1103     1.0  0.82725  0.07414  0.21129  1.0000
  H   H1293     1.0  0.91435  0.12291  0.80994  1.0000
  C   C1104     1.0  0.77051  0.06330  0.94160  1.0000
  C   C1105     1.0  0.82062  0.16380  0.93690  1.0000
  H   H1294     1.0  0.59619  0.99769  0.20304  1.0000
  H   H1295     1.0  0.86702  0.13252  0.06268  1.0000
  C   C1106     1.0  0.61744  0.02420  0.03718  1.0000
  C   C1107     1.0  0.86143  0.10885  0.21486  1.0000
  C   C1108     1.0  0.72665  0.93892  0.79531  1.0000
  H   H1296     1.0  0.73546  0.05210  0.94239  1.0000
  C   C1109     1.0  0.77578  0.07421  0.02581  1.0000
  C   C1110     1.0  0.78602  0.12884  0.91082  1.0000
  C   C1111     1.0  0.70234  0.09396  0.97869  1.0000
  H   H1297     1.0  0.69157  0.95474  0.10280  1.0000
  H   H1298     1.0  0.73372  0.16113  0.14919  1.0000
  C   C1112     1.0  0.87219  0.93977  0.04381  1.0000
  H   H1299     1.0  0.80494  0.14330  0.12664  1.0000
  C   C1113     1.0  0.48834  0.93249  0.22042  1.0000
  N   N76       1.0  0.72906  0.16183  0.96766  1.0000
  C   C1114     1.0  0.75473  0.96156  0.90801  1.0000
  H   H1300     1.0  0.69916  0.94535  0.16480  1.0000
  C   C1115     1.0  0.69813  0.09132  0.16484  1.0000
  H   H1301     1.0  0.65504  0.95442  0.83215  1.0000
  H   H1302     1.0  0.83420  0.17801  0.94535  1.0000
  C   C1116     1.0  0.81159  0.01748  0.74760  1.0000
  H   H1303     1.0  0.78815  0.03219  0.02183  1.0000
  C   C1117     1.0  0.85573  0.17332  0.06193  1.0000
  C   C1118     1.0  0.73776  0.06179  0.01876  1.0000
  H   H1304     1.0  0.81720  0.01491  0.78593  1.0000
  H   H1305     1.0  0.67717  0.12470  0.06132  1.0000
  H   H1306     1.0  0.82724  0.98739  0.75629  1.0000
  H   H1307     1.0  0.58437  0.95418  0.04792  1.0000
  H   H1308     1.0  0.84494  0.15507  0.05837  1.0000
  H   H1309     1.0  0.55046  0.98870  0.13398  1.0000
  H   H1310     1.0  0.80141  0.15819  0.17526  1.0000
  H   H1311     1.0  0.88587  0.03019  0.06590  1.0000
  C   C1119     1.0  0.81698  0.99565  0.19586  1.0000
  H   H1312     1.0  0.92459  0.06062  0.95287  1.0000
  C   C1120     1.0  0.91987  0.08417  0.08388  1.0000
  Fe  Fe144     1.0  0.71824  0.98996  0.76079  1.0000
  H   H1313     1.0  0.79038  0.00167  0.77520  1.0000
  C   C1121     1.0  0.63799  0.13409  0.20303  1.0000
  H   H1314     1.0  0.91653  0.12442  0.14047  1.0000
  H   H1315     1.0  0.76553  0.00598  0.98821  1.0000
  C   C1122     1.0  0.75110  0.94467  0.18536  1.0000
  H   H1316     1.0  0.65309  0.13921  0.15846  1.0000
  C   C1123     1.0  0.77171  0.97145  0.23174  1.0000
  C   C1124     1.0  0.55356  0.95149  0.11408  1.0000
  S   S297      1.0  0.69519  0.03295  0.19949  1.0000
  C   C1125     1.0  0.89363  0.96108  0.98099  1.0000
  H   H1317     1.0  0.65141  0.94917  0.99227  1.0000
  C   C1126     1.0  0.56390  0.94443  0.07195  1.0000
  C   C1127     1.0  0.67720  0.08641  0.21436  1.0000
  H   H1318     1.0  0.60744  0.94311  0.93344  1.0000
  H   H1319     1.0  0.74212  0.11850  0.21062  1.0000
  Fe  Fe145     1.0  0.57176  0.02269  0.22536  1.0000
  C   C1128     1.0  0.92069  0.02220  0.20678  1.0000
  H   H1320     1.0  0.75197  0.94960  0.88442  1.0000
  H   H1321     1.0  0.79904  0.97192  0.75034  1.0000
  H   H1322     1.0  0.71126  0.95921  0.23288  1.0000
  H   H1323     1.0  0.92101  0.95308  0.83155  1.0000
  H   H1324     1.0  0.61199  0.93500  0.00302  1.0000
  H   H1325     1.0  0.89360  0.05576  0.22264  1.0000
  C   C1129     1.0  0.64404  0.14951  0.23350  1.0000
  S   S298      1.0  0.74113  0.02282  0.23873  1.0000
  H   H1326     1.0  0.89480  0.08171  0.23338  1.0000
  H   H1327     1.0  0.90024  0.00559  0.23948  1.0000
  C   C1130     1.0  0.75573  0.17671  0.91251  1.0000
  H   H1328     1.0  0.75602  0.17660  0.86657  1.0000
  H   H1329     1.0  0.71623  0.17416  0.90419  1.0000
  C   C1131     1.0  0.71923  0.17612  0.94560  1.0000
  Fe  Fe146     1.0  0.72182  0.04177  0.24041  1.0000
  C   C1132     1.0  0.74500  0.18038  0.14549  1.0000
  C   C1133     1.0  0.87578  0.93224  0.59253  1.0000
  H   H1330     1.0  0.71535  0.07954  0.59271  1.0000
  H   H1331     1.0  0.83040  0.10098  0.46192  1.0000
  H   H1332     1.0  0.45535  0.97127  0.25957  1.0000
  C   C1134     1.0  0.82157  0.09016  0.43825  1.0000
  S   S299      1.0  0.55337  0.98297  0.31148  1.0000
  C   C1135     1.0  0.75736  0.98081  0.44623  1.0000
  H   H1333     1.0  0.42916  0.96102  0.41835  1.0000
  Fe  Fe147     1.0  0.90536  0.15705  0.66246  1.0000
  H   H1334     1.0  0.90429  0.95731  0.67490  1.0000
  H   H1335     1.0  0.60140  0.01544  0.62509  1.0000
  H   H1336     1.0  0.74658  0.95262  0.33964  1.0000
  H   H1337     1.0  0.85448  0.94005  0.48450  1.0000
  S   S300      1.0  0.53747  0.00426  0.40891  1.0000
  C   C1136     1.0  0.72481  0.94022  0.63294  1.0000
  C   C1137     1.0  0.71700  0.11724  0.61731  1.0000
  H   H1338     1.0  0.72179  0.95480  0.63172  1.0000
  C   C1138     1.0  0.75958  0.11340  0.59133  1.0000
  C   C1139     1.0  0.79796  0.08505  0.38107  1.0000
  S   S301      1.0  0.59220  0.04604  0.26671  1.0000
  C   C1140     1.0  0.52137  0.94154  0.24711  1.0000
  H   H1339     1.0  0.79869  0.93301  0.28895  1.0000
  S   S302      1.0  0.87231  0.11896  0.26531  1.0000
  Fe  Fe148     1.0  0.76656  0.04803  0.69147  1.0000
  C   C1141     1.0  0.80798  0.13707  0.36499  1.0000
  H   H1340     1.0  0.78701  0.98291  0.46249  1.0000
  H   H1341     1.0  0.64714  0.97476  0.69933  1.0000
  H   H1342     1.0  0.72715  0.13551  0.62099  1.0000
  H   H1343     1.0  0.76169  0.02320  0.53053  1.0000
  C   C1142     1.0  0.80613  0.14343  0.52574  1.0000
  H   H1344     1.0  0.82433  0.14820  0.51838  1.0000
  H   H1345     1.0  0.87581  0.93504  0.63419  1.0000
  C   C1143     1.0  0.86445  0.93953  0.56074  1.0000
  C   C1144     1.0  0.78191  0.15328  0.48553  1.0000
  C   C1145     1.0  0.46323  0.93914  0.37690  1.0000
  Fe  Fe149     1.0  0.68462  0.15371  0.40221  1.0000
  S   S303      1.0  0.87136  0.99242  0.39976  1.0000
  H   H1346     1.0  0.71225  0.10050  0.66055  1.0000
  H   H1347     1.0  0.69809  0.11182  0.62473  1.0000
  C   C1146     1.0  0.71911  0.09624  0.55160  1.0000
  Fe  Fe150     1.0  0.57119  0.00632  0.35635  1.0000
  H   H1348     1.0  0.59729  0.09482  0.43513  1.0000
  H   H1349     1.0  0.78418  0.08732  0.37154  1.0000
  Fe  Fe151     1.0  0.60146  0.94458  0.68209  1.0000
  C   C1147     1.0  0.54063  0.98223  0.65292  1.0000
  H   H1350     1.0  0.67291  0.12931  0.26879  1.0000
  S   S304      1.0  0.82494  0.96568  0.33481  1.0000
  C   C1148     1.0  0.45211  0.95492  0.29807  1.0000
  C   C1149     1.0  0.57855  0.94241  0.36166  1.0000
  C   C1150     1.0  0.62560  0.01556  0.28380  1.0000
  H   H1351     1.0  0.58189  0.94659  0.46427  1.0000
  H   H1352     1.0  0.82957  0.98653  0.68137  1.0000
  C   C1151     1.0  0.77694  0.00462  0.49745  1.0000
  H   H1353     1.0  0.57430  0.01067  0.68429  1.0000
  H   H1354     1.0  0.64076  0.95487  0.37901  1.0000
  C   C1152     1.0  0.61841  0.00596  0.35113  1.0000
  C   C1153     1.0  0.76097  0.01199  0.50545  1.0000
  C   C1154     1.0  0.69007  0.95225  0.32848  1.0000
  H   H1355     1.0  0.63921  0.03634  0.63815  1.0000
  C   C1155     1.0  0.64643  0.02770  0.66173  1.0000
  H   H1356     1.0  0.58091  0.96057  0.35839  1.0000
  H   H1357     1.0  0.66652  0.94697  0.41996  1.0000
  N   N77       1.0  0.82476  0.01510  0.69243  1.0000
  C   C1156     1.0  0.65593  0.95561  0.34666  1.0000
  H   H1358     1.0  0.73255  0.01158  0.48448  1.0000
  S   S305      1.0  0.77153  0.05816  0.29690  1.0000
  H   H1359     1.0  0.66858  0.00696  0.34299  1.0000
  S   S306      1.0  0.90854  0.13745  0.60292  1.0000
  H   H1360     1.0  0.78840  0.06329  0.40733  1.0000
  H   H1361     1.0  0.85832  0.05161  0.55363  1.0000
  C   C1157     1.0  0.46776  0.96032  0.32640  1.0000
  H   H1362     1.0  0.78749  0.97965  0.32170  1.0000
  C   C1158     1.0  0.66137  0.96181  0.28140  1.0000
  C   C1159     1.0  0.71657  0.08849  0.40303  1.0000
  C   C1160     1.0  0.65087  0.99299  0.69633  1.0000
  C   C1161     1.0  0.86371  0.93500  0.50822  1.0000
  S   S307      1.0  0.81215  0.96441  0.50843  1.0000
  S   S308      1.0  0.76497  0.11148  0.30454  1.0000
  C   C1162     1.0  0.77327  0.93422  0.42910  1.0000
  H   H1363     1.0  0.90063  0.16903  0.50794  1.0000
  C   C1163     1.0  0.70245  0.11452  0.41912  1.0000
  C   C1164     1.0  0.66064  0.04017  0.68863  1.0000
  C   C1165     1.0  0.78325  0.12031  0.58282  1.0000
  S   S309      1.0  0.86069  0.01838  0.49042  1.0000
  H   H1364     1.0  0.63899  0.09149  0.26218  1.0000
  C   C1166     1.0  0.79130  0.99700  0.28293  1.0000
  H   H1365     1.0  0.88600  0.00196  0.69410  1.0000
  S   S310      1.0  0.85192  0.95471  0.58715  1.0000
  H   H1366     1.0  0.69750  0.95191  0.58332  1.0000
  C   C1167     1.0  0.83269  0.08976  0.60878  1.0000
  C   C1168     1.0  0.57690  0.98880  0.57400  1.0000
  H   H1367     1.0  0.51236  0.94556  0.28420  1.0000
  H   H1368     1.0  0.53351  0.96294  0.69333  1.0000
  H   H1369     1.0  0.57048  0.93749  0.32981  1.0000
  N   N78       1.0  0.92004  0.01003  0.62466  1.0000
  H   H1370     1.0  0.71527  0.13510  0.50870  1.0000
  H   H1371     1.0  0.76490  0.15508  0.29368  1.0000
  H   H1372     1.0  0.70597  0.11001  0.29813  1.0000
  S   S311      1.0  0.71246  0.03552  0.34357  1.0000
  Fe  Fe152     1.0  0.88070  0.03172  0.38208  1.0000
  H   H1373     1.0  0.68037  0.12058  0.33223  1.0000
  C   C1169     1.0  0.75814  0.12973  0.54304  1.0000
  C   C1170     1.0  0.87892  0.11417  0.55438  1.0000
  C   C1171     1.0  0.79198  0.94063  0.37005  1.0000
  H   H1374     1.0  0.75733  0.96158  0.64439  1.0000
  C   C1172     1.0  0.74262  0.98963  0.45021  1.0000
  C   C1173     1.0  0.80548  0.16000  0.47754  1.0000
  Fe  Fe153     1.0  0.52093  0.98393  0.35705  1.0000
  S   S312      1.0  0.73285  0.02834  0.67724  1.0000
  C   C1174     1.0  0.81246  0.01449  0.65126  1.0000
  Fe  Fe154     1.0  0.83570  0.98239  0.39815  1.0000
  C   C1175     1.0  0.66608  0.00616  0.72068  1.0000
  H   H1375     1.0  0.91370  0.02987  0.41841  1.0000
  N   N79       1.0  0.73280  0.12157  0.55237  1.0000
  C   C1176     1.0  0.82002  0.98916  0.72124  1.0000
  S   S313      1.0  0.67798  0.11567  0.46059  1.0000
  C   C1177     1.0  0.85285  0.03726  0.65442  1.0000
  C   C1178     1.0  0.85272  0.15741  0.57979  1.0000
  C   C1179     1.0  0.83124  0.14759  0.63821  1.0000
  C   C1180     1.0  0.86718  0.05391  0.58374  1.0000
  H   H1376     1.0  0.73045  0.09857  0.50380  1.0000
  H   H1377     1.0  0.78867  0.09605  0.51097  1.0000
  S   S314      1.0  0.72220  0.98092  0.41762  1.0000
  C   C1181     1.0  0.59879  0.12105  0.31758  1.0000
  C   C1182     1.0  0.62441  0.14310  0.29043  1.0000
  H   H1378     1.0  0.53391  0.99130  0.67716  1.0000
  H   H1379     1.0  0.57195  0.96980  0.60909  1.0000
  C   C1183     1.0  0.63440  0.07762  0.31100  1.0000
  C   C1184     1.0  0.90719  0.99462  0.59579  1.0000
  C   C1185     1.0  0.56822  0.02824  0.51646  1.0000
  C   C1186     1.0  0.78317  0.08576  0.48302  1.0000
  C   C1187     1.0  0.72665  0.13799  0.36650  1.0000
  H   H1380     1.0  0.59810  0.00263  0.53860  1.0000
  H   H1381     1.0  0.78384  0.10727  0.61991  1.0000
  C   C1188     1.0  0.69558  0.95820  0.26331  1.0000
  S   S315      1.0  0.92070  0.06900  0.30626  1.0000
  H   H1382     1.0  0.62605  0.05749  0.31657  1.0000
  H   H1383     1.0  0.90598  0.00659  0.55620  1.0000
  H   H1384     1.0  0.70149  0.94915  0.34673  1.0000
  C   C1189     1.0  0.74872  0.95148  0.29500  1.0000
  C   C1190     1.0  0.74600  0.13680  0.33336  1.0000
  H   H1385     1.0  0.66532  0.07475  0.39427  1.0000
  H   H1386     1.0  0.81423  0.08225  0.70844  1.0000
  S   S316      1.0  0.80570  0.07783  0.59960  1.0000
  H   H1387     1.0  0.77532  0.99789  0.30397  1.0000
  H   H1388     1.0  0.77308  0.06422  0.51686  1.0000
  H   H1389     1.0  0.57340  0.98270  0.69007  1.0000
  H   H1390     1.0  0.85559  0.14324  0.57595  1.0000
  H   H1391     1.0  0.79120  0.99831  0.68146  1.0000
  C   C1191     1.0  0.66492  0.02093  0.25841  1.0000
  H   H1392     1.0  0.64977  0.96565  0.26631  1.0000
  H   H1393     1.0  0.53070  0.97695  0.62476  1.0000
  H   H1394     1.0  0.61337  0.01748  0.26739  1.0000
  H   H1395     1.0  0.81475  0.09438  0.33177  1.0000
  C   C1192     1.0  0.67920  0.09321  0.26410  1.0000
  C   C1193     1.0  0.89793  0.17655  0.46593  1.0000
  H   H1396     1.0  0.81974  0.01047  0.61184  1.0000
  H   H1397     1.0  0.85748  0.03009  0.74144  1.0000
  H   H1398     1.0  0.59808  0.94785  0.33866  1.0000
  C   C1194     1.0  0.89368  0.07476  0.54959  1.0000
  H   H1399     1.0  0.88697  0.97659  0.63443  1.0000
  S   S317      1.0  0.84687  0.02300  0.37154  1.0000
  C   C1195     1.0  0.90655  0.08002  0.58455  1.0000
  H   H1400     1.0  0.81870  0.12672  0.67719  1.0000
  C   C1196     1.0  0.59280  0.10495  0.28886  1.0000
  Fe  Fe155     1.0  0.75112  0.07560  0.29197  1.0000
  H   H1401     1.0  0.91775  0.98830  0.57192  1.0000
  S   S318      1.0  0.59010  0.99774  0.40932  1.0000
  C   C1197     1.0  0.67036  0.95106  0.36994  1.0000
  C   C1198     1.0  0.74437  0.00523  0.47992  1.0000
  C   C1199     1.0  0.66532  0.11312  0.31852  1.0000
  C   C1200     1.0  0.73466  0.14166  0.49974  1.0000
  C   C1201     1.0  0.86120  0.17301  0.30846  1.0000
  H   H1402     1.0  0.48286  0.98077  0.31039  1.0000
  H   H1403     1.0  0.80901  0.01510  0.27340  1.0000
  H   H1404     1.0  0.61875  0.07507  0.35011  1.0000
  C   C1202     1.0  0.82136  0.16445  0.32430  1.0000
  H   H1405     1.0  0.56704  0.05299  0.43982  1.0000
  H   H1406     1.0  0.55508  0.01049  0.51643  1.0000
  Fe  Fe156     1.0  0.73382  0.01868  0.33893  1.0000
  H   H1407     1.0  0.85955  0.13944  0.35405  1.0000
  C   C1203     1.0  0.64955  0.06785  0.38330  1.0000
  N   N80       1.0  0.80629  0.09748  0.41980  1.0000
  H   H1408     1.0  0.74479  0.16131  0.49740  1.0000
  H   H1409     1.0  0.74485  0.14460  0.45001  1.0000
  C   C1204     1.0  0.67094  0.02975  0.71690  1.0000
  H   H1410     1.0  0.48131  0.93909  0.25282  1.0000
  H   H1411     1.0  0.56728  0.98400  0.54498  1.0000
  C   C1205     1.0  0.83956  0.08234  0.24575  1.0000
  C   C1206     1.0  0.83220  0.09081  0.66586  1.0000
  C   C1207     1.0  0.57512  0.05250  0.47199  1.0000
  H   H1412     1.0  0.62805  0.99467  0.42483  1.0000
  H   H1413     1.0  0.85641  0.09992  0.50976  1.0000
  C   C1208     1.0  0.65702  0.01005  0.32616  1.0000
  C   C1209     1.0  0.85538  0.10469  0.66586  1.0000
  H   H1414     1.0  0.64891  0.11026  0.35568  1.0000
  H   H1415     1.0  0.82332  0.17799  0.43293  1.0000
  C   C1210     1.0  0.85598  0.10099  0.55366  1.0000
  C   C1211     1.0  0.74073  0.11200  0.35036  1.0000
  H   H1416     1.0  0.81111  0.17180  0.31392  1.0000
  C   C1212     1.0  0.59219  0.07610  0.46912  1.0000
  H   H1417     1.0  0.66413  0.05823  0.68617  1.0000
  S   S319      1.0  0.48150  0.94448  0.41542  1.0000
  C   C1213     1.0  0.60263  0.07561  0.51013  1.0000
  H   H1418     1.0  0.61605  0.09402  0.50763  1.0000
  C   C1214     1.0  0.92105  0.99434  0.67936  1.0000
  S   S320      1.0  0.53786  0.02211  0.26750  1.0000
  H   H1419     1.0  0.81567  0.03726  0.72824  1.0000
  S   S321      1.0  0.88872  0.17826  0.64733  1.0000
  H   H1420     1.0  0.77891  0.94486  0.45480  1.0000
  H   H1421     1.0  0.78753  0.12396  0.38407  1.0000
  C   C1215     1.0  0.90553  0.01919  0.65003  1.0000
  C   C1216     1.0  0.87879  0.11666  0.60964  1.0000
  H   H1422     1.0  0.62889  0.15542  0.31297  1.0000
  S   S322      1.0  0.65185  0.15044  0.39465  1.0000
  H   H1423     1.0  0.58362  0.11622  0.36151  1.0000
  C   C1217     1.0  0.69766  0.08983  0.43861  1.0000
  C   C1218     1.0  0.64137  0.00399  0.66591  1.0000
  H   H1424     1.0  0.89697  0.12347  0.51077  1.0000
  H   H1425     1.0  0.85522  0.10668  0.70859  1.0000
  C   C1219     1.0  0.82081  0.12674  0.37912  1.0000
  Fe  Fe157     1.0  0.82572  0.00603  0.48189  1.0000
  H   H1426     1.0  0.91539  0.03356  0.66558  1.0000
  N   N81       1.0  0.56913  0.00070  0.60971  1.0000
  H   H1427     1.0  0.63306  0.06324  0.42515  1.0000
  H   H1428     1.0  0.64365  0.04874  0.38464  1.0000
  C   C1220     1.0  0.86686  0.04241  0.68806  1.0000
  S   S323      1.0  0.56077  0.07634  0.32762  1.0000
  H   H1429     1.0  0.75537  0.96797  0.42556  1.0000
  H   H1430     1.0  0.81561  0.03365  0.62703  1.0000
  H   H1431     1.0  0.80983  0.15692  0.69368  1.0000
  C   C1221     1.0  0.82620  0.16462  0.64756  1.0000
  H   H1432     1.0  0.60449  0.05268  0.58554  1.0000
  C   C1222     1.0  0.91191  0.96758  0.69955  1.0000
  C   C1223     1.0  0.77504  0.98897  0.46792  1.0000
  H   H1433     1.0  0.74234  0.09485  0.63566  1.0000
  C   C1224     1.0  0.59567  0.05145  0.55526  1.0000
  C   C1225     1.0  0.58002  0.00261  0.65417  1.0000
  H   H1434     1.0  0.43887  0.95035  0.50760  1.0000
  H   H1435     1.0  0.90415  0.08752  0.49571  1.0000
  C   C1226     1.0  0.57782  0.02686  0.56061  1.0000
  N   N82       1.0  0.65744  0.08803  0.31797  1.0000
  C   C1227     1.0  0.74557  0.94449  0.64010  1.0000
  H   H1436     1.0  0.83702  0.09434  0.39475  1.0000
  H   H1437     1.0  0.73068  0.15711  0.35249  1.0000
  H   H1438     1.0  0.90326  0.06788  0.68089  1.0000
  H   H1439     1.0  0.88190  0.15920  0.46832  1.0000
  C   C1228     1.0  0.84801  0.14556  0.34869  1.0000
  Fe  Fe158     1.0  0.84888  0.97808  0.50802  1.0000
  S   S324      1.0  0.79951  0.01512  0.52329  1.0000
  H   H1440     1.0  0.67907  0.07161  0.48012  1.0000
  H   H1441     1.0  0.78291  0.16678  0.44542  1.0000
  H   H1442     1.0  0.80960  0.06834  0.47436  1.0000
  H   H1443     1.0  0.90301  0.02966  0.61135  1.0000
  H   H1444     1.0  0.71256  0.06930  0.41695  1.0000
  H   H1445     1.0  0.76850  0.08657  0.47520  1.0000
  C   C1229     1.0  0.63384  0.00267  0.37253  1.0000
  H   H1446     1.0  0.67804  0.93170  0.67361  1.0000
  H   H1447     1.0  0.83143  0.06841  0.29744  1.0000
  C   C1230     1.0  0.89320  0.06379  0.65367  1.0000
  S   S325      1.0  0.62342  0.98905  0.63162  1.0000
  Fe  Fe159     1.0  0.55716  0.04259  0.31584  1.0000
  H   H1448     1.0  0.70001  0.08947  0.55757  1.0000
  C   C1231     1.0  0.70323  0.10492  0.26116  1.0000
  H   H1449     1.0  0.67411  0.99812  0.74212  1.0000
  Fe  Fe160     1.0  0.68075  0.18106  0.28622  1.0000
  C   C1232     1.0  0.68114  0.93133  0.62628  1.0000
  H   H1450     1.0  0.70764  0.93121  0.51761  1.0000
  S   S326      1.0  0.73637  0.30520  0.00928  1.0000
  H   H1451     1.0  0.77849  0.29664  0.89796  1.0000
  H   H1452     1.0  0.72654  0.39426  0.75836  1.0000
  H   H1453     1.0  0.83771  0.33841  0.12723  1.0000
  Fe  Fe161     1.0  0.83723  0.25923  0.95621  1.0000
  C   C1233     1.0  0.88262  0.29095  0.99250  1.0000
  N   N83       1.0  0.62058  0.37638  0.77857  1.0000
  H   H1454     1.0  0.82528  0.20254  0.13978  1.0000
  S   S327      1.0  0.58256  0.37506  0.05999  1.0000
  C   C1234     1.0  0.85718  0.35001  0.81640  1.0000
  S   S328      1.0  0.86053  0.28355  0.84444  1.0000
  N   N84       1.0  0.75633  0.24705  0.07793  1.0000
  H   H1455     1.0  0.87535  0.36278  0.20481  1.0000
  H   H1456     1.0  0.75044  0.23746  0.00368  1.0000
  H   H1457     1.0  0.90961  0.35456  0.86627  1.0000
  H   H1458     1.0  0.42686  0.33607  0.90974  1.0000
  H   H1459     1.0  0.65472  0.31855  0.17147  1.0000
  H   H1460     1.0  0.78411  0.24776  0.13980  1.0000
  H   H1461     1.0  0.74222  0.26718  0.10689  1.0000
  N   N85       1.0  0.61631  0.41398  0.18146  1.0000
  H   H1462     1.0  0.79407  0.26972  0.99259  1.0000
  Fe  Fe162     1.0  0.46111  0.39252  0.17398  1.0000
  H   H1463     1.0  0.73595  0.27960  0.23870  1.0000
  H   H1464     1.0  0.66175  0.42430  0.16574  1.0000
  C   C1235     1.0  0.85840  0.39279  0.91785  1.0000
  C   C1236     1.0  0.88923  0.31941  0.06010  1.0000
  S   S329      1.0  0.75283  0.35819  0.88620  1.0000
  H   H1465     1.0  0.71983  0.42070  0.22427  1.0000
  H   H1466     1.0  0.88764  0.19765  0.11183  1.0000
  C   C1237     1.0  0.85407  0.35101  0.13314  1.0000
  S   S330      1.0  0.83570  0.22620  0.85000  1.0000
  C   C1238     1.0  0.57000  0.39036  0.03161  1.0000
  H   H1467     1.0  0.67049  0.37694  0.18664  1.0000
  H   H1468     1.0  0.74488  0.18402  0.01325  1.0000
  H   H1469     1.0  0.53114  0.35730  0.11216  1.0000
  H   H1470     1.0  0.70989  0.36756  0.17973  1.0000
  H   H1471     1.0  0.63228  0.32183  0.22101  1.0000
  H   H1472     1.0  0.91648  0.23028  0.86747  1.0000
  C   C1239     1.0  0.66006  0.33765  0.95559  1.0000
  C   C1240     1.0  0.86887  0.37459  0.18861  1.0000
  C   C1241     1.0  0.88240  0.24431  0.12514  1.0000
  H   H1473     1.0  0.83303  0.32241  0.04286  1.0000
  H   H1474     1.0  0.70974  0.30401  0.15019  1.0000
  C   C1242     1.0  0.66650  0.36123  0.23090  1.0000
  C   C1243     1.0  0.54824  0.41244  0.98519  1.0000
  C   C1244     1.0  0.49938  0.42104  0.79631  1.0000
  S   S331      1.0  0.84909  0.23302  0.96477  1.0000
  S   S332      1.0  0.81174  0.26160  0.77872  1.0000
  C   C1245     1.0  0.78023  0.29164  0.85909  1.0000
  H   H1475     1.0  0.69880  0.34449  0.84208  1.0000
  H   H1476     1.0  0.59244  0.34636  0.76780  1.0000
  S   S333      1.0  0.78977  0.32199  0.05986  1.0000
  Fe  Fe163     1.0  0.49525  0.40842  0.03207  1.0000
  C   C1246     1.0  0.68836  0.34169  0.99939  1.0000
  Fe  Fe164     1.0  0.81411  0.20653  0.96131  1.0000
  C   C1247     1.0  0.89280  0.23121  0.11707  1.0000
  S   S334      1.0  0.43032  0.38858  0.15361  1.0000
  Fe  Fe165     1.0  0.46234  0.42621  0.05587  1.0000
  C   C1248     1.0  0.85798  0.23343  0.13376  1.0000
  C   C1249     1.0  0.85407  0.19576  0.12481  1.0000
  C   C1250     1.0  0.54343  0.37667  0.06716  1.0000
  H   H1477     1.0  0.72871  0.19441  0.10089  1.0000
  N   N86       1.0  0.84651  0.35923  0.18100  1.0000
  H   H1478     1.0  0.92186  0.25622  0.92527  1.0000
  H   H1479     1.0  0.76194  0.31474  0.19858  1.0000
  H   H1480     1.0  0.87890  0.40472  0.77221  1.0000
  H   H1481     1.0  0.86037  0.33905  0.14984  1.0000
  H   H1482     1.0  0.78846  0.21381  0.18725  1.0000
  H   H1483     1.0  0.88033  0.28051  0.96517  1.0000
  H   H1484     1.0  0.88570  0.39323  0.14053  1.0000
  C   C1251     1.0  0.67136  0.26805  0.20697  1.0000
  H   H1485     1.0  0.64162  0.32586  0.95922  1.0000
  C   C1252     1.0  0.70754  0.36827  0.94729  1.0000
  C   C1253     1.0  0.87910  0.42197  0.74984  1.0000
  Fe  Fe166     1.0  0.75886  0.32747  0.89742  1.0000
  H   H1486     1.0  0.74239  0.25833  0.01588  1.0000
  H   H1487     1.0  0.50684  0.41000  0.79586  1.0000
  H   H1488     1.0  0.73288  0.19794  0.92725  1.0000
  C   C1254     1.0  0.78275  0.27248  0.02828  1.0000
  C   C1255     1.0  0.62543  0.41504  0.22941  1.0000
  H   H1489     1.0  0.91628  0.29912  0.85118  1.0000
  H   H1490     1.0  0.63027  0.35140  0.81810  1.0000
  C   C1256     1.0  0.76184  0.18552  0.16960  1.0000
  S   S335      1.0  0.90862  0.26961  0.77962  1.0000
  H   H1491     1.0  0.87063  0.36862  0.08335  1.0000
  H   H1492     1.0  0.81441  0.40505  0.21699  1.0000
  H   H1493     1.0  0.83365  0.40663  0.03067  1.0000
  H   H1494     1.0  0.71984  0.33454  0.22938  1.0000
  H   H1495     1.0  0.62393  0.36556  0.86591  1.0000
  H   H1496     1.0  0.75530  0.42907  0.87436  1.0000
  H   H1497     1.0  0.89324  0.26295  0.12488  1.0000
  C   C1257     1.0  0.84020  0.34223  0.00907  1.0000
  H   H1498     1.0  0.80091  0.27711  0.87799  1.0000
  S   S336      1.0  0.67316  0.37930  0.84649  1.0000
  H   H1499     1.0  0.64968  0.30586  0.04415  1.0000
  C   C1258     1.0  0.83220  0.39999  0.07897  1.0000
  C   C1259     1.0  0.66453  0.32644  0.00394  1.0000
  H   H1500     1.0  0.69893  0.34240  0.15630  1.0000
  C   C1260     1.0  0.58847  0.37495  0.86779  1.0000
  C   C1261     1.0  0.69607  0.35654  0.16521  1.0000
  H   H1501     1.0  0.89196  0.33068  0.08561  1.0000
  S   S337      1.0  0.53479  0.42599  0.95407  1.0000
  Fe  Fe167     1.0  0.73289  0.33782  0.99756  1.0000
  H   H1502     1.0  0.71734  0.40049  0.86122  1.0000
  H   H1503     1.0  0.80758  0.32253  0.24274  1.0000
  S   S338      1.0  0.43435  0.34752  0.76818  1.0000
  C   C1262     1.0  0.60407  0.40197  0.75138  1.0000
  C   C1263     1.0  0.74210  0.30003  0.20951  1.0000
  H   H1504     1.0  0.50840  0.41987  0.17954  1.0000
  C   C1264     1.0  0.79284  0.28057  0.84786  1.0000
  C   C1265     1.0  0.84394  0.20958  0.13348  1.0000
  H   H1505     1.0  0.92113  0.30469  0.96518  1.0000
  N   N87       1.0  0.66895  0.34207  0.21625  1.0000
  C   C1266     1.0  0.77569  0.20985  0.16735  1.0000
  S   S339      1.0  0.69071  0.41113  0.05409  1.0000
  H   H1506     1.0  0.75222  0.34640  0.20136  1.0000
  C   C1267     1.0  0.86296  0.29161  0.02613  1.0000
  H   H1507     1.0  0.60850  0.39264  0.12821  1.0000
  H   H1508     1.0  0.56055  0.37456  0.93795  1.0000
  C   C1268     1.0  0.74198  0.24126  0.04210  1.0000
  C   C1269     1.0  0.74257  0.19988  0.11694  1.0000
  H   H1509     1.0  0.81481  0.28444  0.22275  1.0000
  H   H1510     1.0  0.84711  0.37985  0.06104  1.0000
  H   H1511     1.0  0.51206  0.37675  0.07094  1.0000
  C   C1270     1.0  0.43053  0.26973  0.75839  1.0000
  H   H1512     1.0  0.75410  0.25705  0.15554  1.0000
  S   S340      1.0  0.64322  0.41714  0.87880  1.0000
  H   H1513     1.0  0.85959  0.41566  0.77965  1.0000
  H   H1514     1.0  0.60522  0.37480  0.20540  1.0000
  H   H1515     1.0  0.73660  0.32909  0.74943  1.0000
  S   S341      1.0  0.76863  0.36436  0.99850  1.0000
  Fe  Fe168     1.0  0.43686  0.36759  0.10166  1.0000
  H   H1516     1.0  0.86438  0.38036  0.22642  1.0000
  C   C1271     1.0  0.67923  0.36428  0.90365  1.0000
  H   H1517     1.0  0.86180  0.19064  0.01708  1.0000
  C   C1272     1.0  0.83850  0.37567  0.15989  1.0000
  S   S342      1.0  0.46569  0.36898  0.12854  1.0000
  H   H1518     1.0  0.88530  0.36383  0.84466  1.0000
  C   C1273     1.0  0.91592  0.34790  0.83275  1.0000
  C   C1274     1.0  0.87885  0.20721  0.11734  1.0000
  H   H1519     1.0  0.90055  0.32597  0.85731  1.0000
  H   H1520     1.0  0.46158  0.43000  0.74935  1.0000
  H   H1521     1.0  0.47928  0.40641  0.74680  1.0000
  H   H1522     1.0  0.84487  0.35141  0.85202  1.0000
  H   H1523     1.0  0.71376  0.32892  0.84578  1.0000
  H   H1524     1.0  0.72119  0.22388  0.07706  1.0000
  S   S343      1.0  0.75424  0.31026  0.83092  1.0000
  H   H1525     1.0  0.43562  0.42984  0.90346  1.0000
  C   C1275     1.0  0.53260  0.38770  0.04401  1.0000
  H   H1526     1.0  0.68727  0.31605  0.83114  1.0000
  C   C1276     1.0  0.74348  0.25106  0.12918  1.0000
  H   H1527     1.0  0.86535  0.41237  0.88304  1.0000
  H   H1528     1.0  0.74346  0.30256  0.16104  1.0000
  H   H1529     1.0  0.91177  0.23968  0.11084  1.0000
  S   S344      1.0  0.83527  0.27695  0.02090  1.0000
  C   C1277     1.0  0.77324  0.22937  0.13937  1.0000
  H   H1530     1.0  0.81884  0.37695  0.96373  1.0000
  S   S345      1.0  0.46661  0.40516  0.00162  1.0000
  C   C1278     1.0  0.58803  0.40881  0.76984  1.0000
  N   N88       1.0  0.92108  0.36229  0.76462  1.0000
  C   C1279     1.0  0.58964  0.40522  0.20828  1.0000
  C   C1280     1.0  0.70278  0.37972  0.90025  1.0000
  Fe  Fe169     1.0  0.86982  0.25534  0.85259  1.0000
  H   H1531     1.0  0.72359  0.23234  0.16711  1.0000
  S   S346      1.0  0.91428  0.35462  0.18730  1.0000
  S   S347      1.0  0.89682  0.19130  0.76233  1.0000
  C   C1281     1.0  0.58580  0.41535  0.97325  1.0000
  Fe  Fe170     1.0  0.78908  0.38191  0.88764  1.0000
  C   C1282     1.0  0.82140  0.39909  0.18376  1.0000
  C   C1283     1.0  0.87565  0.38753  0.91727  1.0000
  C   C1284     1.0  0.82292  0.34734  0.00830  1.0000
  C   C1285     1.0  0.65292  0.33224  0.18636  1.0000
  S   S348      1.0  0.92217  0.39060  0.99744  1.0000
  C   C1286     1.0  0.89676  0.35494  0.76725  1.0000
  H   H1532     1.0  0.81707  0.41938  0.10793  1.0000
  H   H1533     1.0  0.65914  0.34902  0.13969  1.0000
  C   C1287     1.0  0.83208  0.37274  0.96347  1.0000
  C   C1288     1.0  0.69460  0.28719  0.19993  1.0000
  N   N89       1.0  0.72338  0.35277  0.74683  1.0000
  H   H1534     1.0  0.56006  0.40435  0.85155  1.0000
  H   H1535     1.0  0.58300  0.40361  0.17188  1.0000
  C   C1289     1.0  0.57490  0.42631  0.94988  1.0000
  H   H1536     1.0  0.58826  0.41984  0.21883  1.0000
  C   C1290     1.0  0.84990  0.34131  0.77507  1.0000
  C   C1291     1.0  0.60447  0.38444  0.79969  1.0000
  H   H1537     1.0  0.73829  0.33742  0.15347  1.0000
  C   C1292     1.0  0.78566  0.27977  0.75646  1.0000
  C   C1293     1.0  0.61781  0.35694  0.83541  1.0000
  H   H1538     1.0  0.73811  0.39712  0.21118  1.0000
  C   C1294     1.0  0.82921  0.38371  0.20226  1.0000
  C   C1295     1.0  0.75745  0.22545  0.11070  1.0000
  H   H1539     1.0  0.72547  0.41649  0.09900  1.0000
  S   S349      1.0  0.79662  0.35267  0.89020  1.0000
  C   C1296     1.0  0.79567  0.27480  0.79619  1.0000
  Fe  Fe171     1.0  0.82507  0.25298  0.84920  1.0000
  S   S350      1.0  0.80083  0.23113  0.96023  1.0000
  C   C1297     1.0  0.52727  0.41915  0.23591  1.0000
  C   C1298     1.0  0.57246  0.39901  0.83696  1.0000
  C   C1299     1.0  0.88032  0.35691  0.81224  1.0000
  Fe  Fe172     1.0  0.67577  0.41902  0.98671  1.0000
  C   C1300     1.0  0.61675  0.39503  0.16114  1.0000
  C   C1301     1.0  0.86589  0.30505  0.06185  1.0000
  H   H1540     1.0  0.78264  0.28864  0.99909  1.0000
  H   H1541     1.0  0.70171  0.37157  0.11621  1.0000
  H   H1542     1.0  0.88003  0.35833  0.96332  1.0000
  H   H1543     1.0  0.59764  0.33805  0.86836  1.0000
  S   S351      1.0  0.82162  0.42443  0.80717  1.0000
  C   C1302     1.0  0.83995  0.38450  0.09718  1.0000
  H   H1544     1.0  0.43000  0.42594  0.83928  1.0000
  H   H1545     1.0  0.84997  0.24374  0.14027  1.0000
  S   S352      1.0  0.69470  0.32745  0.05715  1.0000
  C   C1303     1.0  0.48390  0.41900  0.76881  1.0000
  C   C1304     1.0  0.82287  0.40719  0.12226  1.0000
  H   H1546     1.0  0.84129  0.27125  0.24175  1.0000
  C   C1305     1.0  0.77013  0.29649  0.81933  1.0000
  H   H1547     1.0  0.81182  0.42290  0.93569  1.0000
  C   C1306     1.0  0.90568  0.30466  0.99238  1.0000
  H   H1548     1.0  0.85043  0.30495  0.08932  1.0000
  H   H1549     1.0  0.72589  0.38010  0.94397  1.0000
  Fe  Fe173     1.0  0.77380  0.33341  0.00115  1.0000
  H   H1550     1.0  0.58767  0.36194  0.90847  1.0000
  C   C1307     1.0  0.73382  0.33157  0.20562  1.0000
  H   H1551     1.0  0.79376  0.28069  0.05199  1.0000
  C   C1308     1.0  0.57274  0.38218  0.88568  1.0000
  C   C1309     1.0  0.70494  0.33474  0.81961  1.0000
  C   C1310     1.0  0.50573  0.41099  0.22851  1.0000
  S   S353      1.0  0.64487  0.38124  0.99793  1.0000
  H   H1552     1.0  0.60638  0.42618  0.94600  1.0000
  H   H1553     1.0  0.42885  0.35508  0.98456  1.0000
  H   H1554     1.0  0.65441  0.41094  0.76294  1.0000
  Fe  Fe174     1.0  0.62464  0.39869  0.98968  1.0000
  C   C1311     1.0  0.77278  0.29044  0.76826  1.0000
  H   H1555     1.0  0.76840  0.19819  0.89820  1.0000
  C   C1312     1.0  0.90918  0.31950  0.02448  1.0000
  C   C1313     1.0  0.64959  0.42060  0.21314  1.0000
  S   S354      1.0  0.90787  0.41190  0.85389  1.0000
  H   H1556     1.0  0.66905  0.27088  0.16373  1.0000
  C   C1314     1.0  0.86670  0.36250  0.96405  1.0000
  H   H1557     1.0  0.63654  0.40175  0.13233  1.0000
  Fe  Fe175     1.0  0.66636  0.40297  0.88659  1.0000
  H   H1558     1.0  0.83209  0.33626  0.77791  1.0000
  C   C1315     1.0  0.74421  0.39675  0.74436  1.0000
  H   H1559     1.0  0.77649  0.21142  0.63884  1.0000
  H   H1560     1.0  0.79757  0.19823  0.57321  1.0000
  H   H1561     1.0  0.78783  0.27537  0.71644  1.0000
  S   S355      1.0  0.71273  0.18216  0.29265  1.0000
  H   H1562     1.0  0.89131  0.28834  0.69412  1.0000
  Fe  Fe176     1.0  0.90480  0.27743  0.33343  1.0000
  H   H1563     1.0  0.52284  0.37471  0.53076  1.0000
  C   C1316     1.0  0.87103  0.25450  0.65260  1.0000
  C   C1317     1.0  0.74606  0.37741  0.73522  1.0000
  N   N90       1.0  0.76374  0.24853  0.47051  1.0000
  C   C1318     1.0  0.45089  0.41680  0.54174  1.0000
  H   H1564     1.0  0.90699  0.21302  0.36179  1.0000
  S   S356      1.0  0.69886  0.42694  0.33032  1.0000
  C   C1319     1.0  0.88886  0.34620  0.72524  1.0000
  H   H1565     1.0  0.91602  0.23591  0.45371  1.0000
  H   H1566     1.0  0.56644  0.41294  0.63273  1.0000
  C   C1320     1.0  0.82825  0.19935  0.73996  1.0000
  Fe  Fe177     1.0  0.66480  0.18553  0.41010  1.0000
  C   C1321     1.0  0.69679  0.24620  0.48594  1.0000
  S   S357      1.0  0.76016  0.25276  0.27256  1.0000
  C   C1322     1.0  0.78998  0.20754  0.55392  1.0000
  H   H1567     1.0  0.58755  0.42160  0.73181  1.0000
  C   C1323     1.0  0.65452  0.24129  0.32398  1.0000
  C   C1324     1.0  0.65634  0.20915  0.50669  1.0000
  H   H1568     1.0  0.78129  0.28595  0.38463  1.0000
  C   C1325     1.0  0.85393  0.34052  0.37940  1.0000
  H   H1569     1.0  0.74815  0.20161  0.33642  1.0000
  H   H1570     1.0  0.65137  0.41877  0.35274  1.0000
  H   H1571     1.0  0.44520  0.33081  0.30361  1.0000
  Fe  Fe178     1.0  0.85485  0.25291  0.33173  1.0000
  H   H1572     1.0  0.81956  0.33834  0.28678  1.0000
  C   C1326     1.0  0.42733  0.31955  0.30163  1.0000
  H   H1573     1.0  0.80217  0.28583  0.41470  1.0000
  H   H1574     1.0  0.63911  0.22313  0.37198  1.0000
  H   H1575     1.0  0.92159  0.28342  0.62799  1.0000
  S   S358      1.0  0.90474  0.30928  0.34713  1.0000
  C   C1327     1.0  0.85321  0.20781  0.71878  1.0000
  H   H1576     1.0  0.79423  0.26938  0.36846  1.0000
  H   H1577     1.0  0.45845  0.36541  0.39124  1.0000
  C   C1328     1.0  0.71049  0.35938  0.71418  1.0000
  H   H1578     1.0  0.87529  0.29567  0.56195  1.0000
  H   H1579     1.0  0.85808  0.20368  0.26562  1.0000
  C   C1329     1.0  0.71302  0.39633  0.37751  1.0000
  H   H1580     1.0  0.75166  0.22604  0.42159  1.0000
  C   C1330     1.0  0.64382  0.20462  0.57060  1.0000
  C   C1331     1.0  0.80951  0.22896  0.29964  1.0000
  S   S359      1.0  0.69103  0.21605  0.30105  1.0000
  C   C1332     1.0  0.75224  0.25626  0.51353  1.0000
  H   H1581     1.0  0.77319  0.36865  0.71103  1.0000
  H   H1582     1.0  0.88194  0.18704  0.28531  1.0000
  C   C1333     1.0  0.82027  0.40598  0.54772  1.0000
  C   C1334     1.0  0.78327  0.40026  0.54428  1.0000
  H   H1583     1.0  0.73801  0.24229  0.43225  1.0000
  H   H1584     1.0  0.86793  0.35601  0.32762  1.0000
  H   H1585     1.0  0.49610  0.36751  0.52207  1.0000
  H   H1586     1.0  0.80494  0.21164  0.73480  1.0000
  H   H1587     1.0  0.83036  0.32126  0.26206  1.0000
  S   S360      1.0  0.84161  0.27664  0.51047  1.0000
  H   H1588     1.0  0.83872  0.20489  0.60568  1.0000
  H   H1589     1.0  0.72478  0.37636  0.66178  1.0000
  H   H1590     1.0  0.68027  0.37211  0.24578  1.0000
  H   H1591     1.0  0.69057  0.34735  0.29474  1.0000
  H   H1592     1.0  0.74239  0.31632  0.30007  1.0000
  H   H1593     1.0  0.80331  0.28384  0.56422  1.0000
  H   H1594     1.0  0.71713  0.26241  0.45290  1.0000
  S   S361      1.0  0.86319  0.24454  0.41415  1.0000
  H   H1595     1.0  0.74518  0.35087  0.66753  1.0000
  N   N91       1.0  0.89329  0.19605  0.46729  1.0000
  Fe  Fe179     1.0  0.72084  0.21476  0.31615  1.0000
  Fe  Fe180     1.0  0.75004  0.35005  0.38286  1.0000
  H   H1596     1.0  0.63007  0.28601  0.28295  1.0000
  H   H1597     1.0  0.62438  0.35639  0.72461  1.0000
  H   H1598     1.0  0.51531  0.41972  0.41918  1.0000
  C   C1335     1.0  0.77805  0.21492  0.59086  1.0000
  H   H1599     1.0  0.87649  0.22266  0.50380  1.0000
  H   H1600     1.0  0.88958  0.22205  0.40268  1.0000
  C   C1336     1.0  0.89100  0.29696  0.64809  1.0000
  Fe  Fe181     1.0  0.64869  0.42516  0.53392  1.0000
  S   S362      1.0  0.60749  0.40785  0.59490  1.0000
  Fe  Fe182     1.0  0.86252  0.27732  0.41950  1.0000
  C   C1337     1.0  0.77970  0.24385  0.27867  1.0000
  H   H1601     1.0  0.69268  0.23300  0.41558  1.0000
  H   H1602     1.0  0.61734  0.37778  0.69154  1.0000
  H   H1603     1.0  0.65252  0.41479  0.68893  1.0000
  C   C1338     1.0  0.72065  0.41003  0.26518  1.0000
  C   C1339     1.0  0.78382  0.22566  0.46519  1.0000
  H   H1604     1.0  0.49639  0.37855  0.40370  1.0000
  C   C1340     1.0  0.83866  0.30141  0.47716  1.0000
  C   C1341     1.0  0.85705  0.32214  0.41091  1.0000
  H   H1605     1.0  0.43626  0.38656  0.40390  1.0000
  C   C1342     1.0  0.64108  0.29296  0.30619  1.0000
  H   H1606     1.0  0.64674  0.35079  0.27198  1.0000
  H   H1607     1.0  0.77955  0.43034  0.54717  1.0000
  C   C1343     1.0  0.76903  0.22782  0.56517  1.0000
  H   H1608     1.0  0.45052  0.31602  0.52232  1.0000
  C   C1344     1.0  0.73179  0.38249  0.31080  1.0000
  C   C1345     1.0  0.91651  0.21903  0.45934  1.0000
  C   C1346     1.0  0.81754  0.29977  0.51284  1.0000
  C   C1347     1.0  0.79057  0.40508  0.71117  1.0000
  H   H1609     1.0  0.91877  0.21300  0.50314  1.0000
  H   H1610     1.0  0.43647  0.27643  0.66118  1.0000
  H   H1611     1.0  0.51568  0.42089  0.57047  1.0000
  H   H1612     1.0  0.74677  0.26769  0.48888  1.0000
  C   C1348     1.0  0.89164  0.29496  0.54969  1.0000
  H   H1613     1.0  0.61003  0.41090  0.38216  1.0000
  H   H1614     1.0  0.76042  0.23338  0.59601  1.0000
  C   C1349     1.0  0.86383  0.38168  0.61745  1.0000
  H   H1615     1.0  0.56061  0.40772  0.50892  1.0000
  C   C1350     1.0  0.84787  0.18242  0.29667  1.0000
  H   H1616     1.0  0.79193  0.37325  0.54374  1.0000
  H   H1617     1.0  0.83119  0.39875  0.54990  1.0000
  H   H1618     1.0  0.71948  0.28109  0.33843  1.0000
  H   H1619     1.0  0.91758  0.42762  0.66074  1.0000
  S   S363      1.0  0.44297  0.33803  0.60600  1.0000
  C   C1351     1.0  0.52399  0.40759  0.29911  1.0000
  C   C1352     1.0  0.79104  0.42367  0.54626  1.0000
  H   H1620     1.0  0.78761  0.42703  0.39488  1.0000
  C   C1353     1.0  0.86417  0.20158  0.54003  1.0000
  C   C1354     1.0  0.79799  0.39148  0.54456  1.0000
  C   C1355     1.0  0.82841  0.42987  0.54770  1.0000
  C   C1356     1.0  0.83731  0.36780  0.65308  1.0000
  H   H1621     1.0  0.85939  0.33185  0.69900  1.0000
  H   H1622     1.0  0.71306  0.32054  0.72560  1.0000
  C   C1357     1.0  0.79275  0.21281  0.49134  1.0000
  C   C1358     1.0  0.72314  0.38269  0.37033  1.0000
  Fe  Fe183     1.0  0.92012  0.20985  0.65220  1.0000
  C   C1359     1.0  0.43004  0.30502  0.55360  1.0000
  C   C1360     1.0  0.78351  0.20931  0.32390  1.0000
  H   H1623     1.0  0.89305  0.23996  0.66312  1.0000
  S   S364      1.0  0.69535  0.18642  0.42648  1.0000
  C   C1361     1.0  0.48090  0.39196  0.28458  1.0000
  H   H1624     1.0  0.78692  0.22981  0.41585  1.0000
  H   H1625     1.0  0.61843  0.25244  0.38692  1.0000
  H   H1626     1.0  0.67711  0.42582  0.24408  1.0000
  C   C1362     1.0  0.72994  0.33779  0.72112  1.0000
  C   C1363     1.0  0.67480  0.32692  0.31302  1.0000
  H   H1627     1.0  0.69608  0.34222  0.71245  1.0000
  C   C1364     1.0  0.61155  0.41201  0.29130  1.0000
  C   C1365     1.0  0.76996  0.38225  0.71847  1.0000
  H   H1628     1.0  0.42743  0.28888  0.39700  1.0000
  C   C1366     1.0  0.88039  0.40216  0.62556  1.0000
  H   H1629     1.0  0.57559  0.38524  0.25472  1.0000
  C   C1367     1.0  0.91851  0.28979  0.58581  1.0000
  C   C1368     1.0  0.84533  0.24517  0.67461  1.0000
  H   H1630     1.0  0.73422  0.23844  0.56114  1.0000
  C   C1369     1.0  0.82431  0.21801  0.71771  1.0000
  C   C1370     1.0  0.84252  0.19155  0.59828  1.0000
  S   S365      1.0  0.89600  0.28311  0.25103  1.0000
  C   C1371     1.0  0.64434  0.41806  0.31832  1.0000
  Fe  Fe184     1.0  0.73198  0.30301  0.50858  1.0000
  C   C1372     1.0  0.86556  0.33920  0.72998  1.0000
  S   S366      1.0  0.63882  0.18877  0.48004  1.0000
  C   C1373     1.0  0.78633  0.27347  0.40685  1.0000
  C   C1374     1.0  0.74424  0.23167  0.45639  1.0000
  H   H1631     1.0  0.92487  0.37881  0.56690  1.0000
  H   H1632     1.0  0.85625  0.19332  0.73628  1.0000
  C   C1375     1.0  0.84363  0.39511  0.70437  1.0000
  C   C1376     1.0  0.64817  0.40027  0.73623  1.0000
  C   C1377     1.0  0.65796  0.22008  0.59325  1.0000
  H   H1633     1.0  0.84122  0.25893  0.65988  1.0000
  H   H1634     1.0  0.76597  0.26946  0.52519  1.0000
  C   C1378     1.0  0.69840  0.28415  0.25525  1.0000
  C   C1379     1.0  0.92260  0.39216  0.34503  1.0000
  H   H1635     1.0  0.91564  0.18568  0.41903  1.0000
  H   H1636     1.0  0.67854  0.25621  0.36258  1.0000
  H   H1637     1.0  0.87258  0.18888  0.41496  1.0000
  S   S367      1.0  0.78319  0.37939  0.38766  1.0000
  Fe  Fe185     1.0  0.89360  0.31324  0.26915  1.0000
  C   C1380     1.0  0.82725  0.37447  0.69656  1.0000
  C   C1381     1.0  0.72345  0.30024  0.30915  1.0000
  S   S368      1.0  0.70175  0.25908  0.58181  1.0000
  N   N92       1.0  0.89284  0.28353  0.60958  1.0000
  H   H1638     1.0  0.48668  0.39642  0.50047  1.0000
  C   C1382     1.0  0.80604  0.26351  0.25132  1.0000
  S   S369      1.0  0.66766  0.40581  0.52767  1.0000
  H   H1639     1.0  0.90666  0.37130  0.36115  1.0000
  H   H1640     1.0  0.83492  0.39997  0.73741  1.0000
  C   C1383     1.0  0.47761  0.38029  0.34773  1.0000
  H   H1641     1.0  0.72672  0.21285  0.50307  1.0000
  S   S370      1.0  0.55078  0.41852  0.30942  1.0000
  H   H1642     1.0  0.64228  0.26511  0.44521  1.0000
  S   S371      1.0  0.75503  0.38256  0.54182  1.0000
  H   H1643     1.0  0.90933  0.31586  0.51186  1.0000
  H   H1644     1.0  0.52059  0.39644  0.59398  1.0000
  C   C1384     1.0  0.77192  0.23384  0.50092  1.0000
  C   C1385     1.0  0.44102  0.41818  0.49930  1.0000
  C   C1386     1.0  0.76852  0.21677  0.31433  1.0000
  H   H1645     1.0  0.59343  0.40866  0.30701  1.0000
  C   C1387     1.0  0.68291  0.22972  0.46465  1.0000
  C   C1388     1.0  0.66795  0.30719  0.37239  1.0000
  Fe  Fe186     1.0  0.75507  0.35761  0.49665  1.0000
  Fe  Fe187     1.0  0.78908  0.34857  0.41534  1.0000
  H   H1646     1.0  0.87357  0.32379  0.38339  1.0000
  S   S372      1.0  0.85124  0.28350  0.34235  1.0000
  H   H1647     1.0  0.79777  0.31662  0.50810  1.0000
  H   H1648     1.0  0.64834  0.21593  0.64356  1.0000
  C   C1389     1.0  0.82096  0.25605  0.26212  1.0000
  C   C1390     1.0  0.65141  0.24505  0.26880  1.0000
  C   C1391     1.0  0.73093  0.39662  0.25784  1.0000
  C   C1392     1.0  0.62096  0.41343  0.33499  1.0000
  H   H1649     1.0  0.80255  0.20763  0.46197  1.0000
  S   S373      1.0  0.82620  0.21938  0.32529  1.0000
  H   H1650     1.0  0.87276  0.29439  0.66460  1.0000
  H   H1651     1.0  0.62331  0.18860  0.60338  1.0000
  H   H1652     1.0  0.91403  0.40208  0.35537  1.0000
  C   C1393     1.0  0.51176  0.40271  0.56904  1.0000
  H   H1653     1.0  0.90066  0.41184  0.59704  1.0000
  C   C1394     1.0  0.68442  0.24097  0.55088  1.0000
  C   C1395     1.0  0.81430  0.31817  0.48097  1.0000
  H   H1654     1.0  0.72403  0.37217  0.41111  1.0000
  H   H1655     1.0  0.76596  0.42310  0.36701  1.0000
  C   C1396     1.0  0.87010  0.18486  0.52920  1.0000
  H   H1656     1.0  0.82806  0.37837  0.25000  1.0000
  C   C1397     1.0  0.51696  0.38362  0.50021  1.0000
  H   H1657     1.0  0.92088  0.27982  0.55734  1.0000
  C   C1398     1.0  0.87071  0.40953  0.66950  1.0000
  H   H1658     1.0  0.52720  0.38786  0.44877  1.0000
  H   H1659     1.0  0.90722  0.31881  0.61833  1.0000
  C   C1399     1.0  0.64760  0.28043  0.39904  1.0000
  C   C1400     1.0  0.50749  0.41405  0.47266  1.0000
  S   S374      1.0  0.75851  0.32091  0.40005  1.0000
  H   H1660     1.0  0.77472  0.18841  0.35260  1.0000
  H   H1661     1.0  0.82445  0.35177  0.64728  1.0000
  H   H1662     1.0  0.63362  0.22992  0.27382  1.0000
  H   H1663     1.0  0.80873  0.40863  0.69781  1.0000
  S   S375      1.0  0.74254  0.36380  0.30149  1.0000
  H   H1664     1.0  0.92178  0.33409  0.73851  1.0000
  H   H1665     1.0  0.76501  0.29417  0.73742  1.0000
  H   H1666     1.0  0.49046  0.38656  0.59987  1.0000
  C   C1401     1.0  0.76501  0.41958  0.73650  1.0000
  H   H1667     1.0  0.70609  0.39614  0.42384  1.0000
  S   S376      1.0  0.72131  0.33006  0.49053  1.0000
  H   H1668     1.0  0.70895  0.30121  0.34049  1.0000
  H   H1669     1.0  0.88936  0.28290  0.52467  1.0000
  H   H1670     1.0  0.89763  0.42818  0.43088  1.0000
  S   S377      1.0  0.82889  0.36077  0.36870  1.0000
  H   H1671     1.0  0.67845  0.31282  0.39797  1.0000
  S   S378      1.0  0.76314  0.32870  0.52520  1.0000
  S   S379      1.0  0.45371  0.38316  0.27764  1.0000
  C   C1402     1.0  0.49910  0.38775  0.35482  1.0000
  C   C1403     1.0  0.65873  0.42186  0.25729  1.0000
  C   C1404     1.0  0.61335  0.36368  0.73906  1.0000
  H   H1672     1.0  0.75815  0.42860  0.48429  1.0000
  H   H1673     1.0  0.90010  0.34418  0.68926  1.0000
  C   C1405     1.0  0.71159  0.40982  0.32503  1.0000
  C   C1406     1.0  0.89042  0.20534  0.40933  1.0000
  H   H1674     1.0  0.44279  0.39748  0.58127  1.0000
  C   C1407     1.0  0.63418  0.27335  0.36609  1.0000
  N   N93       1.0  0.52206  0.40822  0.49948  1.0000
  H   H1675     1.0  0.66093  0.39475  0.72174  1.0000
  H   H1676     1.0  0.91444  0.38574  0.24720  1.0000
  C   C1408     1.0  0.67754  0.26055  0.31774  1.0000
  C   C1409     1.0  0.78806  0.42358  0.72053  1.0000
  C   C1410     1.0  0.66154  0.32051  0.27817  1.0000
  C   C1411     1.0  0.87435  0.23491  0.67608  1.0000
  H   H1677     1.0  0.80660  0.36365  0.72426  1.0000
  C   C1412     1.0  0.56742  0.42678  0.47178  1.0000
  H   H1678     1.0  0.87157  0.37635  0.58382  1.0000
  C   C1413     1.0  0.83235  0.33832  0.41388  1.0000
  H   H1679     1.0  0.61597  0.41023  0.69879  1.0000
  H   H1680     1.0  0.74160  0.42990  0.44042  1.0000
  H   H1681     1.0  0.43104  0.31177  0.26813  1.0000
  H   H1682     1.0  0.45072  0.28485  0.74001  1.0000
  N   N94       1.0  0.72386  0.30362  0.24563  1.0000
  C   C1414     1.0  0.82503  0.33429  0.24596  1.0000
  H   H1683     1.0  0.42636  0.41455  0.67375  1.0000
  C   C1415     1.0  0.55012  0.43059  0.46048  1.0000
  H   H1684     1.0  0.50781  0.43030  0.47787  1.0000
  H   H1685     1.0  0.91874  0.41477  0.24393  1.0000
  H   H1686     1.0  0.69977  0.36506  0.74062  1.0000
  H   H1687     1.0  0.75576  0.51911  0.87763  1.0000
  H   H1688     1.0  0.90221  0.50606  0.91255  1.0000
  H   H1689     1.0  0.79485  0.55523  0.06765  1.0000
  H   H1690     1.0  0.49775  0.53496  0.84074  1.0000
  H   H1691     1.0  0.44688  0.59527  0.10398  1.0000
  H   H1692     1.0  0.49324  0.62465  0.82759  1.0000
  H   H1693     1.0  0.74772  0.47859  0.88285  1.0000
  H   H1694     1.0  0.79947  0.46426  0.92871  1.0000
  C   C1416     1.0  0.66955  0.50877  0.90661  1.0000
  H   H1695     1.0  0.78445  0.61328  0.14918  1.0000
  H   H1696     1.0  0.65712  0.50875  0.88800  1.0000
  H   H1697     1.0  0.76539  0.44523  0.97590  1.0000
  H   H1698     1.0  0.82186  0.48498  0.80608  1.0000
  S   S380      1.0  0.87511  0.52815  0.00865  1.0000
  H   H1699     1.0  0.92542  0.57961  0.85152  1.0000
  C   C1417     1.0  0.43890  0.44096  0.85362  1.0000
  S   S381      1.0  0.77646  0.63956  0.80900  1.0000
  Fe  Fe188     1.0  0.80892  0.64191  0.74407  1.0000
  C   C1418     1.0  0.50156  0.64221  0.83229  1.0000
  H   H1700     1.0  0.71403  0.49836  0.88320  1.0000
  C   C1419     1.0  0.52384  0.54458  0.07915  1.0000
  S   S382      1.0  0.57636  0.49052  0.20503  1.0000
  H   H1701     1.0  0.46703  0.49092  0.83018  1.0000
  H   H1702     1.0  0.57476  0.66307  0.06660  1.0000
  H   H1703     1.0  0.53692  0.52152  0.81097  1.0000
  C   C1420     1.0  0.90219  0.60677  0.75744  1.0000
  H   H1704     1.0  0.55726  0.48433  0.89088  1.0000
  H   H1705     1.0  0.43188  0.62470  0.13552  1.0000
  Fe  Fe189     1.0  0.61833  0.67066  0.76922  1.0000
  H   H1706     1.0  0.70967  0.58067  0.09110  1.0000
  S   S383      1.0  0.77310  0.50622  0.06820  1.0000
  C   C1421     1.0  0.59534  0.53644  0.84613  1.0000
  C   C1422     1.0  0.83735  0.44803  0.82906  1.0000
  C   C1423     1.0  0.52242  0.52588  0.12837  1.0000
  N   N95       1.0  0.59974  0.65819  0.09489  1.0000
  C   C1424     1.0  0.75999  0.57084  0.97510  1.0000
  H   H1707     1.0  0.57243  0.63471  0.07030  1.0000
  C   C1425     1.0  0.73537  0.54070  0.18513  1.0000
  H   H1708     1.0  0.53629  0.56560  0.06407  1.0000
  C   C1426     1.0  0.47949  0.45085  0.23825  1.0000
  H   H1709     1.0  0.53159  0.61751  0.77593  1.0000
  C   C1427     1.0  0.91826  0.48461  0.91071  1.0000
  H   H1710     1.0  0.73109  0.55458  0.78446  1.0000
  S   S384      1.0  0.60289  0.62828  0.82498  1.0000
  C   C1428     1.0  0.60543  0.59888  0.20102  1.0000
  H   H1711     1.0  0.44800  0.57955  0.88773  1.0000
  C   C1429     1.0  0.49409  0.50961  0.06691  1.0000
  C   C1430     1.0  0.80870  0.51103  0.85808  1.0000
  C   C1431     1.0  0.70164  0.50291  0.90397  1.0000
  H   H1712     1.0  0.90503  0.46520  0.83530  1.0000
  H   H1713     1.0  0.58035  0.58474  0.93880  1.0000
  H   H1714     1.0  0.66247  0.54586  0.16393  1.0000
  H   H1715     1.0  0.64995  0.49291  0.75429  1.0000
  H   H1716     1.0  0.77939  0.52385  0.19981  1.0000
  C   C1432     1.0  0.62365  0.64517  0.13574  1.0000
  H   H1717     1.0  0.64283  0.63246  0.17243  1.0000
  C   C1433     1.0  0.58484  0.55494  0.97480  1.0000
  C   C1434     1.0  0.47398  0.43293  0.76998  1.0000
  H   H1718     1.0  0.74543  0.59246  0.95396  1.0000
  H   H1719     1.0  0.51084  0.49589  0.89402  1.0000
  H   H1720     1.0  0.85004  0.59215  0.93228  1.0000
  C   C1435     1.0  0.43514  0.55549  0.13454  1.0000
  H   H1721     1.0  0.77839  0.55402  0.99416  1.0000
  H   H1722     1.0  0.56744  0.45587  0.81159  1.0000
  C   C1436     1.0  0.90290  0.49101  0.94123  1.0000
  C   C1437     1.0  0.72818  0.61859  0.83038  1.0000
  H   H1723     1.0  0.60668  0.58401  0.22875  1.0000
  C   C1438     1.0  0.74645  0.65112  0.18355  1.0000
  C   C1439     1.0  0.68600  0.50347  0.87881  1.0000
  C   C1440     1.0  0.47881  0.54865  0.80537  1.0000
  C   C1441     1.0  0.43631  0.45234  0.00439  1.0000
  C   C1442     1.0  0.51706  0.57670  0.80967  1.0000
  H   H1724     1.0  0.89269  0.50978  0.08596  1.0000
  C   C1443     1.0  0.47672  0.48160  0.82731  1.0000
  H   H1725     1.0  0.91993  0.64201  0.98841  1.0000
  H   H1726     1.0  0.43233  0.65312  0.11595  1.0000
  H   H1727     1.0  0.75956  0.60581  0.09202  1.0000
  C   C1444     1.0  0.58506  0.57630  0.97206  1.0000
  C   C1445     1.0  0.66185  0.63355  0.02330  1.0000
  H   H1728     1.0  0.55039  0.49982  0.97100  1.0000
  H   H1729     1.0  0.75162  0.53699  0.74938  1.0000
  C   C1446     1.0  0.90501  0.62653  0.03973  1.0000
  H   H1730     1.0  0.58706  0.66221  0.18033  1.0000
  H   H1731     1.0  0.70647  0.64058  0.99077  1.0000
  C   C1447     1.0  0.66372  0.65257  0.80700  1.0000
  H   H1732     1.0  0.57008  0.56334  0.78215  1.0000
  H   H1733     1.0  0.43364  0.46853  0.17617  1.0000
  S   S385      1.0  0.62264  0.54878  0.22609  1.0000
  H   H1734     1.0  0.45037  0.49313  0.95379  1.0000
  H   H1735     1.0  0.43560  0.59268  0.81905  1.0000
  N   N96       1.0  0.46980  0.66261  0.07308  1.0000
  Fe  Fe190     1.0  0.63996  0.50168  0.11500  1.0000
  H   H1736     1.0  0.64412  0.61177  0.82978  1.0000
  C   C1448     1.0  0.70281  0.64627  0.94947  1.0000
  C   C1449     1.0  0.43754  0.54243  0.95358  1.0000
  H   H1737     1.0  0.89215  0.43785  0.75751  1.0000
  N   N97       1.0  0.78156  0.46573  0.86995  1.0000
  C   C1450     1.0  0.69806  0.58560  0.11425  1.0000
  C   C1451     1.0  0.91738  0.46430  0.95417  1.0000
  H   H1738     1.0  0.81487  0.63533  0.95642  1.0000
  H   H1739     1.0  0.51107  0.55109  0.00985  1.0000
  C   C1452     1.0  0.46990  0.66734  0.00936  1.0000
  S   S386      1.0  0.51019  0.57714  0.23472  1.0000
  C   C1453     1.0  0.50504  0.43708  0.82493  1.0000
  H   H1740     1.0  0.66263  0.62621  0.06914  1.0000
  H   H1741     1.0  0.75867  0.45393  0.10249  1.0000
  C   C1454     1.0  0.57570  0.53650  0.83906  1.0000
  C   C1455     1.0  0.43194  0.55891  0.92575  1.0000
  H   H1742     1.0  0.52452  0.47219  0.13197  1.0000
  H   H1743     1.0  0.54643  0.43429  0.19257  1.0000
  C   C1456     1.0  0.59449  0.57346  0.06085  1.0000
  C   C1457     1.0  0.58333  0.46993  0.76040  1.0000
  H   H1744     1.0  0.90390  0.67198  0.93734  1.0000
  H   H1745     1.0  0.71412  0.52435  0.11000  1.0000
  C   C1458     1.0  0.75396  0.63246  0.78337  1.0000
  C   C1459     1.0  0.90618  0.51692  0.20620  1.0000
  C   C1460     1.0  0.58330  0.59068  0.19755  1.0000
  H   H1746     1.0  0.69039  0.60365  0.84589  1.0000
  H   H1747     1.0  0.50021  0.46307  0.84936  1.0000
  S   S387      1.0  0.47188  0.65055  0.79097  1.0000
  N   N98       1.0  0.54848  0.51192  0.88134  1.0000
  S   S388      1.0  0.55437  0.68108  0.88060  1.0000
  H   H1748     1.0  0.48344  0.50356  0.04204  1.0000
  C   C1461     1.0  0.92602  0.47730  0.81717  1.0000
  H   H1749     1.0  0.46005  0.67612  0.00131  1.0000
  Fe  Fe191     1.0  0.80763  0.50776  0.05228  1.0000
  C   C1462     1.0  0.77052  0.51677  0.87201  1.0000
  C   C1463     1.0  0.88605  0.60078  0.05484  1.0000
  S   S389      1.0  0.67811  0.51057  0.06343  1.0000
  H   H1750     1.0  0.47316  0.47177  0.87824  1.0000
  C   C1464     1.0  0.80292  0.47313  0.80959  1.0000
  H   H1751     1.0  0.70339  0.63824  0.12176  1.0000
  C   C1465     1.0  0.79362  0.53689  0.86304  1.0000
  C   C1466     1.0  0.68280  0.51062  0.98851  1.0000
  C   C1467     1.0  0.74694  0.45619  0.08419  1.0000
  H   H1752     1.0  0.73994  0.43845  0.92149  1.0000
  Fe  Fe192     1.0  0.86159  0.55228  0.01483  1.0000
  H   H1753     1.0  0.49494  0.64943  0.99397  1.0000
  C   C1468     1.0  0.53077  0.51497  0.86431  1.0000
  H   H1754     1.0  0.68974  0.67839  0.89060  1.0000
  C   C1469     1.0  0.84018  0.46388  0.90737  1.0000
  H   H1755     1.0  0.91731  0.58542  0.91780  1.0000
  C   C1470     1.0  0.49373  0.65798  0.81957  1.0000
  C   C1471     1.0  0.80027  0.59480  0.97644  1.0000
  H   H1756     1.0  0.86602  0.59959  0.80253  1.0000
  C   C1472     1.0  0.87100  0.49446  0.78909  1.0000
  C   C1473     1.0  0.80000  0.61691  0.96228  1.0000
  H   H1757     1.0  0.59834  0.58066  0.09399  1.0000
  H   H1758     1.0  0.66851  0.59618  0.04742  1.0000
  C   C1474     1.0  0.88674  0.61446  0.77413  1.0000
  Fe  Fe193     1.0  0.86247  0.67752  0.09510  1.0000
  C   C1475     1.0  0.65611  0.57264  0.18189  1.0000
  C   C1476     1.0  0.52018  0.64914  0.85122  1.0000
  S   S390      1.0  0.82556  0.51898  0.11257  1.0000
  Fe  Fe194     1.0  0.75621  0.67779  0.00437  1.0000
  H   H1759     1.0  0.56753  0.56948  0.22238  1.0000
  H   H1760     1.0  0.45742  0.55055  0.93692  1.0000
  H   H1761     1.0  0.60834  0.46385  0.78187  1.0000
  C   C1477     1.0  0.48186  0.65004  0.08705  1.0000
  H   H1762     1.0  0.51682  0.43830  0.84712  1.0000
  S   S391      1.0  0.87957  0.65097  0.78167  1.0000
  C   C1478     1.0  0.90232  0.45146  0.02350  1.0000
  C   C1479     1.0  0.71637  0.49272  0.24122  1.0000
  H   H1763     1.0  0.75596  0.45630  0.83110  1.0000
  C   C1480     1.0  0.65765  0.61831  0.89711  1.0000
  S   S392      1.0  0.59340  0.61464  0.00440  1.0000
  N   N99       1.0  0.46672  0.46217  0.80450  1.0000
  H   H1764     1.0  0.73799  0.65067  0.15230  1.0000
  C   C1481     1.0  0.44258  0.64530  0.12759  1.0000
  C   C1482     1.0  0.77103  0.59324  0.15889  1.0000
  S   S393      1.0  0.81633  0.47926  0.05021  1.0000
  H   H1765     1.0  0.73710  0.50115  0.02564  1.0000
  H   H1766     1.0  0.80015  0.45524  0.80886  1.0000
  H   H1767     1.0  0.52525  0.46301  0.20802  1.0000
  C   C1483     1.0  0.77950  0.57161  0.98326  1.0000
  H   H1768     1.0  0.55302  0.49444  0.82123  1.0000
  H   H1769     1.0  0.71170  0.66779  0.92919  1.0000
  H   H1770     1.0  0.65598  0.60404  0.18988  1.0000
  H   H1771     1.0  0.59080  0.51881  0.88361  1.0000
  C   C1484     1.0  0.50583  0.49812  0.15051  1.0000
  C   C1485     1.0  0.90446  0.63248  0.09077  1.0000
  S   S394      1.0  0.62015  0.48761  0.22413  1.0000
  H   H1772     1.0  0.82425  0.50996  0.85196  1.0000
  C   C1486     1.0  0.77975  0.51054  0.23659  1.0000
  C   C1487     1.0  0.81087  0.57588  0.05208  1.0000
  S   S395      1.0  0.45760  0.56900  0.75208  1.0000
  H   H1773     1.0  0.51871  0.48664  0.98507  1.0000
  H   H1774     1.0  0.58713  0.44562  0.90489  1.0000
  C   C1488     1.0  0.58131  0.60958  0.16242  1.0000
  C   C1489     1.0  0.73935  0.56318  0.13967  1.0000
  C   C1490     1.0  0.66473  0.60105  0.00602  1.0000
  H   H1775     1.0  0.47338  0.64659  0.18458  1.0000
  H   H1776     1.0  0.65525  0.66139  0.22646  1.0000
  C   C1491     1.0  0.73457  0.48268  0.04148  1.0000
  C   C1492     1.0  0.75010  0.47998  0.06409  1.0000
  Fe  Fe195     1.0  0.83761  0.49381  0.10208  1.0000
  S   S396      1.0  0.58757  0.51502  0.02492  1.0000
  H   H1777     1.0  0.92413  0.63398  0.23933  1.0000
  C   C1493     1.0  0.62104  0.67568  0.02435  1.0000
  C   C1494     1.0  0.71636  0.46178  0.03724  1.0000
  H   H1778     1.0  0.67387  0.59655  0.97070  1.0000
  C   C1495     1.0  0.43513  0.47241  0.97178  1.0000
  C   C1496     1.0  0.86619  0.58687  0.17253  1.0000
  C   C1497     1.0  0.68004  0.66341  0.87830  1.0000
  C   C1498     1.0  0.84293  0.62205  0.96671  1.0000
  C   C1499     1.0  0.74502  0.62918  0.21706  1.0000
  H   H1779     1.0  0.80339  0.58119  0.08777  1.0000
  C   C1500     1.0  0.53066  0.67163  0.85859  1.0000
  C   C1501     1.0  0.66774  0.51205  0.96204  1.0000
  H   H1780     1.0  0.45952  0.64833  0.00873  1.0000
  C   C1502     1.0  0.62811  0.58306  0.75942  1.0000
  H   H1781     1.0  0.73535  0.49739  0.21457  1.0000
  Fe  Fe196     1.0  0.56511  0.61627  0.83457  1.0000
  C   C1503     1.0  0.67646  0.67109  0.82476  1.0000
  Fe  Fe197     1.0  0.88464  0.65914  0.16929  1.0000
  C   C1504     1.0  0.76748  0.57166  0.20428  1.0000
  C   C1505     1.0  0.78029  0.61584  0.95472  1.0000
  H   H1782     1.0  0.88724  0.51451  0.74778  1.0000
  C   C1506     1.0  0.78134  0.45144  0.92950  1.0000
  Fe  Fe198     1.0  0.61445  0.51856  0.19372  1.0000
  H   H1783     1.0  0.51392  0.62863  0.02112  1.0000
  C   C1507     1.0  0.53936  0.50450  0.95227  1.0000
  H   H1784     1.0  0.53464  0.53366  0.14820  1.0000
  Fe  Fe199     1.0  0.56996  0.65929  0.86529  1.0000
  C   C1508     1.0  0.66770  0.59875  0.16987  1.0000
  H   H1785     1.0  0.91919  0.65241  0.07888  1.0000
  H   H1786     1.0  0.52671  0.50322  0.23569  1.0000
  H   H1787     1.0  0.83670  0.62807  0.00226  1.0000
  Fe  Fe200     1.0  0.58928  0.63043  0.91751  1.0000
  C   C1509     1.0  0.68964  0.67550  0.23123  1.0000
  H   H1788     1.0  0.63582  0.55909  0.81357  1.0000
  C   C1510     1.0  0.75698  0.58899  0.12671  1.0000
  C   C1511     1.0  0.75957  0.67406  0.18797  1.0000
  C   C1512     1.0  0.68961  0.50578  0.24006  1.0000
  C   C1513     1.0  0.57522  0.64703  0.09462  1.0000
  C   C1514     1.0  0.47928  0.57055  0.77787  1.0000
  C   C1515     1.0  0.78542  0.49011  0.86690  1.0000
  H   H1789     1.0  0.72206  0.61134  0.88274  1.0000
  C   C1516     1.0  0.86458  0.48626  0.19093  1.0000
  C   C1517     1.0  0.62562  0.62609  0.16983  1.0000
  N   N100      1.0  0.67491  0.62936  0.97270  1.0000
  C   C1518     1.0  0.51696  0.59829  0.78424  1.0000
  C   C1519     1.0  0.43307  0.57585  0.11191  1.0000
  H   H1790     1.0  0.80755  0.66192  0.99373  1.0000
  C   C1520     1.0  0.92342  0.58796  0.17062  1.0000
  S   S397      1.0  0.83786  0.46753  0.18316  1.0000
  H   H1791     1.0  0.55831  0.63430  0.14607  1.0000
  H   H1792     1.0  0.54456  0.49755  0.14593  1.0000
  H   H1793     1.0  0.74452  0.55314  0.97928  1.0000
  H   H1794     1.0  0.66106  0.65865  0.76525  1.0000
  S   S398      1.0  0.55062  0.61597  0.93052  1.0000
  H   H1795     1.0  0.59633  0.54162  0.10175  1.0000
  H   H1796     1.0  0.74545  0.67102  0.78041  1.0000
  H   H1797     1.0  0.48038  0.47031  0.12714  1.0000
  C   C1521     1.0  0.82836  0.44282  0.89487  1.0000
  H   H1798     1.0  0.45100  0.55953  0.14208  1.0000
  H   H1799     1.0  0.89332  0.58592  0.77329  1.0000
  H   H1800     1.0  0.71333  0.64412  0.91016  1.0000
  C   C1522     1.0  0.52551  0.47766  0.17095  1.0000
  H   H1801     1.0  0.64354  0.58702  0.02871  1.0000
  H   H1802     1.0  0.49287  0.62567  0.20925  1.0000
  H   H1803     1.0  0.67077  0.65505  0.00460  1.0000
  H   H1804     1.0  0.91974  0.65816  0.86260  1.0000
  H   H1805     1.0  0.43205  0.45140  0.13004  1.0000
  H   H1806     1.0  0.52951  0.52964  0.87506  1.0000
  H   H1807     1.0  0.47793  0.44171  0.20625  1.0000
  H   H1808     1.0  0.58169  0.54835  0.94052  1.0000
  H   H1809     1.0  0.64118  0.62275  0.03816  1.0000
  S   S399      1.0  0.65376  0.43489  0.98722  1.0000
  H   H1810     1.0  0.51271  0.61591  0.12898  1.0000
  S   S400      1.0  0.60734  0.67382  0.86091  1.0000
  C   C1523     1.0  0.83185  0.58812  0.93685  1.0000
  N   N101      1.0  0.50428  0.47831  0.20290  1.0000
  H   H1811     1.0  0.52586  0.47070  0.90530  1.0000
  C   C1524     1.0  0.75709  0.44666  0.87437  1.0000
  H   H1812     1.0  0.72847  0.56092  0.11476  1.0000
  H   H1813     1.0  0.83622  0.59976  0.88593  1.0000
  C   C1525     1.0  0.72806  0.43498  0.08252  1.0000
  H   H1814     1.0  0.87576  0.48260  0.03321  1.0000
  H   H1815     1.0  0.43094  0.60032  0.91508  1.0000
  C   C1526     1.0  0.50510  0.63275  0.05652  1.0000
  H   H1816     1.0  0.71217  0.50614  0.97800  1.0000
  S   S401      1.0  0.68431  0.49306  0.82062  1.0000
  C   C1527     1.0  0.62115  0.55944  0.80677  1.0000
  Fe  Fe201     1.0  0.67372  0.45276  0.87622  1.0000
  H   H1817     1.0  0.46393  0.52940  0.81442  1.0000
  C   C1528     1.0  0.86708  0.58073  0.12150  1.0000
  Fe  Fe202     1.0  0.58367  0.46068  0.22619  1.0000
  C   C1529     1.0  0.50452  0.62569  0.11702  1.0000
  H   H1818     1.0  0.77897  0.43319  0.93314  1.0000
  C   C1530     1.0  0.71031  0.61423  0.80959  1.0000
  C   C1531     1.0  0.81264  0.53401  0.85614  1.0000
  H   H1819     1.0  0.56384  0.60173  0.16059  1.0000
  S   S402      1.0  0.74285  0.63585  0.04765  1.0000
  C   C1532     1.0  0.70962  0.61175  0.10157  1.0000
  H   H1820     1.0  0.70415  0.49156  0.15038  1.0000
  C   C1533     1.0  0.70041  0.50703  0.95795  1.0000
  C   C1534     1.0  0.69449  0.61825  0.13020  1.0000
  H   H1821     1.0  0.85866  0.62200  0.96991  1.0000
  C   C1535     1.0  0.54614  0.48949  0.87414  1.0000
  H   H1822     1.0  0.81828  0.56656  0.95359  1.0000
  H   H1823     1.0  0.80482  0.48532  0.76329  1.0000
  C   C1536     1.0  0.76625  0.49357  0.87442  1.0000
  C   C1537     1.0  0.58350  0.56115  0.79106  1.0000
  H   H1824     1.0  0.85259  0.56078  0.13359  1.0000
  S   S403      1.0  0.54122  0.58027  0.82655  1.0000
  H   H1825     1.0  0.61979  0.66404  0.99854  1.0000
  C   C1538     1.0  0.91028  0.52151  0.14261  1.0000
  S   S404      1.0  0.84348  0.54228  0.95448  1.0000
  C   C1539     1.0  0.71806  0.51229  0.13944  1.0000
  H   H1826     1.0  0.85164  0.63781  0.91508  1.0000
  S   S405      1.0  0.87548  0.51794  0.86326  1.0000
  C   C1540     1.0  0.67133  0.56600  0.15473  1.0000
  S   S406      1.0  0.83697  0.66234  0.05394  1.0000
  S   S407      1.0  0.60387  0.47213  0.11918  1.0000
  Fe  Fe203     1.0  0.59910  0.50391  0.09774  1.0000
  C   C1541     1.0  0.60211  0.67483  0.12637  1.0000
  C   C1542     1.0  0.49229  0.49065  0.11660  1.0000
  C   C1543     1.0  0.85902  0.47371  0.77651  1.0000
  H   H1827     1.0  0.79687  0.55484  0.86096  1.0000
  H   H1828     1.0  0.82602  0.57525  0.05782  1.0000
  S   S408      1.0  0.84905  0.65585  0.20344  1.0000
  C   C1544     1.0  0.67096  0.63686  0.91586  1.0000
  S   S409      1.0  0.88667  0.59531  0.98802  1.0000
  C   C1545     1.0  0.49409  0.64486  0.04132  1.0000
  C   C1546     1.0  0.58891  0.54237  0.02129  1.0000
  S   S410      1.0  0.49278  0.43204  0.08012  1.0000
  H   H1829     1.0  0.91169  0.56579  0.20031  1.0000
  H   H1830     1.0  0.54098  0.52096  0.95956  1.0000
  C   C1547     1.0  0.48200  0.64297  0.14775  1.0000
  S   S411      1.0  0.63676  0.53436  0.08440  1.0000
  H   H1831     1.0  0.91090  0.59232  0.16013  1.0000
  C   C1548     1.0  0.88764  0.45833  0.05177  1.0000
  C   C1549     1.0  0.49790  0.55182  0.82041  1.0000
  H   H1832     1.0  0.65424  0.51504  0.98523  1.0000
  H   H1833     1.0  0.83285  0.46014  0.95787  1.0000
  C   C1550     1.0  0.47926  0.44944  0.79886  1.0000
  C   C1551     1.0  0.59073  0.58620  0.01338  1.0000
  C   C1552     1.0  0.60138  0.63751  0.13094  1.0000
  H   H1834     1.0  0.83087  0.54994  0.84752  1.0000
  S   S412      1.0  0.46344  0.46140  0.01163  1.0000
  H   H1835     1.0  0.70473  0.46402  0.01850  1.0000
  S   S413      1.0  0.89618  0.67792  0.06163  1.0000
  C   C1553     1.0  0.50969  0.53647  0.04854  1.0000
  H   H1836     1.0  0.64940  0.59748  0.92350  1.0000
  H   H1837     1.0  0.73542  0.61175  0.21186  1.0000
  C   C1554     1.0  0.60933  0.58398  0.75202  1.0000
  Fe  Fe204     1.0  0.85368  0.51507  0.95702  1.0000
  C   C1555     1.0  0.75003  0.54577  0.21725  1.0000
  C   C1556     1.0  0.88943  0.50635  0.13495  1.0000
  N   N102      1.0  0.71533  0.51333  0.20130  1.0000
  H   H1838     1.0  0.90249  0.43646  0.05530  1.0000
  H   H1839     1.0  0.49765  0.49814  0.79281  1.0000
  S   S414      1.0  0.58178  0.65869  0.77001  1.0000
  S   S415      1.0  0.81333  0.61048  0.78334  1.0000
  C   C1557     1.0  0.59340  0.55139  0.06512  1.0000
  C   C1558     1.0  0.49817  0.59519  0.76807  1.0000
  C   C1559     1.0  0.76040  0.59292  0.96092  1.0000
  C   C1560     1.0  0.88769  0.47781  0.01073  1.0000
  C   C1561     1.0  0.65429  0.62625  0.84319  1.0000
  C   C1562     1.0  0.88445  0.61299  0.15679  1.0000
  H   H1840     1.0  0.63968  0.66604  0.11332  1.0000
  C   C1563     1.0  0.49318  0.63100  0.16232  1.0000
  C   C1564     1.0  0.86103  0.48988  0.85401  1.0000
  H   H1841     1.0  0.68690  0.51949  0.21113  1.0000
  H   H1842     1.0  0.65366  0.44818  0.09453  1.0000
  N   N103      1.0  0.82121  0.59544  0.98276  1.0000
  H   H1843     1.0  0.78047  0.63300  0.94337  1.0000
  H   H1844     1.0  0.73773  0.51944  0.10697  1.0000
  H   H1845     1.0  0.52620  0.63690  0.86074  1.0000
  C   C1565     1.0  0.71315  0.43796  0.05773  1.0000
  H   H1846     1.0  0.44074  0.64372  0.17589  1.0000
  C   C1566     1.0  0.49517  0.45111  0.82636  1.0000
  H   H1847     1.0  0.77793  0.57494  0.23070  1.0000
  H   H1848     1.0  0.63490  0.45596  0.13638  1.0000
  H   H1849     1.0  0.75967  0.47771  0.22101  1.0000
  C   C1567     1.0  0.77163  0.67571  0.22658  1.0000
  S   S416      1.0  0.69863  0.44017  0.87501  1.0000
  H   H1850     1.0  0.42818  0.44913  0.85887  1.0000
  H   H1851     1.0  0.91284  0.50905  0.80896  1.0000
  S   S417      1.0  0.88111  0.62240  0.21725  1.0000
  H   H1852     1.0  0.85083  0.57166  0.22370  1.0000
  C   C1568     1.0  0.63364  0.44111  0.12186  1.0000
  H   H1853     1.0  0.87615  0.44855  0.10557  1.0000
  C   C1569     1.0  0.89821  0.64124  0.75540  1.0000
  C   C1570     1.0  0.50395  0.68019  0.82819  1.0000
  H   H1854     1.0  0.62674  0.44210  0.08579  1.0000
  H   H1855     1.0  0.49828  0.61198  0.74780  1.0000
  S   S418      1.0  0.46574  0.51048  0.24310  1.0000
  H   H1856     1.0  0.76503  0.59918  0.57299  1.0000
  H   H1857     1.0  0.46289  0.59215  0.38849  1.0000
  Fe  Fe205     1.0  0.85152  0.52384  0.49083  1.0000
  H   H1858     1.0  0.92475  0.59349  0.59560  1.0000
  C   C1571     1.0  0.48924  0.54881  0.64489  1.0000
  C   C1572     1.0  0.71784  0.57618  0.42856  1.0000
  H   H1859     1.0  0.92437  0.60860  0.49754  1.0000
  Fe  Fe206     1.0  0.55815  0.53461  0.46827  1.0000
  C   C1573     1.0  0.50507  0.54977  0.43200  1.0000
  Fe  Fe207     1.0  0.72764  0.62011  0.50192  1.0000
  S   S419      1.0  0.87821  0.51805  0.43326  1.0000
  C   C1574     1.0  0.58645  0.61863  0.31841  1.0000
  H   H1860     1.0  0.53712  0.57403  0.46502  1.0000
  C   C1575     1.0  0.75952  0.45861  0.58400  1.0000
  S   S420      1.0  0.88196  0.55635  0.49596  1.0000
  C   C1576     1.0  0.60933  0.48031  0.52278  1.0000
  H   H1861     1.0  0.59686  0.59228  0.43756  1.0000
  H   H1862     1.0  0.68691  0.50657  0.28676  1.0000
  H   H1863     1.0  0.54086  0.62783  0.34043  1.0000
  H   H1864     1.0  0.84072  0.58346  0.38952  1.0000
  C   C1577     1.0  0.58019  0.48322  0.71239  1.0000
  S   S421      1.0  0.52073  0.50824  0.56537  1.0000
  H   H1865     1.0  0.64099  0.67091  0.56746  1.0000
  C   C1578     1.0  0.75290  0.48613  0.51550  1.0000
  H   H1866     1.0  0.57762  0.61330  0.28954  1.0000
  C   C1579     1.0  0.59824  0.64429  0.30985  1.0000
  H   H1867     1.0  0.87821  0.49306  0.31145  1.0000
  C   C1580     1.0  0.78566  0.48042  0.55088  1.0000
  C   C1581     1.0  0.69107  0.64130  0.29444  1.0000
  N   N104      1.0  0.60257  0.65356  0.58374  1.0000
  H   H1868     1.0  0.85484  0.63319  0.49759  1.0000
  C   C1582     1.0  0.79145  0.51934  0.27162  1.0000
  H   H1869     1.0  0.64820  0.46330  0.50401  1.0000
  S   S422      1.0  0.82843  0.53210  0.45450  1.0000
  H   H1870     1.0  0.75428  0.56347  0.47529  1.0000
  S   S423      1.0  0.84985  0.67592  0.70374  1.0000
  H   H1871     1.0  0.88993  0.45822  0.33374  1.0000
  H   H1872     1.0  0.56813  0.45287  0.58863  1.0000
  C   C1583     1.0  0.54240  0.66140  0.63772  1.0000
  S   S424      1.0  0.67777  0.45745  0.54315  1.0000
  C   C1584     1.0  0.59387  0.44780  0.43676  1.0000
  H   H1873     1.0  0.42652  0.45160  0.61289  1.0000
  S   S425      1.0  0.66860  0.44968  0.42320  1.0000
  H   H1874     1.0  0.86671  0.56940  0.71336  1.0000
  H   H1875     1.0  0.78661  0.52705  0.44319  1.0000
  C   C1585     1.0  0.77043  0.46781  0.29300  1.0000
  C   C1586     1.0  0.74326  0.55012  0.67205  1.0000
  H   H1876     1.0  0.89824  0.47048  0.65822  1.0000
  Fe  Fe208     1.0  0.90755  0.54803  0.44684  1.0000
  C   C1587     1.0  0.42650  0.56884  0.53100  1.0000
  H   H1877     1.0  0.89261  0.46161  0.59796  1.0000
  C   C1588     1.0  0.62415  0.50604  0.62838  1.0000
  H   H1878     1.0  0.43726  0.68069  0.47650  1.0000
  S   S426      1.0  0.56932  0.56759  0.37563  1.0000
  C   C1589     1.0  0.46144  0.67242  0.42828  1.0000
  Fe  Fe209     1.0  0.43073  0.50612  0.25187  1.0000
  C   C1590     1.0  0.82743  0.65997  0.45241  1.0000
  S   S427      1.0  0.74406  0.59875  0.48750  1.0000
  C   C1591     1.0  0.78424  0.43863  0.36143  1.0000
  H   H1879     1.0  0.47992  0.48582  0.39915  1.0000
  N   N105      1.0  0.65453  0.59209  0.35058  1.0000
  S   S428      1.0  0.72463  0.64649  0.42966  1.0000
  S   S429      1.0  0.86646  0.64631  0.63710  1.0000
  H   H1880     1.0  0.86913  0.61479  0.44081  1.0000
  S   S430      1.0  0.54443  0.51600  0.69921  1.0000
  S   S431      1.0  0.65545  0.62421  0.50200  1.0000
  C   C1592     1.0  0.52813  0.60751  0.28890  1.0000
  C   C1593     1.0  0.70995  0.55871  0.40375  1.0000
  H   H1881     1.0  0.73895  0.53138  0.43556  1.0000
  C   C1594     1.0  0.47014  0.47675  0.73917  1.0000
  H   H1882     1.0  0.77829  0.65217  0.29107  1.0000
  H   H1883     1.0  0.54939  0.46197  0.40205  1.0000
  H   H1884     1.0  0.70158  0.47250  0.25120  1.0000
  C   C1595     1.0  0.62446  0.59518  0.56542  1.0000
  H   H1885     1.0  0.49095  0.49180  0.70052  1.0000
  H   H1886     1.0  0.46282  0.45086  0.25745  1.0000
  H   H1887     1.0  0.75029  0.50222  0.73286  1.0000
  H   H1888     1.0  0.50264  0.46915  0.29806  1.0000
  H   H1889     1.0  0.45893  0.67625  0.38541  1.0000
  S   S432      1.0  0.44868  0.50836  0.38804  1.0000
  H   H1890     1.0  0.44609  0.61100  0.48702  1.0000
  H   H1891     1.0  0.48346  0.50280  0.53157  1.0000
  H   H1892     1.0  0.59505  0.49802  0.34585  1.0000
  H   H1893     1.0  0.59630  0.64058  0.51371  1.0000
  H   H1894     1.0  0.49638  0.54312  0.40249  1.0000
  C   C1596     1.0  0.57873  0.56833  0.60554  1.0000
  C   C1597     1.0  0.63030  0.57304  0.35393  1.0000
  Fe  Fe210     1.0  0.69829  0.44033  0.52837  1.0000
  S   S433      1.0  0.43780  0.53718  0.28031  1.0000
  H   H1895     1.0  0.46718  0.57278  0.31665  1.0000
  H   H1896     1.0  0.87489  0.43454  0.44886  1.0000
  C   C1598     1.0  0.67238  0.58623  0.32585  1.0000
  C   C1599     1.0  0.47998  0.65971  0.48755  1.0000
  H   H1897     1.0  0.52456  0.63295  0.60808  1.0000
  H   H1898     1.0  0.91517  0.56974  0.56690  1.0000
  H   H1899     1.0  0.82361  0.48746  0.33873  1.0000
  H   H1900     1.0  0.60620  0.62296  0.62337  1.0000
  S   S434      1.0  0.55821  0.66808  0.43718  1.0000
  H   H1901     1.0  0.61955  0.63855  0.41833  1.0000
  H   H1902     1.0  0.49791  0.65657  0.27561  1.0000
  C   C1600     1.0  0.59160  0.62633  0.63336  1.0000
  H   H1903     1.0  0.74033  0.48825  0.50112  1.0000
  S   S435      1.0  0.85633  0.44838  0.55106  1.0000
  H   H1904     1.0  0.79968  0.53939  0.26312  1.0000
  S   S436      1.0  0.49890  0.62477  0.42018  1.0000
  H   H1905     1.0  0.73351  0.52005  0.57772  1.0000
  C   C1601     1.0  0.76955  0.65282  0.26095  1.0000
  H   H1906     1.0  0.86592  0.47793  0.72552  1.0000
  Fe  Fe211     1.0  0.86955  0.52383  0.59127  1.0000
  C   C1602     1.0  0.58732  0.47796  0.38025  1.0000
  S   S437      1.0  0.58102  0.53852  0.51827  1.0000
  C   C1603     1.0  0.74156  0.56185  0.45642  1.0000
  C   C1604     1.0  0.63188  0.48315  0.50036  1.0000
  C   C1605     1.0  0.80529  0.47250  0.38781  1.0000
  C   C1606     1.0  0.84321  0.63521  0.47857  1.0000
  H   H1907     1.0  0.71835  0.57066  0.64467  1.0000
  H   H1908     1.0  0.59881  0.65878  0.27382  1.0000
  S   S438      1.0  0.55539  0.50081  0.45955  1.0000
  S   S439      1.0  0.48329  0.43681  0.58660  1.0000
  H   H1909     1.0  0.52722  0.66319  0.65191  1.0000
  H   H1910     1.0  0.92236  0.48699  0.27464  1.0000
  C   C1607     1.0  0.47684  0.66499  0.43207  1.0000
  H   H1911     1.0  0.80409  0.44097  0.71559  1.0000
  S   S440      1.0  0.80820  0.58102  0.66212  1.0000
  H   H1912     1.0  0.60666  0.44447  0.44666  1.0000
  Fe  Fe212     1.0  0.44099  0.47936  0.35160  1.0000
  C   C1608     1.0  0.64833  0.58661  0.41935  1.0000
  H   H1913     1.0  0.75549  0.61295  0.28154  1.0000
  C   C1609     1.0  0.79260  0.50239  0.31775  1.0000
  C   C1610     1.0  0.46766  0.54403  0.49913  1.0000
  Fe  Fe213     1.0  0.53816  0.66224  0.37946  1.0000
  C   C1611     1.0  0.60376  0.47341  0.39170  1.0000
  C   C1612     1.0  0.62571  0.67317  0.58347  1.0000
  N   N106      1.0  0.83048  0.59593  0.45891  1.0000
  Fe  Fe214     1.0  0.68737  0.62889  0.51754  1.0000
  H   H1914     1.0  0.61778  0.67607  0.47838  1.0000
  H   H1915     1.0  0.91484  0.45477  0.30856  1.0000
  H   H1916     1.0  0.89702  0.58999  0.27097  1.0000
  C   C1613     1.0  0.81398  0.43887  0.54567  1.0000
  H   H1917     1.0  0.80119  0.51005  0.34486  1.0000
  N   N107      1.0  0.47156  0.65774  0.59911  1.0000
  H   H1918     1.0  0.76179  0.44810  0.29938  1.0000
  H   H1919     1.0  0.84404  0.59235  0.52799  1.0000
  C   C1614     1.0  0.60055  0.50122  0.64668  1.0000
  C   C1615     1.0  0.82947  0.61780  0.45787  1.0000
  H   H1920     1.0  0.69788  0.55763  0.38280  1.0000
  C   C1616     1.0  0.50712  0.59130  0.28374  1.0000
  H   H1921     1.0  0.49324  0.48942  0.27441  1.0000
  C   C1617     1.0  0.84227  0.65606  0.47523  1.0000
  H   H1922     1.0  0.59795  0.51141  0.60940  1.0000
  C   C1618     1.0  0.71734  0.54234  0.40693  1.0000
  H   H1923     1.0  0.61484  0.60247  0.71545  1.0000
  C   C1619     1.0  0.54107  0.64458  0.61269  1.0000
  H   H1924     1.0  0.48785  0.64340  0.64630  1.0000
  S   S441      1.0  0.70519  0.65966  0.54573  1.0000
  H   H1925     1.0  0.68961  0.59682  0.33041  1.0000
  C   C1620     1.0  0.45216  0.66953  0.53551  1.0000
  N   N108      1.0  0.74433  0.57205  0.67929  1.0000
  H   H1926     1.0  0.71244  0.49057  0.29105  1.0000
  H   H1927     1.0  0.43495  0.61850  0.66569  1.0000
  C   C1621     1.0  0.56093  0.45693  0.41346  1.0000
  S   S442      1.0  0.46382  0.66728  0.26784  1.0000
  H   H1928     1.0  0.67381  0.48514  0.25441  1.0000
  C   C1622     1.0  0.91167  0.58772  0.27398  1.0000
  H   H1929     1.0  0.91111  0.48947  0.43127  1.0000
  H   H1930     1.0  0.51775  0.54401  0.43029  1.0000
  H   H1931     1.0  0.86610  0.44676  0.67789  1.0000
  H   H1932     1.0  0.74110  0.49309  0.64786  1.0000
  H   H1933     1.0  0.84969  0.57921  0.47631  1.0000
  S   S443      1.0  0.86491  0.53120  0.67616  1.0000
  H   H1934     1.0  0.70138  0.63677  0.31450  1.0000
  H   H1935     1.0  0.47702  0.62825  0.60060  1.0000
  H   H1936     1.0  0.63338  0.57613  0.30401  1.0000
  H   H1937     1.0  0.84182  0.46517  0.29819  1.0000
  C   C1623     1.0  0.47063  0.50834  0.53365  1.0000
  C   C1624     1.0  0.70237  0.66830  0.25632  1.0000
  H   H1938     1.0  0.75690  0.45579  0.45849  1.0000
  H   H1939     1.0  0.55817  0.62810  0.57837  1.0000
  C   C1625     1.0  0.48346  0.58538  0.32044  1.0000
  C   C1626     1.0  0.74687  0.51399  0.70228  1.0000
  C   C1627     1.0  0.60376  0.59210  0.56001  1.0000
  H   H1940     1.0  0.62199  0.55186  0.38449  1.0000
  C   C1628     1.0  0.44918  0.67476  0.47983  1.0000
  H   H1941     1.0  0.79800  0.56790  0.55896  1.0000
  H   H1942     1.0  0.61511  0.57466  0.37690  1.0000
  C   C1629     1.0  0.76661  0.59804  0.61778  1.0000
  C   C1630     1.0  0.48194  0.46518  0.48115  1.0000
  C   C1631     1.0  0.86080  0.48104  0.25465  1.0000
  C   C1632     1.0  0.60739  0.43536  0.57150  1.0000
  H   H1943     1.0  0.66576  0.59894  0.42184  1.0000
  C   C1633     1.0  0.84042  0.57433  0.69334  1.0000
  C   C1634     1.0  0.78273  0.47627  0.32850  1.0000
  H   H1944     1.0  0.43447  0.64493  0.66974  1.0000
  S   S444      1.0  0.72245  0.46762  0.41667  1.0000
  H   H1945     1.0  0.50660  0.66231  0.55729  1.0000
  C   C1635     1.0  0.92501  0.66053  0.71722  1.0000
  C   C1636     1.0  0.83081  0.53624  0.65438  1.0000
  C   C1637     1.0  0.67317  0.51770  0.58782  1.0000
  C   C1638     1.0  0.75889  0.44233  0.44340  1.0000
  H   H1946     1.0  0.91826  0.59576  0.30484  1.0000
  H   H1947     1.0  0.59150  0.53457  0.70289  1.0000
  C   C1639     1.0  0.52303  0.56632  0.51490  1.0000
  H   H1948     1.0  0.71984  0.58353  0.69940  1.0000
  C   C1640     1.0  0.83794  0.59842  0.39206  1.0000
  C   C1641     1.0  0.46770  0.66186  0.54118  1.0000
  H   H1949     1.0  0.85638  0.61861  0.35239  1.0000
  C   C1642     1.0  0.73740  0.52406  0.61507  1.0000
  S   S445      1.0  0.89736  0.51756  0.54289  1.0000
  H   H1950     1.0  0.80416  0.54056  0.63586  1.0000
  C   C1643     1.0  0.49615  0.54751  0.54123  1.0000
  H   H1951     1.0  0.66288  0.56446  0.35486  1.0000
  H   H1952     1.0  0.63529  0.59118  0.43947  1.0000
  Fe  Fe215     1.0  0.74258  0.67578  0.46208  1.0000
  C   C1644     1.0  0.56316  0.67570  0.64555  1.0000
  C   C1645     1.0  0.88609  0.45354  0.65202  1.0000
  H   H1953     1.0  0.44981  0.53198  0.54838  1.0000
  H   H1954     1.0  0.89555  0.44326  0.48196  1.0000
  C   C1646     1.0  0.75641  0.62997  0.25601  1.0000
  C   C1647     1.0  0.84923  0.59574  0.47669  1.0000
  H   H1955     1.0  0.54605  0.61109  0.26288  1.0000
  C   C1648     1.0  0.74761  0.53421  0.71127  1.0000
  H   H1956     1.0  0.75026  0.64525  0.64288  1.0000
  H   H1957     1.0  0.63865  0.56525  0.45408  1.0000
  H   H1958     1.0  0.45884  0.52480  0.63101  1.0000
  H   H1959     1.0  0.62791  0.65613  0.49998  1.0000
  H   H1960     1.0  0.46127  0.53994  0.46382  1.0000
  C   C1649     1.0  0.47954  0.53891  0.60771  1.0000
  H   H1961     1.0  0.67904  0.59191  0.27262  1.0000
  C   C1650     1.0  0.56053  0.64201  0.59553  1.0000
  C   C1651     1.0  0.47143  0.44023  0.53266  1.0000
  C   C1652     1.0  0.62811  0.49299  0.67627  1.0000
  H   H1962     1.0  0.64008  0.46350  0.64694  1.0000
  H   H1963     1.0  0.68181  0.51211  0.68738  1.0000
  H   H1964     1.0  0.51734  0.57192  0.40518  1.0000
  H   H1965     1.0  0.92164  0.50804  0.34549  1.0000
  C   C1653     1.0  0.80468  0.56985  0.50876  1.0000
  C   C1654     1.0  0.50908  0.67811  0.24700  1.0000
  H   H1966     1.0  0.56299  0.56546  0.59885  1.0000
  H   H1967     1.0  0.47617  0.54257  0.69473  1.0000
  C   C1655     1.0  0.81397  0.62191  0.43667  1.0000
  C   C1656     1.0  0.61997  0.57482  0.61836  1.0000
  H   H1968     1.0  0.62410  0.48992  0.36673  1.0000
  H   H1969     1.0  0.71184  0.58853  0.42692  1.0000
  C   C1657     1.0  0.79550  0.50505  0.49990  1.0000
  H   H1970     1.0  0.63882  0.51990  0.57619  1.0000
  N   N109      1.0  0.48530  0.53772  0.50176  1.0000
  H   H1971     1.0  0.47732  0.43666  0.28196  1.0000
  H   H1972     1.0  0.63538  0.61440  0.28964  1.0000
  H   H1973     1.0  0.92487  0.56592  0.62703  1.0000
  Fe  Fe216     1.0  0.57593  0.50306  0.51633  1.0000
  C   C1658     1.0  0.58557  0.59970  0.36514  1.0000
  C   C1659     1.0  0.82289  0.56624  0.67119  1.0000
  C   C1660     1.0  0.48644  0.64751  0.60044  1.0000
  N   N110      1.0  0.91419  0.46979  0.37629  1.0000
  S   S446      1.0  0.53995  0.47360  0.61630  1.0000
  H   H1974     1.0  0.73544  0.55616  0.59074  1.0000
  H   H1975     1.0  0.58423  0.62304  0.68494  1.0000
  C   C1661     1.0  0.61146  0.65671  0.51624  1.0000
  C   C1662     1.0  0.74329  0.46132  0.56530  1.0000
  C   C1663     1.0  0.58240  0.65695  0.60099  1.0000
  H   H1976     1.0  0.82323  0.59514  0.37795  1.0000
  C   C1664     1.0  0.58566  0.45510  0.57156  1.0000
  H   H1977     1.0  0.92336  0.45220  0.58794  1.0000
  H   H1978     1.0  0.47733  0.56554  0.48279  1.0000
  C   C1665     1.0  0.47168  0.46657  0.43918  1.0000
  H   H1979     1.0  0.52298  0.57483  0.64684  1.0000
  H   H1980     1.0  0.66745  0.51097  0.55421  1.0000
  H   H1981     1.0  0.46023  0.49999  0.50885  1.0000
  C   C1666     1.0  0.73375  0.57781  0.45463  1.0000
  H   H1982     1.0  0.62114  0.67048  0.63407  1.0000
  S   S447      1.0  0.81657  0.64327  0.64649  1.0000
  C   C1667     1.0  0.52537  0.61745  0.33174  1.0000
  H   H1983     1.0  0.45622  0.49778  0.58702  1.0000
  H   H1984     1.0  0.55316  0.59055  0.53081  1.0000
  C   C1668     1.0  0.91019  0.46731  0.32101  1.0000
  C   C1669     1.0  0.50201  0.61223  0.36694  1.0000
  C   C1670     1.0  0.60964  0.65128  0.34707  1.0000
  C   C1671     1.0  0.63083  0.46080  0.52429  1.0000
  Fe  Fe217     1.0  0.47111  0.53919  0.27942  1.0000
  C   C1672     1.0  0.45141  0.44298  0.44780  1.0000
  H   H1985     1.0  0.49211  0.65391  0.48716  1.0000
  S   S448      1.0  0.70770  0.52099  0.37485  1.0000
  Fe  Fe218     1.0  0.82420  0.61457  0.68219  1.0000
  H   H1986     1.0  0.60717  0.60771  0.51920  1.0000
  C   C1673     1.0  0.77903  0.50803  0.48283  1.0000
  H   H1987     1.0  0.74758  0.52994  0.25486  1.0000
  C   C1674     1.0  0.81316  0.64279  0.43367  1.0000
  S   S449      1.0  0.68859  0.59965  0.58743  1.0000
  H   H1988     1.0  0.80768  0.45885  0.41828  1.0000
  H   H1989     1.0  0.90140  0.56579  0.30217  1.0000
  C   C1675     1.0  0.65417  0.62863  0.28130  1.0000
  Fe  Fe219     1.0  0.54366  0.50905  0.61491  1.0000
  H   H1990     1.0  0.66739  0.47543  0.65836  1.0000
  H   H1991     1.0  0.80480  0.55272  0.51382  1.0000
  C   C1676     1.0  0.73294  0.54373  0.43388  1.0000
  H   H1992     1.0  0.78495  0.60131  0.60790  1.0000
  Fe  Fe220     1.0  0.85793  0.67472  0.60917  1.0000
  Fe  Fe221     1.0  0.69073  0.43395  0.41659  1.0000
  H   H1993     1.0  0.44891  0.63457  0.70685  1.0000
  H   H1994     1.0  0.88864  0.47959  0.40264  1.0000
  C   C1677     1.0  0.88144  0.49670  0.26217  1.0000
  C   C1678     1.0  0.59730  0.60675  0.40181  1.0000
  Fe  Fe222     1.0  0.51952  0.47456  0.55988  1.0000
  H   H1995     1.0  0.65020  0.50255  0.46233  1.0000
  H   H1996     1.0  0.67769  0.53762  0.57351  1.0000
  H   H1997     1.0  0.76568  0.57839  0.73061  1.0000
  H   H1998     1.0  0.79992  0.44917  0.30926  1.0000
  S   S450      1.0  0.61282  0.50924  0.48374  1.0000
  H   H1999     1.0  0.44430  0.57150  0.51291  1.0000
  H   H2000     1.0  0.73687  0.67630  0.69599  1.0000
  C   C1679     1.0  0.60993  0.63282  0.39140  1.0000
  H   H2001     1.0  0.82714  0.67645  0.44874  1.0000
  H   H2002     1.0  0.85328  0.66942  0.49006  1.0000
  C   C1680     1.0  0.53255  0.57600  0.55262  1.0000
  C   C1681     1.0  0.51568  0.56724  0.61759  1.0000
  Fe  Fe223     1.0  0.69849  0.48137  0.43164  1.0000
  C   C1682     1.0  0.72037  0.56839  0.68929  1.0000
  H   H2003     1.0  0.49810  0.48332  0.47329  1.0000
  S   S451      1.0  0.74864  0.65094  0.52754  1.0000
  H   H2004     1.0  0.66533  0.52638  0.69197  1.0000
  Fe  Fe224     1.0  0.70937  0.63198  0.60913  1.0000
  H   H2005     1.0  0.78999  0.56730  0.49514  1.0000
  C   C1683     1.0  0.66666  0.62057  0.30765  1.0000
  S   S452      1.0  0.43864  0.44314  0.39499  1.0000
  S   S453      1.0  0.69602  0.62005  0.71677  1.0000
  H   H2006     1.0  0.75216  0.43932  0.62187  1.0000
  H   H2007     1.0  0.76844  0.61516  0.62143  1.0000
  H   H2008     1.0  0.80167  0.64592  0.41573  1.0000
  C   C1684     1.0  0.76180  0.64177  0.71585  1.0000
  C   C1685     1.0  0.89490  0.44272  0.43708  1.0000
  H   H2009     1.0  0.79829  0.47787  0.56330  1.0000
  H   H2010     1.0  0.80246  0.60912  0.42175  1.0000
  C   C1686     1.0  0.59482  0.55086  0.66405  1.0000
  C   C1687     1.0  0.66289  0.50774  0.69982  1.0000
  C   C1688     1.0  0.48101  0.59621  0.36131  1.0000
  H   H2011     1.0  0.82717  0.52168  0.63892  1.0000
  S   S454      1.0  0.83699  0.49173  0.59089  1.0000
  C   C1689     1.0  0.44637  0.63814  0.66273  1.0000
  H   H2012     1.0  0.78185  0.65351  0.67919  1.0000
  C   C1690     1.0  0.57433  0.54751  0.65665  1.0000
  C   C1691     1.0  0.58314  0.67396  0.62646  1.0000
  S   S455      1.0  0.71205  0.43282  0.59827  1.0000
  H   H2013     1.0  0.48621  0.66296  0.39196  1.0000
  C   C1692     1.0  0.90870  0.48748  0.38929  1.0000
  C   C1693     1.0  0.85305  0.56314  0.69648  1.0000
  H   H2014     1.0  0.80305  0.48288  0.41498  1.0000
  H   H2015     1.0  0.63589  0.57712  0.62283  1.0000
  N   N111      1.0  0.65290  0.49777  0.65922  1.0000
  C   C1694     1.0  0.91508  0.44310  0.64285  1.0000
  H   H2016     1.0  0.44228  0.67167  0.57409  1.0000
  C   C1695     1.0  0.74393  0.63730  0.69516  1.0000
  C   C1696     1.0  0.73840  0.54455  0.62317  1.0000
  H   H2017     1.0  0.69157  0.52097  0.57665  1.0000
  H   H2018     1.0  0.82026  0.45735  0.54469  1.0000
  H   H2019     1.0  0.84422  0.58913  0.70815  1.0000
  C   C1697     1.0  0.84837  0.54427  0.67645  1.0000
  H   H2020     1.0  0.57514  0.61039  0.63349  1.0000
  Fe  Fe225     1.0  0.86571  0.48792  0.53371  1.0000
  C   C1698     1.0  0.81775  0.54687  0.65282  1.0000
  C   C1699     1.0  0.74170  0.50885  0.65447  1.0000
  N   N112      1.0  0.78297  0.45783  0.37909  1.0000
  H   H2021     1.0  0.46206  0.48763  0.74141  1.0000
  C   C1700     1.0  0.64891  0.47236  0.67385  1.0000
  H   H2022     1.0  0.70873  0.67895  0.65941  1.0000
  C   C1701     1.0  0.74716  0.57363  0.73663  1.0000
  H   H2023     1.0  0.43012  0.60596  0.35777  1.0000
  H   H2024     1.0  0.56198  0.47967  0.72581  1.0000
  Fe  Fe226     1.0  0.85512  0.64486  0.73521  1.0000
  H   H2025     1.0  0.69567  0.68001  0.37814  1.0000
  C   C1702     1.0  0.42757  0.59129  0.51663  1.0000
  H   H2026     1.0  0.63623  0.45726  0.72808  1.0000
  H   H2027     1.0  0.64807  0.60082  0.72868  1.0000
  C   C1703     1.0  0.76891  0.48468  0.24802  1.0000
  C   C1704     1.0  0.66548  0.65571  0.24425  1.0000
  H   H2028     1.0  0.70308  0.54823  0.73268  1.0000
  N   N113      1.0  0.88759  0.43161  0.67811  1.0000
  C   C1705     1.0  0.50685  0.48548  0.25459  1.0000
  H   H2029     1.0  0.46018  0.46325  0.72183  1.0000
  C   C1706     1.0  0.58471  0.43254  0.59628  1.0000
  H   H2030     1.0  0.74705  0.58966  0.74214  1.0000
  C   C1707     1.0  0.71823  0.62373  0.74189  1.0000
  H   H2031     1.0  0.76319  0.43416  0.74303  1.0000
  C   C1708     1.0  0.60688  0.47468  0.74282  1.0000
  S   S456      1.0  0.66049  0.77266  0.83846  1.0000
  H   H2032     1.0  0.53143  0.77099  0.98833  1.0000
  H   H2033     1.0  0.70876  0.87350  0.11059  1.0000
  C   C1709     1.0  0.59706  0.84145  0.80748  1.0000
  H   H2034     1.0  0.47447  0.81826  0.94645  1.0000
  H   H2035     1.0  0.68361  0.69152  0.79688  1.0000
  H   H2036     1.0  0.88227  0.79857  0.95012  1.0000
  H   H2037     1.0  0.59630  0.72014  0.97408  1.0000
  H   H2038     1.0  0.81841  0.88466  0.10889  1.0000
  C   C1710     1.0  0.86795  0.73572  0.90952  1.0000
  Fe  Fe227     1.0  0.87411  0.69661  0.18997  1.0000
  Fe  Fe228     1.0  0.65447  0.80317  0.83319  1.0000
  S   S457      1.0  0.86535  0.85050  0.91319  1.0000
  S   S458      1.0  0.73641  0.72453  0.85759  1.0000
  H   H2039     1.0  0.89461  0.83455  0.78444  1.0000
  H   H2040     1.0  0.55913  0.69950  0.08658  1.0000
  C   C1711     1.0  0.68931  0.90399  0.80084  1.0000
  H   H2041     1.0  0.86973  0.73916  0.75959  1.0000
  H   H2042     1.0  0.52926  0.76867  0.89023  1.0000
  H   H2043     1.0  0.63628  0.84474  0.21902  1.0000
  C   C1712     1.0  0.54308  0.80848  0.12451  1.0000
  C   C1713     1.0  0.84312  0.68846  0.98836  1.0000
  S   S459      1.0  0.62255  0.79807  0.81637  1.0000
  S   S460      1.0  0.47010  0.72536  0.14151  1.0000
  H   H2044     1.0  0.60158  0.74394  0.90196  1.0000
  H   H2045     1.0  0.66847  0.78335  0.21612  1.0000
  H   H2046     1.0  0.59069  0.88858  0.02538  1.0000
  C   C1714     1.0  0.80664  0.87737  0.08597  1.0000
  H   H2047     1.0  0.57349  0.70911  0.94761  1.0000
  H   H2048     1.0  0.60070  0.71237  0.74905  1.0000
  H   H2049     1.0  0.48887  0.82198  0.86625  1.0000
  H   H2050     1.0  0.50506  0.82573  0.91295  1.0000
  H   H2051     1.0  0.90579  0.75585  0.78663  1.0000
  H   H2052     1.0  0.91182  0.85601  0.84341  1.0000
  H   H2053     1.0  0.72713  0.80442  0.10571  1.0000
  Fe  Fe229     1.0  0.44761  0.68758  0.23878  1.0000
  C   C1715     1.0  0.76564  0.83072  0.08666  1.0000
  S   S461      1.0  0.62180  0.90676  0.15578  1.0000
  C   C1716     1.0  0.44315  0.75402  0.92009  1.0000
  H   H2054     1.0  0.45617  0.75047  0.89717  1.0000
  Fe  Fe230     1.0  0.88613  0.83721  0.09697  1.0000
  C   C1717     1.0  0.86012  0.77584  0.21854  1.0000
  H   H2055     1.0  0.72599  0.73057  0.97431  1.0000
  H   H2056     1.0  0.87379  0.69669  0.77430  1.0000
  H   H2057     1.0  0.56861  0.79120  0.19533  1.0000
  S   S462      1.0  0.71292  0.81108  0.83959  1.0000
  H   H2058     1.0  0.88519  0.75103  0.14430  1.0000
  H   H2059     1.0  0.60022  0.69017  0.10203  1.0000
  C   C1718     1.0  0.88790  0.71282  0.77927  1.0000
  C   C1719     1.0  0.51775  0.79257  0.13724  1.0000
  H   H2060     1.0  0.89648  0.80897  0.78039  1.0000
  C   C1720     1.0  0.78604  0.77002  0.05706  1.0000
  S   S463      1.0  0.69516  0.83766  0.75226  1.0000
  S   S464      1.0  0.55619  0.86735  0.77106  1.0000
  Fe  Fe231     1.0  0.91781  0.71690  0.05790  1.0000
  H   H2061     1.0  0.50248  0.72587  0.18864  1.0000
  H   H2062     1.0  0.60130  0.74619  0.02275  1.0000
  H   H2063     1.0  0.54936  0.75538  0.14707  1.0000
  H   H2064     1.0  0.53808  0.69077  0.05303  1.0000
  H   H2065     1.0  0.92589  0.84601  0.88477  1.0000
  H   H2066     1.0  0.43190  0.78362  0.00612  1.0000
  C   C1721     1.0  0.76974  0.79455  0.77254  1.0000
  H   H2067     1.0  0.45209  0.84308  0.88801  1.0000
  C   C1722     1.0  0.45049  0.86461  0.80661  1.0000
  H   H2068     1.0  0.53936  0.70968  0.09349  1.0000
  C   C1723     1.0  0.82787  0.80473  0.03479  1.0000
  H   H2069     1.0  0.44142  0.82193  0.11804  1.0000
  Fe  Fe232     1.0  0.43573  0.70179  0.79473  1.0000
  C   C1724     1.0  0.69711  0.82550  0.02629  1.0000
  H   H2070     1.0  0.87179  0.78339  0.90430  1.0000
  H   H2071     1.0  0.82166  0.71608  0.14269  1.0000
  H   H2072     1.0  0.77637  0.79614  0.85268  1.0000
  C   C1725     1.0  0.67667  0.91682  0.98816  1.0000
  C   C1726     1.0  0.58646  0.72603  0.95264  1.0000
  C   C1727     1.0  0.82784  0.70288  0.92076  1.0000
  C   C1728     1.0  0.44873  0.77028  0.94974  1.0000
  C   C1729     1.0  0.78180  0.84024  0.95645  1.0000
  H   H2073     1.0  0.74997  0.78699  0.79954  1.0000
  H   H2074     1.0  0.82273  0.84936  0.12858  1.0000
  H   H2075     1.0  0.45853  0.75316  0.04365  1.0000
  C   C1730     1.0  0.69361  0.82317  0.13036  1.0000
  C   C1731     1.0  0.83417  0.82057  0.97062  1.0000
  H   H2076     1.0  0.74388  0.87486  0.93105  1.0000
  H   H2077     1.0  0.88765  0.79123  0.11819  1.0000
  H   H2078     1.0  0.77759  0.77971  0.97947  1.0000
  C   C1732     1.0  0.84882  0.72962  0.89294  1.0000
  S   S465      1.0  0.90909  0.69842  0.16346  1.0000
  H   H2079     1.0  0.82097  0.81323  0.79289  1.0000
  S   S466      1.0  0.66134  0.80579  0.91675  1.0000
  H   H2080     1.0  0.60488  0.77197  0.95918  1.0000
  H   H2081     1.0  0.51062  0.79362  0.90987  1.0000
  Fe  Fe233     1.0  0.75544  0.71912  0.91385  1.0000
  H   H2082     1.0  0.50923  0.89652  0.08499  1.0000
  H   H2083     1.0  0.74734  0.69182  0.81545  1.0000
  H   H2084     1.0  0.42687  0.77582  0.17581  1.0000
  H   H2085     1.0  0.55593  0.91896  0.02948  1.0000
  C   C1733     1.0  0.55848  0.74052  0.90958  1.0000
  C   C1734     1.0  0.92112  0.68707  0.88838  1.0000
  C   C1735     1.0  0.49213  0.78197  0.91093  1.0000
  C   C1736     1.0  0.68040  0.79752  0.05909  1.0000
  H   H2086     1.0  0.64326  0.75119  0.75501  1.0000
  C   C1737     1.0  0.62404  0.83179  0.86263  1.0000
  C   C1738     1.0  0.59962  0.89699  0.97047  1.0000
  H   H2087     1.0  0.58677  0.84527  0.78606  1.0000
  H   H2088     1.0  0.73960  0.90259  0.04013  1.0000
  H   H2089     1.0  0.69537  0.73685  0.03325  1.0000
  H   H2090     1.0  0.76084  0.69085  0.15924  1.0000
  H   H2091     1.0  0.80423  0.72680  0.12131  1.0000
  H   H2092     1.0  0.47602  0.69942  0.05651  1.0000
  C   C1739     1.0  0.67007  0.78238  0.12730  1.0000
  H   H2093     1.0  0.45610  0.77831  0.04836  1.0000
  C   C1740     1.0  0.87221  0.91949  0.08099  1.0000
  H   H2094     1.0  0.68428  0.86739  0.82304  1.0000
  S   S467      1.0  0.44067  0.70619  0.03723  1.0000
  C   C1741     1.0  0.54797  0.92469  0.06142  1.0000
  C   C1742     1.0  0.60154  0.82344  0.80201  1.0000
  H   H2095     1.0  0.49785  0.69231  0.81928  1.0000
  H   H2096     1.0  0.54433  0.68591  0.23502  1.0000
  H   H2097     1.0  0.79945  0.76662  0.12628  1.0000
  C   C1743     1.0  0.64265  0.92153  0.95363  1.0000
  C   C1744     1.0  0.55021  0.82649  0.14782  1.0000
  H   H2098     1.0  0.64017  0.68551  0.01994  1.0000
  H   H2099     1.0  0.69788  0.83167  0.16104  1.0000
  C   C1745     1.0  0.79253  0.84860  0.03966  1.0000
  H   H2100     1.0  0.81150  0.89520  0.04570  1.0000
  S   S468      1.0  0.75946  0.73610  0.10151  1.0000
  Fe  Fe234     1.0  0.59049  0.89397  0.77662  1.0000
  C   C1746     1.0  0.53823  0.73383  0.17394  1.0000
  S   S469      1.0  0.57859  0.91868  0.79347  1.0000
  H   H2101     1.0  0.84180  0.81165  0.05043  1.0000
  S   S470      1.0  0.66093  0.74402  0.00176  1.0000
  C   C1747     1.0  0.69608  0.88726  0.81559  1.0000
  H   H2102     1.0  0.55799  0.81011  0.77409  1.0000
  C   C1748     1.0  0.59056  0.75203  0.00579  1.0000
  H   H2103     1.0  0.65999  0.71210  0.78139  1.0000
  H   H2104     1.0  0.92384  0.83338  0.16047  1.0000
  H   H2105     1.0  0.87626  0.71057  0.82661  1.0000
  H   H2106     1.0  0.48460  0.84503  0.19022  1.0000
  H   H2107     1.0  0.75064  0.92929  0.81332  1.0000
  C   C1749     1.0  0.62992  0.75564  0.75205  1.0000
  S   S471      1.0  0.50516  0.87457  0.85082  1.0000
  C   C1750     1.0  0.46843  0.77498  0.01788  1.0000
  C   C1751     1.0  0.50686  0.81246  0.19728  1.0000
  S   S472      1.0  0.46870  0.77796  0.18501  1.0000
  C   C1752     1.0  0.80811  0.84047  0.11395  1.0000
  S   S473      1.0  0.58184  0.74267  0.17053  1.0000
  C   C1753     1.0  0.68290  0.73537  0.90847  1.0000
  C   C1754     1.0  0.69637  0.73498  0.98986  1.0000
  S   S474      1.0  0.86136  0.80407  0.20393  1.0000
  C   C1755     1.0  0.87472  0.77446  0.16821  1.0000
  H   H2108     1.0  0.85576  0.90324  0.12991  1.0000
  H   H2109     1.0  0.82052  0.82429  0.90211  1.0000
  C   C1756     1.0  0.70408  0.83925  0.06101  1.0000
  C   C1757     1.0  0.90628  0.82743  0.78350  1.0000
  S   S475      1.0  0.88474  0.71824  0.08383  1.0000
  Fe  Fe235     1.0  0.45054  0.73680  0.20101  1.0000
  H   H2110     1.0  0.49282  0.81378  0.22617  1.0000
  Fe  Fe236     1.0  0.46803  0.68303  0.77035  1.0000
  C   C1758     1.0  0.74753  0.81820  0.06872  1.0000
  Fe  Fe237     1.0  0.54616  0.89403  0.77960  1.0000
  H   H2111     1.0  0.67511  0.78746  0.03166  1.0000
  H   H2112     1.0  0.62100  0.69202  0.99584  1.0000
  H   H2113     1.0  0.82009  0.86544  0.93520  1.0000
  H   H2114     1.0  0.52685  0.76009  0.24291  1.0000
  H   H2115     1.0  0.63921  0.92147  0.84582  1.0000
  Fe  Fe238     1.0  0.58387  0.87294  0.17680  1.0000
  H   H2116     1.0  0.45147  0.80176  0.78781  1.0000
  C   C1759     1.0  0.51117  0.91914  0.13456  1.0000
  C   C1760     1.0  0.48154  0.85035  0.22838  1.0000
  H   H2117     1.0  0.90100  0.70861  0.78633  1.0000
  H   H2118     1.0  0.56572  0.73248  0.88482  1.0000
  H   H2119     1.0  0.78802  0.84360  0.90614  1.0000
  C   C1761     1.0  0.78469  0.79984  0.80223  1.0000
  H   H2120     1.0  0.89539  0.91891  0.19710  1.0000
  C   C1762     1.0  0.49710  0.68925  0.23449  1.0000
  C   C1763     1.0  0.71835  0.89648  0.81939  1.0000
  C   C1764     1.0  0.48393  0.68886  0.06926  1.0000
  C   C1765     1.0  0.68131  0.73745  0.96501  1.0000
  H   H2121     1.0  0.84255  0.89641  0.96341  1.0000
  H   H2122     1.0  0.58102  0.75476  0.04506  1.0000
  C   C1766     1.0  0.86519  0.71506  0.95694  1.0000
  H   H2123     1.0  0.55014  0.75394  0.03681  1.0000
  C   C1767     1.0  0.54998  0.75280  0.99350  1.0000
  H   H2124     1.0  0.55716  0.80708  0.09600  1.0000
  H   H2125     1.0  0.70078  0.72948  0.83244  1.0000
  S   S476      1.0  0.78671  0.70820  0.01390  1.0000
  C   C1768     1.0  0.61066  0.79235  0.24079  1.0000
  C   C1769     1.0  0.80011  0.85284  0.97386  1.0000
  H   H2126     1.0  0.62120  0.68627  0.12244  1.0000
  H   H2127     1.0  0.48980  0.68173  0.96544  1.0000
  H   H2128     1.0  0.75844  0.82606  0.13805  1.0000
  S   S477      1.0  0.43955  0.84111  0.22247  1.0000
  H   H2129     1.0  0.81017  0.82720  0.09770  1.0000
  H   H2130     1.0  0.51516  0.85808  0.23130  1.0000
  H   H2131     1.0  0.84407  0.86896  0.98610  1.0000
  C   C1770     1.0  0.61897  0.84925  0.86949  1.0000
  H   H2132     1.0  0.64083  0.89392  0.91954  1.0000
  N   N114      1.0  0.81126  0.86143  0.06025  1.0000
  H   H2133     1.0  0.68941  0.86984  0.03886  1.0000
  H   H2134     1.0  0.60090  0.88224  0.96040  1.0000
  H   H2135     1.0  0.77176  0.68754  0.79271  1.0000
  S   S478      1.0  0.57114  0.89804  0.15502  1.0000
  H   H2136     1.0  0.67222  0.89693  0.79743  1.0000
  C   C1771     1.0  0.53537  0.69474  0.22451  1.0000
  C   C1772     1.0  0.48958  0.88019  0.81074  1.0000
  H   H2137     1.0  0.65677  0.76068  0.15268  1.0000
  C   C1773     1.0  0.74604  0.88018  0.96949  1.0000
  H   H2138     1.0  0.53707  0.84098  0.20578  1.0000
  H   H2139     1.0  0.48456  0.76072  0.93390  1.0000
  C   C1774     1.0  0.51172  0.71713  0.19724  1.0000
  N   N115      1.0  0.90908  0.82228  0.84310  1.0000
  H   H2140     1.0  0.75951  0.90251  0.94269  1.0000
  S   S479      1.0  0.78665  0.75289  0.91445  1.0000
  C   C1775     1.0  0.57500  0.78638  0.22901  1.0000
  C   C1776     1.0  0.71517  0.72924  0.89996  1.0000
  C   C1777     1.0  0.83859  0.87982  0.00537  1.0000
  C   C1778     1.0  0.80377  0.77939  0.07810  1.0000
  H   H2141     1.0  0.63811  0.77541  0.74855  1.0000
  C   C1779     1.0  0.54991  0.72260  0.18928  1.0000
  C   C1780     1.0  0.67671  0.79518  0.16282  1.0000
  H   H2142     1.0  0.48284  0.68690  0.11728  1.0000
  H   H2143     1.0  0.66990  0.89004  0.94974  1.0000
  H   H2144     1.0  0.42997  0.84965  0.82896  1.0000
  Fe  Fe239     1.0  0.49046  0.73573  0.76658  1.0000
  H   H2145     1.0  0.91718  0.80483  0.94488  1.0000
  C   C1781     1.0  0.54732  0.75014  0.88314  1.0000
  C   C1782     1.0  0.56060  0.74206  0.96506  1.0000
  H   H2146     1.0  0.70526  0.87236  0.96151  1.0000
  H   H2147     1.0  0.88426  0.75632  0.88806  1.0000
  S   S480      1.0  0.73224  0.69125  0.02441  1.0000
  C   C1783     1.0  0.53889  0.76235  0.96659  1.0000
  S   S481      1.0  0.84822  0.75447  0.84561  1.0000
  Fe  Fe240     1.0  0.76464  0.72397  0.02459  1.0000
  Fe  Fe241     1.0  0.80603  0.73426  0.90360  1.0000
  H   H2148     1.0  0.54644  0.74946  0.83978  1.0000
  C   C1784     1.0  0.75894  0.68997  0.77768  1.0000
  H   H2149     1.0  0.58603  0.89765  0.95585  1.0000
  H   H2150     1.0  0.61332  0.80890  0.14661  1.0000
  Fe  Fe242     1.0  0.92162  0.89699  0.99297  1.0000
  N   N116      1.0  0.57213  0.73194  0.99486  1.0000
  H   H2151     1.0  0.87973  0.71976  0.97055  1.0000
  C   C1785     1.0  0.42928  0.77204  0.98149  1.0000
  N   N117      1.0  0.72102  0.86892  0.02553  1.0000
  N   N118      1.0  0.62510  0.92380  0.93410  1.0000
  H   H2152     1.0  0.91743  0.79264  0.17312  1.0000
  C   C1786     1.0  0.71358  0.73127  0.95673  1.0000
  H   H2153     1.0  0.75565  0.87285  0.98760  1.0000
  C   C1787     1.0  0.66539  0.90258  0.95982  1.0000
  H   H2154     1.0  0.63464  0.82832  0.88358  1.0000
  Fe  Fe243     1.0  0.43501  0.70435  0.13398  1.0000
  H   H2155     1.0  0.81326  0.69798  0.90731  1.0000
  H   H2156     1.0  0.74147  0.81305  0.99017  1.0000
  H   H2157     1.0  0.62566  0.85910  0.89586  1.0000
  H   H2158     1.0  0.84661  0.80162  0.75365  1.0000
  C   C1788     1.0  0.46296  0.86097  0.84009  1.0000
  Fe  Fe244     1.0  0.70188  0.80739  0.76306  1.0000
  H   H2159     1.0  0.70423  0.83630  0.97353  1.0000
  S   S482      1.0  0.77660  0.70285  0.89337  1.0000
  H   H2160     1.0  0.49061  0.90831  0.15749  1.0000
  S   S483      1.0  0.45560  0.69384  0.84558  1.0000
  C   C1789     1.0  0.60087  0.79704  0.20043  1.0000
  C   C1790     1.0  0.64869  0.90491  0.94266  1.0000
  C   C1791     1.0  0.52229  0.68692  0.84792  1.0000
  C   C1792     1.0  0.92269  0.84796  0.84210  1.0000
  C   C1793     1.0  0.87371  0.75181  0.18336  1.0000
  S   S484      1.0  0.58139  0.84643  0.13411  1.0000
  N   N119      1.0  0.47340  0.78487  0.94867  1.0000
  C   C1794     1.0  0.55131  0.70687  0.05980  1.0000
  C   C1795     1.0  0.81581  0.81189  0.95131  1.0000
  C   C1796     1.0  0.75558  0.82300  0.00371  1.0000
  H   H2161     1.0  0.50456  0.70210  0.03001  1.0000
  C   C1797     1.0  0.70851  0.87830  0.99831  1.0000
  S   S485      1.0  0.60221  0.87851  0.84433  1.0000
  H   H2162     1.0  0.68618  0.75453  0.77935  1.0000
  H   H2163     1.0  0.78645  0.86582  0.12563  1.0000
  C   C1798     1.0  0.53193  0.82797  0.18542  1.0000
  C   C1799     1.0  0.72668  0.88025  0.06865  1.0000
  C   C1800     1.0  0.81016  0.80951  0.76762  1.0000
  C   C1801     1.0  0.79165  0.78667  0.99483  1.0000
  H   H2164     1.0  0.63073  0.80060  0.21856  1.0000
  H   H2165     1.0  0.67073  0.73648  0.89052  1.0000
  C   C1802     1.0  0.60602  0.85460  0.84050  1.0000
  C   C1803     1.0  0.92379  0.81201  0.84524  1.0000
  H   H2166     1.0  0.78902  0.82764  0.16019  1.0000
  C   C1804     1.0  0.61545  0.81899  0.82853  1.0000
  C   C1805     1.0  0.49983  0.79507  0.17246  1.0000
  H   H2167     1.0  0.61110  0.74038  0.79978  1.0000
  H   H2168     1.0  0.82211  0.74127  0.15794  1.0000
  C   C1806     1.0  0.89346  0.92013  0.05457  1.0000
  H   H2169     1.0  0.68988  0.91532  0.00058  1.0000
  C   C1807     1.0  0.50356  0.90340  0.74924  1.0000
  S   S486      1.0  0.87888  0.86456  0.04636  1.0000
  C   C1808     1.0  0.73340  0.92214  0.81038  1.0000
  H   H2170     1.0  0.51236  0.77913  0.11798  1.0000
  C   C1809     1.0  0.80966  0.72217  0.15928  1.0000
  H   H2171     1.0  0.59464  0.81334  0.77624  1.0000
  Fe  Fe245     1.0  0.70271  0.83850  0.83554  1.0000
  H   H2172     1.0  0.53030  0.70428  0.85371  1.0000
  H   H2173     1.0  0.76615  0.71558  0.20725  1.0000
  C   C1810     1.0  0.69966  0.73109  0.87619  1.0000
  H   H2174     1.0  0.78138  0.74019  0.74983  1.0000
  S   S487      1.0  0.72784  0.87636  0.83478  1.0000
  H   H2175     1.0  0.72057  0.90054  0.97160  1.0000
  C   C1811     1.0  0.48591  0.81383  0.91725  1.0000
  Fe  Fe246     1.0  0.67096  0.77817  0.91467  1.0000
  H   H2176     1.0  0.89358  0.90458  0.08373  1.0000
  C   C1812     1.0  0.53764  0.76108  0.91142  1.0000
  H   H2177     1.0  0.48657  0.78514  0.01923  1.0000
  Fe  Fe247     1.0  0.88822  0.85617  0.96401  1.0000
  H   H2178     1.0  0.73666  0.87451  0.08980  1.0000
  C   C1813     1.0  0.52169  0.91212  0.09257  1.0000
  N   N120      1.0  0.78675  0.70090  0.22693  1.0000
  H   H2179     1.0  0.49700  0.78934  0.85799  1.0000
  S   S488      1.0  0.89186  0.82617  0.01846  1.0000
  H   H2180     1.0  0.69847  0.69650  0.20211  1.0000
  S   S489      1.0  0.51718  0.76328  0.78953  1.0000
  H   H2181     1.0  0.85199  0.88954  0.02250  1.0000
  C   C1814     1.0  0.88260  0.80285  0.90240  1.0000
  H   H2182     1.0  0.87126  0.81030  0.90189  1.0000
  H   H2183     1.0  0.66630  0.93050  0.18867  1.0000
  C   C1815     1.0  0.70484  0.93003  0.78922  1.0000
  H   H2184     1.0  0.45737  0.78568  0.74435  1.0000
  C   C1816     1.0  0.82481  0.68237  0.96899  1.0000
  Fe  Fe248     1.0  0.60750  0.93048  0.14338  1.0000
  C   C1817     1.0  0.92604  0.80379  0.90219  1.0000
  H   H2185     1.0  0.90611  0.75317  0.24293  1.0000
  C   C1818     1.0  0.46459  0.88767  0.74444  1.0000
  C   C1819     1.0  0.92258  0.75419  0.24294  1.0000
  C   C1820     1.0  0.75093  0.92671  0.64302  1.0000
  H   H2186     1.0  0.89859  0.82075  0.27115  1.0000
  C   C1821     1.0  0.55795  0.77023  0.29925  1.0000
  C   C1822     1.0  0.85891  0.73095  0.24943  1.0000
  H   H2187     1.0  0.68901  0.89553  0.55940  1.0000
  H   H2188     1.0  0.75852  0.75655  0.35454  1.0000
  H   H2189     1.0  0.51027  0.77583  0.33177  1.0000
  C   C1823     1.0  0.47411  0.86455  0.32593  1.0000
  Fe  Fe249     1.0  0.86484  0.88887  0.33931  1.0000
  H   H2190     1.0  0.66471  0.68391  0.35548  1.0000
  C   C1824     1.0  0.82146  0.81419  0.70188  1.0000
  H   H2191     1.0  0.78591  0.83547  0.58530  1.0000
  C   C1825     1.0  0.84448  0.73236  0.29986  1.0000
  S   S490      1.0  0.86523  0.85736  0.32387  1.0000
  H   H2192     1.0  0.83255  0.75486  0.32287  1.0000
  C   C1826     1.0  0.55626  0.81588  0.73064  1.0000
  H   H2193     1.0  0.59917  0.68650  0.63117  1.0000
  H   H2194     1.0  0.60248  0.77388  0.34113  1.0000
  C   C1827     1.0  0.80124  0.76763  0.37696  1.0000
  H   H2195     1.0  0.85644  0.84510  0.56643  1.0000
  S   S491      1.0  0.62223  0.68249  0.34100  1.0000
  H   H2196     1.0  0.73512  0.74936  0.49620  1.0000
  C   C1828     1.0  0.49523  0.86494  0.30013  1.0000
  S   S492      1.0  0.51645  0.87417  0.33040  1.0000
  Fe  Fe250     1.0  0.60108  0.89238  0.26465  1.0000
  H   H2197     1.0  0.47805  0.85083  0.73166  1.0000
  H   H2198     1.0  0.49402  0.73133  0.42122  1.0000
  C   C1829     1.0  0.48955  0.90701  0.51480  1.0000
  H   H2199     1.0  0.86551  0.80321  0.32968  1.0000
  H   H2200     1.0  0.73039  0.72431  0.47596  1.0000
  C   C1830     1.0  0.60820  0.74486  0.54664  1.0000
  H   H2201     1.0  0.44073  0.85709  0.32273  1.0000
  H   H2202     1.0  0.61519  0.72761  0.65940  1.0000
  H   H2203     1.0  0.50419  0.80100  0.53737  1.0000
  H   H2204     1.0  0.59071  0.85297  0.47287  1.0000
  Fe  Fe251     1.0  0.57922  0.71947  0.26319  1.0000
  C   C1831     1.0  0.91784  0.75976  0.73729  1.0000
  C   C1832     1.0  0.82926  0.89049  0.27507  1.0000
  H   H2205     1.0  0.73647  0.75341  0.65393  1.0000
  H   H2206     1.0  0.47158  0.90408  0.53483  1.0000
  H   H2207     1.0  0.60155  0.78999  0.45666  1.0000
  C   C1833     1.0  0.48288  0.84219  0.57394  1.0000
  H   H2208     1.0  0.55382  0.79790  0.44905  1.0000
  H   H2209     1.0  0.52091  0.73033  0.29791  1.0000
  N   N121      1.0  0.53070  0.75957  0.32862  1.0000
  C   C1834     1.0  0.61385  0.78533  0.68393  1.0000
  S   S493      1.0  0.62002  0.89157  0.32456  1.0000
  C   C1835     1.0  0.88503  0.81284  0.32360  1.0000
  C   C1836     1.0  0.72148  0.71679  0.65229  1.0000
  H   H2210     1.0  0.75435  0.78029  0.31599  1.0000
  C   C1837     1.0  0.67425  0.71639  0.37418  1.0000
  C   C1838     1.0  0.87447  0.76935  0.36650  1.0000
  H   H2211     1.0  0.65483  0.88598  0.35687  1.0000
  C   C1839     1.0  0.58724  0.73792  0.53751  1.0000
  H   H2212     1.0  0.77667  0.88030  0.27122  1.0000
  H   H2213     1.0  0.91754  0.83984  0.37074  1.0000
  S   S494      1.0  0.71583  0.82209  0.42609  1.0000
  S   S495      1.0  0.69183  0.80047  0.33784  1.0000
  C   C1840     1.0  0.65590  0.85256  0.27378  1.0000
  H   H2214     1.0  0.43473  0.77505  0.39961  1.0000
  S   S496      1.0  0.66736  0.83525  0.25844  1.0000
  H   H2215     1.0  0.89029  0.83038  0.32982  1.0000
  H   H2216     1.0  0.43916  0.85185  0.49587  1.0000
  C   C1841     1.0  0.88540  0.77367  0.55987  1.0000
  C   C1842     1.0  0.44338  0.91267  0.39852  1.0000
  H   H2217     1.0  0.50070  0.83553  0.74239  1.0000
  C   C1843     1.0  0.59903  0.72044  0.47081  1.0000
  Fe  Fe252     1.0  0.48046  0.72991  0.65560  1.0000
  H   H2218     1.0  0.58143  0.83221  0.40850  1.0000
  C   C1844     1.0  0.72327  0.73584  0.48144  1.0000
  H   H2219     1.0  0.92508  0.76703  0.45996  1.0000
  C   C1845     1.0  0.43703  0.72467  0.48536  1.0000
  C   C1846     1.0  0.59694  0.79076  0.68089  1.0000
  C   C1847     1.0  0.80429  0.77235  0.47032  1.0000
  C   C1848     1.0  0.63438  0.87713  0.30433  1.0000
  H   H2220     1.0  0.52277  0.78867  0.66027  1.0000
  H   H2221     1.0  0.87593  0.80288  0.44945  1.0000
  H   H2222     1.0  0.66064  0.71802  0.36408  1.0000
  C   C1849     1.0  0.45684  0.85723  0.30269  1.0000
  C   C1850     1.0  0.82749  0.86996  0.26561  1.0000
  C   C1851     1.0  0.72779  0.92874  0.30270  1.0000
  H   H2223     1.0  0.73196  0.78217  0.44270  1.0000
  C   C1852     1.0  0.67657  0.69722  0.36906  1.0000
  S   S497      1.0  0.58069  0.88389  0.58476  1.0000
  C   C1853     1.0  0.78647  0.74449  0.51126  1.0000
  H   H2224     1.0  0.43509  0.78003  0.51886  1.0000
  H   H2225     1.0  0.72209  0.78235  0.38292  1.0000
  C   C1854     1.0  0.90792  0.78066  0.51163  1.0000
  C   C1855     1.0  0.47855  0.76079  0.46246  1.0000
  N   N122      1.0  0.58049  0.80477  0.48454  1.0000
  H   H2226     1.0  0.92539  0.80089  0.48408  1.0000
  C   C1856     1.0  0.70846  0.91756  0.62936  1.0000
  H   H2227     1.0  0.67282  0.86300  0.33272  1.0000
  C   C1857     1.0  0.52862  0.91943  0.51575  1.0000
  C   C1858     1.0  0.73787  0.69376  0.68594  1.0000
  C   C1859     1.0  0.78443  0.92717  0.33632  1.0000
  C   C1860     1.0  0.62102  0.86755  0.49283  1.0000
  H   H2228     1.0  0.52201  0.84993  0.65565  1.0000
  C   C1861     1.0  0.85805  0.83047  0.59630  1.0000
  C   C1862     1.0  0.73978  0.89967  0.42246  1.0000
  H   H2229     1.0  0.60809  0.81662  0.38867  1.0000
  Fe  Fe253     1.0  0.68428  0.83006  0.32165  1.0000
  H   H2230     1.0  0.82490  0.80531  0.37102  1.0000
  C   C1863     1.0  0.68906  0.91215  0.56080  1.0000
  S   S498      1.0  0.57380  0.68160  0.28375  1.0000
  H   H2231     1.0  0.70294  0.72151  0.52386  1.0000
  H   H2232     1.0  0.87430  0.75414  0.40152  1.0000
  C   C1864     1.0  0.69416  0.69520  0.38135  1.0000
  H   H2233     1.0  0.47716  0.91059  0.25251  1.0000
  H   H2234     1.0  0.65226  0.87900  0.51158  1.0000
  H   H2235     1.0  0.80554  0.73622  0.72354  1.0000
  Fe  Fe254     1.0  0.84935  0.83565  0.43401  1.0000
  N   N123      1.0  0.48205  0.82886  0.68433  1.0000
  H   H2236     1.0  0.54782  0.88977  0.40408  1.0000
  C   C1865     1.0  0.49866  0.81288  0.54709  1.0000
  C   C1866     1.0  0.42695  0.81740  0.48420  1.0000
  S   S499      1.0  0.72473  0.80904  0.67215  1.0000
  H   H2237     1.0  0.87231  0.72919  0.69815  1.0000
  H   H2238     1.0  0.62275  0.88532  0.48639  1.0000
  H   H2239     1.0  0.56400  0.68861  0.66544  1.0000
  H   H2240     1.0  0.79856  0.89798  0.56014  1.0000
  C   C1867     1.0  0.71144  0.77890  0.61295  1.0000
  Fe  Fe255     1.0  0.90401  0.87919  0.31322  1.0000
  H   H2241     1.0  0.72356  0.71066  0.40519  1.0000
  C   C1868     1.0  0.91836  0.72318  0.65093  1.0000
  C   C1869     1.0  0.73600  0.90496  0.63676  1.0000
  C   C1870     1.0  0.46054  0.85021  0.25363  1.0000
  H   H2242     1.0  0.89623  0.91610  0.59454  1.0000
  C   C1871     1.0  0.91953  0.74424  0.65769  1.0000
  H   H2243     1.0  0.75299  0.89574  0.33733  1.0000
  C   C1872     1.0  0.65062  0.87680  0.32726  1.0000
  H   H2244     1.0  0.84754  0.81186  0.59414  1.0000
  H   H2245     1.0  0.78029  0.86532  0.41169  1.0000
  C   C1873     1.0  0.51860  0.74594  0.29592  1.0000
  C   C1874     1.0  0.43251  0.92841  0.31897  1.0000
  H   H2246     1.0  0.87405  0.92011  0.44630  1.0000
  C   C1875     1.0  0.88364  0.74317  0.71272  1.0000
  H   H2247     1.0  0.80730  0.77672  0.32450  1.0000
  C   C1876     1.0  0.77716  0.81129  0.48249  1.0000
  H   H2248     1.0  0.74053  0.89142  0.63807  1.0000
  H   H2249     1.0  0.61469  0.80390  0.51947  1.0000
  H   H2250     1.0  0.77450  0.82817  0.39812  1.0000
  C   C1877     1.0  0.45042  0.71867  0.56610  1.0000
  C   C1878     1.0  0.66101  0.86406  0.31302  1.0000
  H   H2251     1.0  0.49914  0.91835  0.58241  1.0000
  S   S500      1.0  0.88523  0.79782  0.57440  1.0000
  C   C1879     1.0  0.78869  0.85641  0.26203  1.0000
  S   S501      1.0  0.88844  0.85502  0.42246  1.0000
  C   C1880     1.0  0.88465  0.73576  0.52988  1.0000
  H   H2252     1.0  0.81146  0.88066  0.55238  1.0000
  H   H2253     1.0  0.70875  0.71763  0.63622  1.0000
  H   H2254     1.0  0.77731  0.86224  0.60812  1.0000
  C   C1881     1.0  0.51458  0.73984  0.40147  1.0000
  H   H2255     1.0  0.56419  0.91133  0.52106  1.0000
  N   N124      1.0  0.77368  0.71352  0.71040  1.0000
  C   C1882     1.0  0.47387  0.74435  0.52353  1.0000
  H   H2256     1.0  0.49669  0.80196  0.64053  1.0000
  C   C1883     1.0  0.88721  0.92141  0.57030  1.0000
  C   C1884     1.0  0.77695  0.82992  0.43898  1.0000
  C   C1885     1.0  0.42821  0.90733  0.36908  1.0000
  H   H2257     1.0  0.77801  0.69394  0.65506  1.0000
  H   H2258     1.0  0.71069  0.91333  0.35174  1.0000
  H   H2259     1.0  0.53996  0.92616  0.53839  1.0000
  S   S502      1.0  0.90016  0.90249  0.49291  1.0000
  H   H2260     1.0  0.46405  0.76330  0.39507  1.0000
  C   C1886     1.0  0.71920  0.76884  0.42925  1.0000
  H   H2261     1.0  0.84427  0.70835  0.60491  1.0000
  H   H2262     1.0  0.66171  0.79675  0.62917  1.0000
  C   C1887     1.0  0.80733  0.85304  0.25843  1.0000
  C   C1888     1.0  0.60795  0.76038  0.69447  1.0000
  C   C1889     1.0  0.62918  0.86544  0.26556  1.0000
  C   C1890     1.0  0.84450  0.75438  0.28402  1.0000
  S   S503      1.0  0.56397  0.85668  0.28744  1.0000
  C   C1891     1.0  0.70788  0.73235  0.40371  1.0000
  Fe  Fe256     1.0  0.92487  0.83149  0.54485  1.0000
  C   C1892     1.0  0.48717  0.82901  0.62051  1.0000
  C   C1893     1.0  0.77613  0.72817  0.48553  1.0000
  C   C1894     1.0  0.58290  0.72606  0.49877  1.0000
  H   H2263     1.0  0.86727  0.77022  0.47698  1.0000
  C   C1895     1.0  0.49102  0.90732  0.71651  1.0000
  C   C1896     1.0  0.43218  0.78923  0.40955  1.0000
  H   H2264     1.0  0.77976  0.68229  0.32643  1.0000
  C   C1897     1.0  0.74711  0.91396  0.45483  1.0000
  H   H2265     1.0  0.42903  0.79857  0.37083  1.0000
  H   H2266     1.0  0.43971  0.89631  0.43812  1.0000
  S   S504      1.0  0.76163  0.83313  0.26279  1.0000
  S   S505      1.0  0.65719  0.70132  0.67483  1.0000
  C   C1898     1.0  0.69630  0.75488  0.61401  1.0000
  C   C1899     1.0  0.68944  0.73362  0.39172  1.0000
  H   H2267     1.0  0.49777  0.82555  0.45658  1.0000
  H   H2268     1.0  0.66281  0.86848  0.68072  1.0000
  H   H2269     1.0  0.80985  0.90557  0.39666  1.0000
  H   H2270     1.0  0.69893  0.75512  0.56785  1.0000
  H   H2271     1.0  0.57505  0.89812  0.41267  1.0000
  C   C1900     1.0  0.87458  0.92353  0.48700  1.0000
  N   N125      1.0  0.68568  0.91178  0.62432  1.0000
  Fe  Fe257     1.0  0.55394  0.88424  0.26431  1.0000
  C   C1901     1.0  0.52992  0.78217  0.31789  1.0000
  H   H2272     1.0  0.74912  0.85882  0.55976  1.0000
  H   H2273     1.0  0.76249  0.70664  0.51779  1.0000
  C   C1902     1.0  0.86893  0.78601  0.43973  1.0000
  S   S506      1.0  0.46988  0.74474  0.72165  1.0000
  H   H2274     1.0  0.84909  0.77775  0.45017  1.0000
  H   H2275     1.0  0.51518  0.72277  0.41275  1.0000
  H   H2276     1.0  0.44493  0.82095  0.47385  1.0000
  C   C1903     1.0  0.71495  0.90026  0.63046  1.0000
  C   C1904     1.0  0.48682  0.84096  0.51551  1.0000
  C   C1905     1.0  0.50517  0.91503  0.54181  1.0000
  C   C1906     1.0  0.76708  0.87790  0.51477  1.0000
  H   H2277     1.0  0.84514  0.74210  0.63206  1.0000
  C   C1907     1.0  0.81260  0.90340  0.44027  1.0000
  H   H2278     1.0  0.69899  0.75704  0.46994  1.0000
  H   H2279     1.0  0.48581  0.89885  0.43759  1.0000
  C   C1908     1.0  0.73731  0.73701  0.66179  1.0000
  S   S507      1.0  0.88460  0.71241  0.51066  1.0000
  S   S508      1.0  0.85863  0.70328  0.27209  1.0000
  H   H2280     1.0  0.81326  0.91091  0.28024  1.0000
  H   H2281     1.0  0.54859  0.73140  0.70870  1.0000
  C   C1909     1.0  0.68874  0.75471  0.73337  1.0000
  Fe  Fe258     1.0  0.72971  0.83310  0.31883  1.0000
  H   H2282     1.0  0.57462  0.74196  0.55969  1.0000
  H   H2283     1.0  0.47125  0.87023  0.36335  1.0000
  S   S509      1.0  0.44491  0.68702  0.72661  1.0000
  C   C1910     1.0  0.67704  0.73081  0.67484  1.0000
  C   C1911     1.0  0.78373  0.73972  0.41808  1.0000
  C   C1912     1.0  0.59276  0.79845  0.43857  1.0000
  H   H2284     1.0  0.45084  0.80539  0.40138  1.0000
  H   H2285     1.0  0.76662  0.92975  0.65049  1.0000
  H   H2286     1.0  0.64799  0.83830  0.52761  1.0000
  H   H2287     1.0  0.55049  0.78371  0.58602  1.0000
  H   H2288     1.0  0.63241  0.72308  0.45788  1.0000
  N   N126      1.0  0.78960  0.87845  0.50342  1.0000
  C   C1913     1.0  0.50250  0.83230  0.69918  1.0000
  S   S510      1.0  0.90501  0.91258  0.32008  1.0000
  Fe  Fe259     1.0  0.88695  0.88707  0.42992  1.0000
  H   H2289     1.0  0.47526  0.69195  0.59962  1.0000
  C   C1914     1.0  0.49754  0.90394  0.46031  1.0000
  C   C1915     1.0  0.81142  0.78390  0.40312  1.0000
  C   C1916     1.0  0.78045  0.85128  0.44692  1.0000
  C   C1917     1.0  0.61965  0.72691  0.48084  1.0000
  H   H2290     1.0  0.76957  0.89463  0.52199  1.0000
  C   C1918     1.0  0.78369  0.83488  0.54355  1.0000
  H   H2291     1.0  0.84188  0.86744  0.26248  1.0000
  C   C1919     1.0  0.60246  0.84857  0.48534  1.0000
  C   C1920     1.0  0.49488  0.82651  0.50184  1.0000
  C   C1921     1.0  0.49461  0.81382  0.60584  1.0000
  S   S511      1.0  0.70746  0.87318  0.45607  1.0000
  H   H2292     1.0  0.86208  0.86490  0.64159  1.0000
  H   H2293     1.0  0.81758  0.92168  0.44272  1.0000
  C   C1922     1.0  0.55127  0.83100  0.61905  1.0000
  C   C1923     1.0  0.81149  0.89474  0.27449  1.0000
  N   N127      1.0  0.84869  0.82503  0.66601  1.0000
  H   H2294     1.0  0.63150  0.80072  0.67870  1.0000
  H   H2295     1.0  0.80345  0.75613  0.66177  1.0000
  C   C1924     1.0  0.57158  0.84292  0.68256  1.0000
  Fe  Fe260     1.0  0.70547  0.84945  0.40462  1.0000
  H   H2296     1.0  0.54568  0.76389  0.54657  1.0000
  H   H2297     1.0  0.78033  0.79903  0.56879  1.0000
  H   H2298     1.0  0.82974  0.90401  0.42799  1.0000
  C   C1925     1.0  0.58358  0.74080  0.70494  1.0000
  H   H2299     1.0  0.42671  0.72568  0.70112  1.0000
  C   C1926     1.0  0.53795  0.79641  0.72399  1.0000
  C   C1927     1.0  0.53702  0.91574  0.46127  1.0000
  C   C1928     1.0  0.79442  0.87975  0.55855  1.0000
  H   H2300     1.0  0.83272  0.71612  0.35108  1.0000
  H   H2301     1.0  0.80559  0.71713  0.27690  1.0000
  H   H2302     1.0  0.57684  0.72085  0.71614  1.0000
  H   H2303     1.0  0.81220  0.81071  0.62394  1.0000
  H   H2304     1.0  0.50174  0.81440  0.71316  1.0000
  C   C1929     1.0  0.55685  0.89555  0.43367  1.0000
  H   H2305     1.0  0.57859  0.78325  0.43167  1.0000
  C   C1930     1.0  0.61624  0.82167  0.51023  1.0000
  H   H2306     1.0  0.80316  0.72928  0.61186  1.0000
  C   C1931     1.0  0.85184  0.80573  0.70182  1.0000
  C   C1932     1.0  0.86208  0.72849  0.57925  1.0000
  H   H2307     1.0  0.76797  0.79391  0.68657  1.0000
  C   C1933     1.0  0.48086  0.85061  0.68441  1.0000
  H   H2308     1.0  0.55541  0.81563  0.49248  1.0000
  S   S512      1.0  0.72340  0.86388  0.29443  1.0000
  C   C1934     1.0  0.70978  0.71262  0.39777  1.0000
  C   C1935     1.0  0.79176  0.73763  0.71135  1.0000
  C   C1936     1.0  0.48582  0.68361  0.59717  1.0000
  S   S513      1.0  0.56809  0.92142  0.66903  1.0000
  H   H2309     1.0  0.92197  0.75361  0.28961  1.0000
  C   C1937     1.0  0.57592  0.92719  0.46754  1.0000
  Fe  Fe261     1.0  0.58116  0.89704  0.66064  1.0000
  H   H2310     1.0  0.56084  0.77583  0.68536  1.0000
  H   H2311     1.0  0.77516  0.79515  0.47532  1.0000
  H   H2312     1.0  0.73269  0.90901  0.50036  1.0000
  H   H2313     1.0  0.59384  0.92937  0.44613  1.0000
  H   H2314     1.0  0.87216  0.81335  0.67591  1.0000
  H   H2315     1.0  0.76587  0.75240  0.68794  1.0000
  H   H2316     1.0  0.76590  0.78279  0.37295  1.0000
  C   C1938     1.0  0.91260  0.80695  0.35709  1.0000
  H   H2317     1.0  0.80575  0.83686  0.25242  1.0000
  C   C1939     1.0  0.78018  0.81358  0.53514  1.0000
  H   H2318     1.0  0.78087  0.73550  0.56277  1.0000
  S   S514      1.0  0.60319  0.73071  0.31093  1.0000
  C   C1940     1.0  0.78458  0.85482  0.49844  1.0000
  H   H2319     1.0  0.80136  0.70665  0.67865  1.0000
  C   C1941     1.0  0.65202  0.77702  0.63204  1.0000
  S   S515      1.0  0.66588  0.81747  0.42981  1.0000
  C   C1942     1.0  0.56732  0.81313  0.45742  1.0000
  C   C1943     1.0  0.67377  0.73070  0.73447  1.0000
  C   C1944     1.0  0.88648  0.91691  0.51781  1.0000
  C   C1945     1.0  0.79086  0.87741  0.26939  1.0000
  H   H2320     1.0  0.89314  0.76381  0.67349  1.0000
  C   C1946     1.0  0.78965  0.71073  0.66192  1.0000
  H   H2321     1.0  0.55734  0.75466  0.39249  1.0000
  H   H2322     1.0  0.52650  0.90618  0.39065  1.0000
  H   H2323     1.0  0.52395  0.91852  0.72754  1.0000
  C   C1947     1.0  0.43211  0.70883  0.54718  1.0000
  H   H2324     1.0  0.58547  0.85806  0.68826  1.0000
  N   N128      1.0  0.56167  0.92016  0.43199  1.0000
  H   H2325     1.0  0.66374  0.92633  0.62348  1.0000
  C   C1948     1.0  0.56053  0.77998  0.55034  1.0000
  C   C1949     1.0  0.78002  0.79850  0.70856  1.0000
  S   S516      1.0  0.49776  0.75479  0.54507  1.0000
  S   S517      1.0  0.84658  0.86594  0.45039  1.0000
  C   C1950     1.0  0.56796  0.85050  0.62916  1.0000
  C   C1951     1.0  0.59469  0.77730  0.30990  1.0000
  C   C1952     1.0  0.63509  0.84103  0.51626  1.0000
  C   C1953     1.0  0.75849  0.90636  0.36313  1.0000
  H   H2326     1.0  0.83969  0.78625  0.70475  1.0000
  C   C1954     1.0  0.52095  0.90835  0.43364  1.0000
  H   H2327     1.0  0.87880  0.83947  0.56987  1.0000
  C   C1955     1.0  0.80548  0.80811  0.67337  1.0000
  H   H2328     1.0  0.88491  0.77397  0.31469  1.0000
  C   C1956     1.0  0.75409  0.73612  0.68161  1.0000
  C   C1957     1.0  0.56870  0.76630  0.33891  1.0000
  S   S518      1.0  0.85193  0.91006  0.29300  1.0000
  H   H2329     1.0  0.88641  0.86085  0.63071  1.0000
  H   H2330     1.0  0.90480  0.70277  0.69134  1.0000
  H   H2331     1.0  0.85397  0.75941  0.38116  1.0000
  C   C1958     1.0  0.59984  0.82522  0.49248  1.0000
  H   H2332     1.0  0.52071  0.74913  0.43084  1.0000
  S   S519      1.0  0.65135  0.74925  0.52521  1.0000
  H   H2333     1.0  0.56882  0.77195  0.57281  1.0000
  H   H2334     1.0  0.42750  0.78529  0.27673  1.0000
  H   H2335     1.0  0.78160  0.72780  0.24952  1.0000
  C   C1959     1.0  0.63752  0.86396  0.50737  1.0000
  H   H2336     1.0  0.72571  0.79758  0.56585  1.0000
  H   H2337     1.0  0.54383  0.87827  0.48579  1.0000
  H   H2338     1.0  0.49641  0.78101  0.42997  1.0000
  C   C1960     1.0  0.57375  0.77153  0.68847  1.0000
  H   H2339     1.0  0.47587  0.85305  0.58212  1.0000
  C   C1961     1.0  0.86250  0.74750  0.59440  1.0000
  H   H2340     1.0  0.81023  0.69482  0.26028  1.0000
  H   H2341     1.0  0.76383  0.87971  0.47206  1.0000
  H   H2342     1.0  0.54874  0.83689  0.57709  1.0000
  C   C1962     1.0  0.46019  0.75086  0.44300  1.0000
  C   C1963     1.0  0.62403  0.73883  0.51933  1.0000
  S   S520      1.0  0.50423  0.72465  0.69430  1.0000
  N   N129      1.0  0.88584  0.79395  0.37116  1.0000
  S   S521      1.0  0.81753  0.79134  0.50573  1.0000
  H   H2343     1.0  0.53654  0.79142  0.34683  1.0000
  H   H2344     1.0  0.92525  0.84361  0.73687  1.0000
  Fe  Fe262     1.0  0.67766  0.79140  0.44311  1.0000
  H   H2345     1.0  0.91726  0.77878  0.33793  1.0000
  H   H2346     1.0  0.86274  0.84805  0.71258  1.0000
  H   H2347     1.0  0.60177  0.80993  0.67283  1.0000
  N   N130      1.0  0.90248  0.73986  0.72091  1.0000
  H   H2348     1.0  0.63446  0.69418  0.54863  1.0000
  N   N131      1.0  0.72518  0.75104  0.41934  1.0000
  H   H2349     1.0  0.70367  0.88287  0.62684  1.0000
  H   H2350     1.0  0.61236  0.75521  0.57378  1.0000
  C   C1964     1.0  0.90756  0.76168  0.49679  1.0000
  H   H2351     1.0  0.68646  0.74786  0.39499  1.0000
  H   H2352     1.0  0.49760  0.73599  0.32020  1.0000
  C   C1965     1.0  0.75212  0.76836  0.36344  1.0000
  H   H2353     1.0  0.64995  0.77958  0.58739  1.0000
  H   H2354     1.0  0.48329  0.85100  0.48088  1.0000
  H   H2355     1.0  0.49890  0.87061  0.64284  1.0000
  S   S522      1.0  0.77137  0.71948  0.38489  1.0000
  H   H2356     1.0  0.66572  0.77249  0.62704  1.0000
  S   S523      1.0  0.55817  0.71915  0.48231  1.0000
  H   H2357     1.0  0.67353  0.91045  0.55215  1.0000
  S   S524      1.0  0.61633  0.92213  0.66555  1.0000
  H   H2358     1.0  0.48930  0.68149  0.63975  1.0000
  C   C1966     1.0  0.53631  0.80380  0.66657  1.0000
  Fe  Fe263     1.0  0.59449  0.69072  0.33963  1.0000
  N   N132      1.0  0.62666  0.75553  0.69461  1.0000
  H   H2359     1.0  0.46441  0.84830  0.68052  1.0000
  H   H2360     1.0  0.50492  0.69891  0.55027  1.0000
  S   S525      1.0  0.44994  0.89162  0.69909  1.0000
  H   H2361     1.0  0.44142  0.79896  0.72806  1.0000
  C   C1967     1.0  0.70726  0.77888  0.67286  1.0000
  C   C1968     1.0  0.61850  0.72943  0.70036  1.0000
  C   C1969     1.0  0.86556  0.85068  0.66296  1.0000
  H   H2362     1.0  0.44660  0.70596  0.61290  1.0000
  H   H2363     1.0  0.63338  0.72682  0.69734  1.0000
  C   C1970     1.0  0.56698  0.74657  0.70104  1.0000
  H   H2364     1.0  0.59569  0.71116  0.44129  1.0000
  C   C1971     1.0  0.66217  0.88488  0.68060  1.0000
  Fe  Fe264     1.0  0.56546  0.70730  0.40578  1.0000
  C   C1972     1.0  0.75534  0.71468  0.69267  1.0000
  S   S526      1.0  0.54252  0.69970  0.35584  1.0000
  S   S527      1.0  0.58957  0.91861  0.25086  1.0000
  H   H2365     1.0  0.42712  0.74642  0.31863  1.0000
  C   C1973     1.0  0.72157  0.69508  0.66500  1.0000
  C   C1974     1.0  0.45707  0.80275  0.73869  1.0000
  C   C1975     1.0  0.79594  0.69847  0.27470  1.0000
  S   S528      1.0  0.43051  0.70048  0.29975  1.0000
  H   H2366     1.0  0.64455  0.88027  0.67953  1.0000
  H   H2367     1.0  0.50183  0.92541  0.66926  1.0000
  H   H2368     1.0  0.43332  0.76502  0.62399  1.0000
  C   C1976     1.0  0.92589  0.79661  0.34124  1.0000
  H   H2369     1.0  0.91856  0.73532  0.24632  1.0000
  H   H2370     1.0  0.75291  0.69379  0.29407  1.0000
  C   C1977     1.0  0.77107  0.70972  0.24521  1.0000
  H   H2371     1.0  0.65934  0.88358  0.72924  1.0000
  H   H2372     1.0  0.54278  0.79835  0.26488  1.0000
  H   H2373     1.0  0.51345  0.92026  0.27405  1.0000
  H   H2374     1.0  0.72099  0.68388  0.24656  1.0000
  H   H2375     1.0  0.61611  0.86494  0.24929  1.0000
  C   C1978     1.0  0.64035  0.85367  0.24915  1.0000
  C   C1979     1.0  0.49895  0.85787  0.25129  1.0000
  H   H2376     1.0  0.71295  0.90755  0.25448  1.0000
  C   C1980     1.0  0.72900  0.92536  0.24808  1.0000
