data_image0
_chemical_formula_structural       FeSFeS2Fe2S3CHSH2CHC4HC2HCH4CH3FeS2CSFeCFeS2C6H4CHC2H2NCHCH2C3FeNHC8H4C6H4SH3SCHCNC2HC2H6CHNH3CH2C2FeNC2H2NH2CHC3SC6H8CHNHSCSH7CHC2H3CHCH2CH2CHC2HCH4C5H2C2HCH2CSH5CHFeS2FeS2FeSFeS3CHCNCH3C2FeSHSCFeS2FeS2FeSFeS3C6H3CH3C4H3C7H3CHS2CH4C6H4C2HC3HNH2C5H6C6HCHNC9H11CH4CH3C3H7NC9H11C2H3C3H2CH8CH3CH3CH3CSHCHSH2CHCNCHC2HCHC2H4CSC2HSHCH2CFeCFeH3SC3NHSC2HCH3SHCH3C3H4C2H2CH2CH3CHC3HCHFeS2FeSFeSFeS3CH2C2FeSFeS2FeSFeS3HCFeH2NH3FeS2FeHSFeSFeHS2FeS2FeSH2SHSCFeSCHSHFeSH2SH2NCHCFeHC2H2CH4C5SCH4C6H2CH2C2HC2HNCHCHCH2CHC6H5NH3CH5C4H5FeCHC7H4C2H2FeCH3C6H4CH5SCHC4H4SNC9H14C4HCHCH3CH4CSHCH2CNSCHCHSCH2CHCHSC2HCH5CH2S2CSC5SCH7C3H3CHSHSHCHCFeH3C2H3CHC2NSH2C2HNCH3C3SHCH2CSHCHFeHCNCHSFeCSCSNHC3HCFeC4H3FeHSHCH3CH3CHSHFeC3H3CHCHCSC2HCNCHCH3NFeCHS2CHFeC2HCHCH5CFeHCFeCFeCHS2H2CHSCFeCHC4HCH7SHC3H2NC2H3CHCHC2HC2NCNH3SCH7CHCSCS2CH2C2HC2HCH5NCH5CHSHCH4FeS2FeSH2SCFeS2H2FeSCHC5H3C7H2SHC2H4CH2C2H4CNH3C3SHFeH5CH3CH2CHCHCSHC2HC2HNSCFeH2C2H2CH2CHFeS2FeS2FeSFeS3FeS2FeS2FeS2FeS2FeSFeS3FeS2FeS2H2S2FeS2FeSFeS3CS2FeSHCFeCHCSCFeSFeSC3FeSC7H4C2SH2C3SH2CFeHC6H4C6H4C2H3CHFe2HC3HCH3C6H4C6H4C2H2C5HSH2C7H4C6H5C2H2NC7H11NC8H12NC9H13C3H2NC9H14CSH2CH5CHC2FeH3CHC2HCH2NC3SHCHSC4H3CH2C2H3FeCHCH2C2HSCNCH3SHCH7CNC4HC2HCHC3HC3H4CH2SH3CH2FeC2HC2H2CHCSCH6CH2FeSCN2CH3FeHSH8NH4CHC2HC3HCSHCHSNSHC5SHCH2C3HFeC5H3CHCHSC2H2SH2C3HNFeCHFeNH2CHCHCSH2C2HCSCSCH2C4HFeH2C2H3CH2C2H3C3HSCH4CH2SH2SCH3CSH4NSHCH7CHC2HC2HCHCH4CH4CHSH3CH3CH2CHFeH2CSH2C2H2C2H2NHCH6C2HSCH5C3H2C2HC2FeHS2C2FeHCFeS2FeCSFeSCS2FeS2FeSFeSFeS3CSH2SHFeSHSCH2CFeS2FeSCSHFeSHFeS2FeSFeS4HSC3HCHC6H4C6H4C6H4C4HCH5C2HCHC5HC6H6C5H5CH2CHCHCHC6H4C2SC2HC5H3C2H6NC9H15C3H3N2C2H5CH2CH4CH7C2HC2HSHC2H2NC2HCH4CHC2NH3CSC4HC3H6C2N2C2HFeC3HCHC2H2CHCH2CH2CHSCHCFeSH2CH3CH3C2HC4HCH6C2H3CH7SH2C3HCH2CSHNHSCNHCSFeC5H2CFeH5C2HCH2CHCH3CH2NC2H2C4SC2H2CFeHCH7CHCSC2HCH2C3H2CHCHFeS2FeS2FeSFeS3FeS2CSHFeSFeS2CFeSFeSFeS2CHCFeS2FeSC2SHFeSFeSFeSFeS2FeS2FeSFeS3FeS2H2SHC6H4C6H4C6H4FeSCHC3H2C5H3N2C6H4C6H4C6H4C6H4CH2SC2H2NC9H14C4NC2H3CHNC7H13FeH2NC7H13FeHCH2CH3CH3C2HCHCHCH4FeCH3NHC8HC2HNHC2H7CHCHC2H2SCH3FeSCHCH3CNSCH2SHCHC2HC2SC5HS2HCHCSHCHCFeSCHCNCHC3HCHCH2SCHC2H3SHNH2C2HS2H3C2H3C2H5C2H3C2H2C3HCH5CH5C2H4CHCH2CH2CH2C5H2C2HC2H2NCHCH5CH3C2H4CHNH3C3HC3HCHCH2C4H7CFeH4NC2HC2H6CH5C2HCHCHC3HCH2CFeCH3NCHFeS2FeS2FeSFeS4FeS2FeSHFeHFeSCS2FeS2FeS2FeCFeS3FeS2FeS2FeSFeS4HSHFeSH2FeS2FeHFeHSNCSCH2CHC7H4C5H3C6H4C7H5CHC6H3NFeC6H4C6H4C6H4C6H4C5HSHC4H4CH2S2C4H3C4H7NC4HCH2SCH5CH2CHSC2NC7H12C4H5NHC9H3CH5CHCHC3HC3H6CHCH5NH5SCHC2NH4SFeSCHCHC3H2C2HC2H2C3H2CHCHCFeHNH2CHFeHCHC4H3C2FeCSHS2HCH2CHC2HC2NH3CH2CHCHCH2CH6NHCHC2SC4HC2HCHCHNSCH5SCH4CHNH7SCH2CH2CH2C2H2C2HC4HCH4FeC2H3C6H3C2H4S3HCHC2H3CHCSHNHCHCH3C2HCNFeHCH4C2HCH4CHCH5FeHC2H2SCH2SHCHCHFeS2FeS2FeSFeS3HCH3SFeCSHCNHC2HCH2CNCFeS2FeS2FeHFeS3C3HSHSCH2C6H7C2H2C2FeHSCNC2H4C2HCHC5H2NHC6H4C6H4CH3C2HCH3C4H2CSCHCSHC2H6C3NCH2CH2C4H4CH5CH2C2HC3HC3HC2HNCHCHCSH3CHCH5CHCHCH2CH5NHCHC2H3CHC2H6CHSH2CHC2H3FeS2FeS2FeSFeS3CH2CNFeS2FeS2FeSFeS3H9C2NHSHSCNC5H3CHC2H2C7H4C2H3C2H3FeC2HCHC4HCH2C2H2NC2NCH2CFeC2HFeH4C5NC6HSCH3NCH4SCSCHC8H2CH7CH4SH3C2HC2HC2H2CH4C3H8CHNH2CHC2H3CHCHCHCH2C2H6C2SH6C2HFeHCH3C2HC3H3CHC2HCHCH2C4H2FeS2FeSHCSHCFeS2FeSCFeSFeHSCFeH3S2CHCHSHSH3CHCH8NCS2H3CH3C6H4CH4CH3CH3SCHC7H4C6H4C3NHCHCHC2H2FeCHSC3SNCFeSCH2FeSCSFeS2CSHFeSFeSCSHFeS2FeS2FeSFeS3FeS2FeSNFeSFeS4FeS2FeS2FeSFeHS2FeHFeS2FeSFeHS2C6H10CHCHCHSHC7H4CHCH2C6H4C6H5CH3C2H2SCH2SC7H4C2H2C10H4C6H3CSH2CH4NC7HSH9CHCHCHC3HC3HCH3CHNC2H3FeH3C2H6SCNH5CHCH2CH4FeC3H2CHFeCHCNC10H12NC3H3CHCH2CH2SHCHC3HCH2SHCNC9H14CHNC8SC3H3CH2CHCH3CNH2C2H2C2H2C2H2FeHC3HCH3C2HCFeCH3SC3HSC2FeC4HC2H5CH3CHSCH6CFeSCH2C4SCH4C3H5CH2CHCH2CHNCHN2CH5CHSNH3NH2CH3C3HCH4C2H5C3H5C2FeHCH3C2SH2CHCHC3HFeSCH2CFeS2FeS2FeSFeS3FeSCFeS2FeSFeS3HCH4FeS2FeS2FeSFeS3HCHC3HCFeS2FeS2FeSFeS3C6H4C3H2CSH2C3HCHC6H4C3H6C6H4C6H4C6H4CH2NH6C6H4SFeH2C2H3C2HC2SCH2CHCHCNC2H2SH2CH2NH2C2H6C3FeSHCFeH3SH2C3H2C2HNHNC9H18C2HC3HCHNH7CH2CHSC4H2C2H2FeCHCFeH3SHC3HC3H3CHC2HCHSHSCH3CHFeH2NHCH3C2H2CSHCHCH2SFeCSCNCHC2H3CH2CHC6HSHNCHC3HSH5CHCHCHCH4C3H2CHNHC2SH5C3HCFeCHCNCFeCH3C2H2CH3C6HCH6C3HCH5CHCH2S2FeCHSHC2SCFeCSFeHCSCH3SCHCHCHSH3C
_chemical_formula_sum              "Fe256 S512 C1920 H2304 N128"
_cell_length_a       112.934
_cell_length_b       111.504
_cell_length_c       35.5319
_cell_angle_alpha    77.1655
_cell_angle_beta     77.0773
_cell_angle_gamma    100.75

_space_group_name_H-M_alt    "P 1"
_space_group_IT_number       1

loop_
  _space_group_symop_operation_xyz
  'x, y, z'

loop_
  _atom_site_type_symbol
  _atom_site_label
  _atom_site_symmetry_multiplicity
  _atom_site_fract_x
  _atom_site_fract_y
  _atom_site_fract_z
  _atom_site_occupancy
  Fe  Fe1       1.0  0.06645  0.48241  0.53852  1.0000
  S   S1        1.0  0.06944  0.47514  0.48445  1.0000
  Fe  Fe2       1.0  0.06301  0.45677  0.59692  1.0000
  S   S2        1.0  0.06599  0.44726  0.54664  1.0000
  S   S3        1.0  0.05776  0.44733  0.66421  1.0000
  Fe  Fe3       1.0  0.08181  0.46498  0.51373  1.0000
  Fe  Fe4       1.0  0.05332  0.45838  0.52109  1.0000
  S   S4        1.0  0.03617  0.45423  0.49640  1.0000
  S   S5        1.0  0.07957  0.47321  0.56606  1.0000
  S   S6        1.0  0.04954  0.46673  0.57363  1.0000
  C   C1        1.0  0.11296  0.48177  0.47132  1.0000
  H   H1        1.0  0.00805  0.45936  0.33706  1.0000
  S   S7        1.0  0.00111  0.41075  0.44931  1.0000
  H   H2        1.0  0.01485  0.49196  0.49855  1.0000
  H   H3        1.0  0.09715  0.45149  0.60881  1.0000
  C   C2        1.0  0.00197  0.48729  0.29306  1.0000
  H   H4        1.0  0.03055  0.47611  0.53476  1.0000
  C   C3        1.0  0.13473  0.49453  0.44915  1.0000
  C   C4        1.0  0.00512  0.46426  0.27944  1.0000
  C   C5        1.0  0.11668  0.48713  0.94925  1.0000
  C   C6        1.0  0.01911  0.48007  0.96859  1.0000
  H   H5        1.0  0.09966  0.49004  0.50306  1.0000
  C   C7        1.0  0.11117  0.48486  0.59897  1.0000
  C   C8        1.0  0.01489  0.41667  0.64905  1.0000
  H   H6        1.0  0.01865  0.49373  0.02493  1.0000
  C   C9        1.0  0.12567  0.48361  0.45114  1.0000
  H   H7        1.0  0.00192  0.47131  0.22196  1.0000
  H   H8        1.0  0.00630  0.45528  0.27410  1.0000
  H   H9        1.0  0.01911  0.47089  0.37358  1.0000
  H   H10       1.0  0.01323  0.40717  0.64336  1.0000
  C   C10       1.0  0.02614  0.48627  0.59947  1.0000
  H   H11       1.0  0.09025  0.49013  0.03276  1.0000
  H   H12       1.0  0.13043  0.48104  0.62646  1.0000
  H   H13       1.0  0.12856  0.47644  0.43768  1.0000
  Fe  Fe5       1.0  0.07834  0.47287  0.84281  1.0000
  S   S8        1.0  0.07959  0.45799  0.89572  1.0000
  S   S9        1.0  0.08405  0.47456  0.77556  1.0000
  C   C11       1.0  0.03128  0.42512  0.58666  1.0000
  S   S10       1.0  0.07148  0.47629  0.95138  1.0000
  Fe  Fe6       1.0  0.08957  0.47452  0.91402  1.0000
  C   C12       1.0  0.01013  0.42727  0.58883  1.0000
  Fe  Fe7       1.0  0.06131  0.46125  0.92863  1.0000
  S   S11       1.0  0.04371  0.44901  0.97769  1.0000
  S   S12       1.0  0.05966  0.47517  0.87467  1.0000
  C   C13       1.0  0.03020  0.43877  0.97396  1.0000
  C   C14       1.0  0.03092  0.43120  0.94737  1.0000
  C   C15       1.0  0.02024  0.42186  0.94963  1.0000
  C   C16       1.0  0.00870  0.42017  0.97785  1.0000
  C   C17       1.0  0.00789  0.42812  0.00325  1.0000
  C   C18       1.0  0.01860  0.43725  0.00160  1.0000
  H   H14       1.0  0.03981  0.43214  0.92626  1.0000
  H   H15       1.0  0.02099  0.41577  0.92982  1.0000
  H   H16       1.0  0.99916  0.42697  0.02519  1.0000
  H   H17       1.0  0.01793  0.44298  0.02251  1.0000
  C   C19       1.0  0.00613  0.46676  0.31567  1.0000
  H   H18       1.0  0.14359  0.49317  0.97908  1.0000
  C   C20       1.0  0.01640  0.49274  0.52778  1.0000
  C   C21       1.0  0.02438  0.41218  0.05792  1.0000
  H   H19       1.0  0.02162  0.41671  0.66773  1.0000
  H   H20       1.0  0.00042  0.49621  0.29734  1.0000
  N   N1        1.0  0.02974  0.48770  0.97792  1.0000
  C   C22       1.0  0.10094  0.45508  0.71167  1.0000
  H   H21       1.0  0.03892  0.47271  0.99363  1.0000
  C   C23       1.0  0.00511  0.43796  0.57843  1.0000
  H   H22       1.0  0.11583  0.48000  0.15984  1.0000
  H   H23       1.0  0.99706  0.38562  0.04500  1.0000
  C   C24       1.0  0.10854  0.46425  0.67675  1.0000
  C   C25       1.0  0.00543  0.41641  0.57689  1.0000
  C   C26       1.0  0.01329  0.41610  0.11847  1.0000
  Fe  Fe8       1.0  0.99088  0.49320  0.48179  1.0000
  N   N2        1.0  0.12841  0.48997  0.10151  1.0000
  H   H24       1.0  0.09966  0.47180  0.04096  1.0000
  C   C27       1.0  0.10789  0.46326  0.63804  1.0000
  C   C28       1.0  0.01518  0.40098  0.06557  1.0000
  C   C29       1.0  0.06486  0.45500  0.69549  1.0000
  C   C30       1.0  0.06060  0.45008  0.73757  1.0000
  C   C31       1.0  0.06612  0.45607  0.76282  1.0000
  C   C32       1.0  0.07610  0.46693  0.74608  1.0000
  C   C33       1.0  0.08033  0.47179  0.70409  1.0000
  C   C34       1.0  0.07472  0.46594  0.67906  1.0000
  H   H25       1.0  0.05299  0.44161  0.75071  1.0000
  H   H26       1.0  0.06281  0.45215  0.79509  1.0000
  H   H27       1.0  0.08814  0.48005  0.69064  1.0000
  H   H28       1.0  0.07815  0.46985  0.64701  1.0000
  C   C35       1.0  0.02738  0.44219  0.48018  1.0000
  C   C36       1.0  0.02945  0.43001  0.48447  1.0000
  C   C37       1.0  0.02151  0.42060  0.47417  1.0000
  C   C38       1.0  0.01154  0.42325  0.45865  1.0000
  C   C39       1.0  0.00993  0.43560  0.45226  1.0000
  C   C40       1.0  0.01768  0.44494  0.46340  1.0000
  H   H29       1.0  0.03708  0.42776  0.49600  1.0000
  H   H30       1.0  0.02302  0.41115  0.47859  1.0000
  H   H31       1.0  0.08606  0.43801  0.73638  1.0000
  H   H32       1.0  0.01603  0.45432  0.45959  1.0000
  S   S13       1.0  0.10196  0.46720  0.47865  1.0000
  H   H33       1.0  0.13046  0.47663  0.95857  1.0000
  H   H34       1.0  0.03462  0.48485  0.48361  1.0000
  H   H35       1.0  0.99321  0.48434  0.41255  1.0000
  S   S14       1.0  0.08952  0.48904  0.85902  1.0000
  C   C41       1.0  0.13510  0.49469  0.97178  1.0000
  H   H36       1.0  0.01257  0.42205  0.13880  1.0000
  C   C42       1.0  0.00752  0.48360  0.97299  1.0000
  N   N3        1.0  0.02994  0.49585  0.52534  1.0000
  C   C43       1.0  0.00968  0.47188  0.38835  1.0000
  C   C44       1.0  0.09879  0.45277  0.63663  1.0000
  H   H37       1.0  0.12221  0.46990  0.13228  1.0000
  C   C45       1.0  0.00471  0.47848  0.32337  1.0000
  C   C46       1.0  0.10939  0.49113  0.48847  1.0000
  H   H38       1.0  0.02277  0.47896  0.66344  1.0000
  H   H39       1.0  0.14744  0.48795  0.08659  1.0000
  H   H40       1.0  0.01628  0.39560  0.04373  1.0000
  H   H41       1.0  0.14450  0.49573  0.43415  1.0000
  H   H42       1.0  0.13542  0.48303  0.57413  1.0000
  H   H43       1.0  0.02382  0.49425  0.33355  1.0000
  C   C47       1.0  0.02342  0.43913  0.62219  1.0000
  H   H44       1.0  0.99318  0.40802  0.54581  1.0000
  N   N4        1.0  0.00553  0.48147  0.36146  1.0000
  H   H45       1.0  0.11847  0.46029  0.56493  1.0000
  H   H46       1.0  0.13729  0.47918  0.06480  1.0000
  H   H47       1.0  0.05914  0.48933  0.62173  1.0000
  C   C48       1.0  0.12439  0.47927  0.13861  1.0000
  H   H48       1.0  0.11675  0.47150  0.07243  1.0000
  H   H49       1.0  0.01532  0.44101  0.64231  1.0000
  C   C49       1.0  0.02341  0.41976  0.08416  1.0000
  C   C50       1.0  0.00113  0.37414  0.11351  1.0000
  Fe  Fe9       1.0  0.07094  0.48981  0.89542  1.0000
  N   N5        1.0  0.99517  0.38494  0.10773  1.0000
  C   C51       1.0  0.99301  0.48216  0.38360  1.0000
  C   C52       1.0  0.03151  0.49683  0.56494  1.0000
  H   H50       1.0  0.03868  0.42486  0.60278  1.0000
  H   H51       1.0  0.02824  0.46566  0.95047  1.0000
  N   N6        1.0  0.01974  0.42714  0.61127  1.0000
  H   H52       1.0  0.10133  0.45624  0.74096  1.0000
  H   H53       1.0  0.03216  0.41521  0.03080  1.0000
  C   C53       1.0  0.00955  0.46205  0.94689  1.0000
  H   H54       1.0  0.00585  0.41748  0.66747  1.0000
  C   C54       1.0  0.09118  0.44370  0.67179  1.0000
  C   C55       1.0  0.99594  0.43766  0.55768  1.0000
  C   C56       1.0  0.02704  0.48710  0.63748  1.0000
  S   S15       1.0  0.10726  0.47475  0.93628  1.0000
  C   C57       1.0  0.00100  0.48472  0.25695  1.0000
  C   C58       1.0  0.04099  0.48248  0.97329  1.0000
  C   C59       1.0  0.05586  0.48581  0.73499  1.0000
  C   C60       1.0  0.12767  0.48533  0.95978  1.0000
  C   C61       1.0  0.03537  0.48563  0.51374  1.0000
  C   C62       1.0  0.06438  0.49678  0.70645  1.0000
  H   H55       1.0  0.13263  0.46755  0.60817  1.0000
  H   H56       1.0  0.03088  0.43891  0.63818  1.0000
  H   H57       1.0  0.11142  0.48852  0.62552  1.0000
  H   H58       1.0  0.00254  0.43784  0.43941  1.0000
  H   H59       1.0  0.02734  0.44731  0.59482  1.0000
  H   H60       1.0  0.04259  0.46802  0.74492  1.0000
  H   H61       1.0  0.00865  0.37482  0.08633  1.0000
  H   H62       1.0  0.08403  0.43601  0.67010  1.0000
  C   C63       1.0  0.04989  0.47778  0.68212  1.0000
  H   H63       1.0  0.03535  0.43295  0.55843  1.0000
  N   N7        1.0  0.11585  0.47323  0.60146  1.0000
  H   H64       1.0  0.07173  0.49583  0.77709  1.0000
  S   S16       1.0  0.99335  0.47332  0.49535  1.0000
  C   C64       1.0  0.00264  0.47325  0.25007  1.0000
  S   S17       1.0  0.99575  0.40757  0.98219  1.0000
  H   H65       1.0  0.99421  0.36488  0.12016  1.0000
  H   H66       1.0  0.00291  0.46241  0.39831  1.0000
  H   H67       1.0  0.04550  0.48746  0.51249  1.0000
  H   H68       1.0  0.05485  0.48395  0.76684  1.0000
  H   H69       1.0  0.01116  0.48348  0.54970  1.0000
  H   H70       1.0  0.11462  0.47232  0.68057  1.0000
  H   H71       1.0  0.10126  0.48299  0.59755  1.0000
  C   C65       1.0  0.01986  0.46911  0.95485  1.0000
  H   H72       1.0  0.02955  0.41611  0.57798  1.0000
  C   C66       1.0  0.04870  0.47652  0.72278  1.0000
  C   C67       1.0  0.12911  0.47629  0.60282  1.0000
  H   H73       1.0  0.12265  0.47665  0.53712  1.0000
  H   H74       1.0  0.99728  0.45547  0.06527  1.0000
  H   H75       1.0  0.01034  0.47446  0.41653  1.0000
  C   C68       1.0  0.00470  0.39696  0.10014  1.0000
  H   H76       1.0  0.10657  0.46866  0.55745  1.0000
  C   C69       1.0  0.09772  0.49008  0.04732  1.0000
  H   H77       1.0  0.00824  0.44678  0.58515  1.0000
  H   H78       1.0  0.01026  0.45353  0.93743  1.0000
  C   C70       1.0  0.99154  0.42683  0.54650  1.0000
  H   H79       1.0  0.04474  0.48222  0.94186  1.0000
  H   H80       1.0  0.03394  0.49317  0.02910  1.0000
  C   C71       1.0  0.09228  0.44482  0.70919  1.0000
  H   H81       1.0  0.03047  0.42859  0.07740  1.0000
  C   C72       1.0  0.11585  0.46947  0.56386  1.0000
  C   C73       1.0  0.10302  0.47973  0.05212  1.0000
  H   H82       1.0  0.04883  0.48842  0.98038  1.0000
  C   C74       1.0  0.01452  0.49394  0.35315  1.0000
  H   H83       1.0  0.02110  0.47734  0.59721  1.0000
  H   H84       1.0  0.00616  0.49169  0.98389  1.0000
  H   H85       1.0  0.04471  0.47031  0.67273  1.0000
  H   H86       1.0  0.00897  0.40803  0.58279  1.0000
  C   C75       1.0  0.11795  0.49026  0.08270  1.0000
  C   C76       1.0  0.05814  0.48839  0.65344  1.0000
  C   C77       1.0  0.99629  0.41624  0.55602  1.0000
  C   C78       1.0  0.11292  0.47974  0.06975  1.0000
  C   C79       1.0  0.00405  0.40485  0.12663  1.0000
  H   H87       1.0  0.99651  0.40259  0.15380  1.0000
  H   H88       1.0  0.13183  0.47909  0.15459  1.0000
  C   C80       1.0  0.13938  0.48816  0.07341  1.0000
  C   C81       1.0  0.99832  0.46574  0.95178  1.0000
  H   H89       1.0  0.99884  0.49163  0.23435  1.0000
  C   C82       1.0  0.99734  0.47656  0.96447  1.0000
  H   H90       1.0  0.11684  0.49263  0.57169  1.0000
  H   H91       1.0  0.14269  0.49606  0.04521  1.0000
  C   C83       1.0  0.02593  0.48834  0.02001  1.0000
  S   S18       1.0  0.99667  0.47887  0.08659  1.0000
  H   H92       1.0  0.00545  0.37381  0.13888  1.0000
  H   H93       1.0  0.99303  0.45000  0.47534  1.0000
  H   H94       1.0  0.99244  0.44602  0.54928  1.0000
  H   H95       1.0  0.02201  0.47864  0.04118  1.0000
  H   H96       1.0  0.01598  0.49598  0.38132  1.0000
  C   C84       1.0  0.03339  0.49840  0.64218  1.0000
  H   H97       1.0  0.08054  0.53755  0.58351  1.0000
  Fe  Fe10      1.0  0.08542  0.56821  0.65448  1.0000
  S   S19       1.0  0.08519  0.58162  0.59618  1.0000
  S   S20       1.0  0.07740  0.56838  0.71939  1.0000
  Fe  Fe11      1.0  0.09562  0.55039  0.61185  1.0000
  S   S21       1.0  0.09653  0.56240  0.55196  1.0000
  S   S22       1.0  0.10167  0.53240  0.61155  1.0000
  Fe  Fe12      1.0  0.10458  0.57889  0.57237  1.0000
  S   S23       1.0  0.12165  0.59139  0.52168  1.0000
  Fe  Fe13      1.0  0.07713  0.56385  0.57970  1.0000
  S   S24       1.0  0.06462  0.56105  0.53718  1.0000
  S   S25       1.0  0.10513  0.56650  0.63110  1.0000
  S   S26       1.0  0.07593  0.55089  0.63954  1.0000
  C   C85       1.0  0.13116  0.50357  0.46812  1.0000
  H   H98       1.0  0.03648  0.50068  0.91873  1.0000
  C   C86       1.0  0.12469  0.62407  0.46534  1.0000
  N   N8        1.0  0.05122  0.57774  0.87948  1.0000
  C   C87       1.0  0.11844  0.50178  0.48768  1.0000
  H   H99       1.0  0.01118  0.50205  0.33843  1.0000
  H   H100      1.0  0.01193  0.50015  0.53678  1.0000
  H   H101      1.0  0.11573  0.50928  0.08491  1.0000
  C   C88       1.0  0.13113  0.61278  0.90007  1.0000
  C   C89       1.0  0.14968  0.63733  0.42077  1.0000
  Fe  Fe14      1.0  0.99176  0.52320  0.08012  1.0000
  S   S27       1.0  0.06591  0.50270  0.53131  1.0000
  H   H102      1.0  0.13906  0.56440  0.46942  1.0000
  S   S28       1.0  0.06545  0.50796  0.89848  1.0000
  C   C90       1.0  0.14107  0.63159  0.40244  1.0000
  Fe  Fe15      1.0  0.10013  0.57698  0.90823  1.0000
  S   S29       1.0  0.09636  0.59095  0.94392  1.0000
  S   S30       1.0  0.10839  0.58181  0.84052  1.0000
  Fe  Fe16      1.0  0.09272  0.55507  0.98414  1.0000
  S   S31       1.0  0.08821  0.56712  0.02530  1.0000
  S   S32       1.0  0.09183  0.53441  0.00743  1.0000
  Fe  Fe17      1.0  0.07880  0.57540  0.97995  1.0000
  S   S33       1.0  0.05930  0.57893  0.99499  1.0000
  Fe  Fe18      1.0  0.10627  0.58135  0.98641  1.0000
  S   S34       1.0  0.12243  0.58696  0.01446  1.0000
  S   S35       1.0  0.08220  0.56239  0.94123  1.0000
  S   S36       1.0  0.11109  0.56844  0.94775  1.0000
  C   C91       1.0  0.07159  0.51417  0.93330  1.0000
  C   C92       1.0  0.06746  0.52408  0.94588  1.0000
  C   C93       1.0  0.07302  0.52970  0.97139  1.0000
  C   C94       1.0  0.08293  0.52565  0.98347  1.0000
  C   C95       1.0  0.08664  0.51536  0.97245  1.0000
  C   C96       1.0  0.08096  0.50961  0.94744  1.0000
  H   H103      1.0  0.06011  0.52756  0.93544  1.0000
  H   H104      1.0  0.06972  0.53724  0.98142  1.0000
  H   H105      1.0  0.09429  0.51223  0.98169  1.0000
  C   C97       1.0  0.13147  0.50590  0.97434  1.0000
  H   H106      1.0  0.03383  0.56649  0.87649  1.0000
  H   H107      1.0  0.04408  0.51762  0.61233  1.0000
  H   H108      1.0  0.10714  0.56403  0.46634  1.0000
  C   C98       1.0  0.02974  0.54686  0.03392  1.0000
  C   C99       1.0  0.04216  0.55475  0.02169  1.0000
  C   C100      1.0  0.04424  0.56807  0.01050  1.0000
  C   C101      1.0  0.03389  0.57331  0.01116  1.0000
  H   H109      1.0  0.02815  0.53664  0.04297  1.0000
  H   H110      1.0  0.05007  0.55055  0.02143  1.0000
  H   H111      1.0  0.03531  0.58353  0.00277  1.0000
  C   C102      1.0  0.14892  0.61930  0.04144  1.0000
  C   C103      1.0  0.14975  0.60670  0.05249  1.0000
  C   C104      1.0  0.14146  0.59698  0.04461  1.0000
  C   C105      1.0  0.13216  0.59963  0.02557  1.0000
  C   C106      1.0  0.13118  0.61221  0.01514  1.0000
  C   C107      1.0  0.13949  0.62194  0.02302  1.0000
  C   C108      1.0  0.13569  0.59625  0.86974  1.0000
  H   H112      1.0  0.14238  0.58735  0.05313  1.0000
  H   H113      1.0  0.12407  0.61448  0.00079  1.0000
  H   H114      1.0  0.13866  0.63162  0.01456  1.0000
  C   C109      1.0  0.00593  0.54182  0.14846  1.0000
  H   H115      1.0  0.07563  0.51255  0.76966  1.0000
  S   S37       1.0  0.13996  0.51790  0.99134  1.0000
  S   S38       1.0  0.15657  0.51989  0.15956  1.0000
  C   C110      1.0  0.99696  0.52048  0.27626  1.0000
  H   H116      1.0  0.04961  0.58748  0.92607  1.0000
  H   H117      1.0  0.08776  0.49795  0.71666  1.0000
  H   H118      1.0  0.13601  0.51015  0.08583  1.0000
  H   H119      1.0  0.15224  0.59063  0.97239  1.0000
  C   C111      1.0  0.08651  0.57119  0.75271  1.0000
  C   C112      1.0  0.08065  0.56744  0.79427  1.0000
  C   C113      1.0  0.08727  0.57046  0.82154  1.0000
  C   C114      1.0  0.09983  0.57731  0.80750  1.0000
  C   C115      1.0  0.10580  0.58074  0.76608  1.0000
  C   C116      1.0  0.09920  0.57766  0.73880  1.0000
  H   H120      1.0  0.07084  0.56244  0.80528  1.0000
  H   H121      1.0  0.08256  0.56779  0.85326  1.0000
  H   H122      1.0  0.11553  0.58601  0.75489  1.0000
  H   H123      1.0  0.10382  0.58065  0.70690  1.0000
  C   C117      1.0  0.13575  0.60067  0.52504  1.0000
  C   C118      1.0  0.14619  0.60507  0.49095  1.0000
  H   H124      1.0  0.11966  0.60391  0.86801  1.0000
  C   C119      1.0  0.14508  0.63652  0.46220  1.0000
  C   C120      1.0  0.14805  0.61180  0.56078  1.0000
  C   C121      1.0  0.13678  0.60393  0.56019  1.0000
  H   H125      1.0  0.14549  0.60260  0.46362  1.0000
  N   N9        1.0  0.12483  0.54908  0.46576  1.0000
  H   H126      1.0  0.14868  0.61448  0.58786  1.0000
  H   H127      1.0  0.12883  0.60062  0.58664  1.0000
  C   C122      1.0  0.05019  0.55092  0.53744  1.0000
  C   C123      1.0  0.04119  0.54339  0.57289  1.0000
  C   C124      1.0  0.02967  0.53611  0.57138  1.0000
  C   C125      1.0  0.02697  0.53604  0.53450  1.0000
  C   C126      1.0  0.04751  0.55080  0.50057  1.0000
  H   H128      1.0  0.04298  0.54340  0.60153  1.0000
  H   H129      1.0  0.02277  0.53050  0.59909  1.0000
  H   H130      1.0  0.05430  0.55661  0.47289  1.0000
  H   H131      1.0  0.03422  0.54352  0.47037  1.0000
  H   H132      1.0  0.12435  0.52155  0.20117  1.0000
  H   H133      1.0  0.06031  0.51937  0.70859  1.0000
  C   C127      1.0  0.09244  0.52452  0.58647  1.0000
  C   C128      1.0  0.09472  0.51347  0.57723  1.0000
  C   C129      1.0  0.08675  0.50682  0.55951  1.0000
  C   C130      1.0  0.07643  0.51111  0.55149  1.0000
  C   C131      1.0  0.07437  0.52230  0.55991  1.0000
  C   C132      1.0  0.08237  0.52899  0.57716  1.0000
  H   H134      1.0  0.10259  0.51007  0.58377  1.0000
  C   C133      1.0  0.03350  0.50077  0.95074  1.0000
  H   H135      1.0  0.06656  0.52583  0.55315  1.0000
  N   N10       1.0  0.10610  0.53981  0.84593  1.0000
  C   C134      1.0  0.11041  0.54921  0.80589  1.0000
  C   C135      1.0  0.09889  0.52768  0.84261  1.0000
  C   C136      1.0  0.09735  0.54468  0.87298  1.0000
  C   C137      1.0  0.11712  0.53771  0.86020  1.0000
  C   C138      1.0  0.12579  0.53202  0.83958  1.0000
  C   C139      1.0  0.11961  0.54120  0.89440  1.0000
  C   C140      1.0  0.13609  0.52963  0.85296  1.0000
  C   C141      1.0  0.13006  0.53894  0.90709  1.0000
  C   C142      1.0  0.13820  0.53307  0.88669  1.0000
  H   H136      1.0  0.11647  0.54596  0.78303  1.0000
  H   H137      1.0  0.10236  0.55119  0.79435  1.0000
  H   H138      1.0  0.11591  0.55844  0.80726  1.0000
  H   H139      1.0  0.10397  0.52438  0.81792  1.0000
  H   H140      1.0  0.08974  0.52847  0.83668  1.0000
  H   H141      1.0  0.09678  0.51997  0.87090  1.0000
  H   H142      1.0  0.10184  0.55426  0.87458  1.0000
  H   H143      1.0  0.08889  0.54565  0.86260  1.0000
  H   H144      1.0  0.09396  0.53814  0.90376  1.0000
  H   H145      1.0  0.12458  0.52921  0.81320  1.0000
  H   H146      1.0  0.11354  0.54548  0.91231  1.0000
  C   C143      1.0  0.03608  0.50773  0.49245  1.0000
  H   H147      1.0  0.15090  0.64046  0.47904  1.0000
  H   H148      1.0  0.01003  0.57121  0.16261  1.0000
  H   H149      1.0  0.12503  0.61887  0.90725  1.0000
  H   H150      1.0  0.04156  0.50676  0.95669  1.0000
  C   C144      1.0  0.15003  0.60530  0.90476  1.0000
  H   H151      1.0  0.99591  0.51807  0.21813  1.0000
  H   H152      1.0  0.14602  0.53093  0.89766  1.0000
  H   H153      1.0  0.15202  0.59011  0.87596  1.0000
  C   C145      1.0  0.12586  0.54043  0.50250  1.0000
  C   C146      1.0  0.13351  0.54744  0.43022  1.0000
  C   C147      1.0  0.04442  0.58451  0.90516  1.0000
  H   H154      1.0  0.14128  0.54050  0.16177  1.0000
  H   H155      1.0  0.13557  0.54244  0.50550  1.0000
  H   H156      1.0  0.12350  0.53031  0.50243  1.0000
  H   H157      1.0  0.14351  0.55036  0.43020  1.0000
  H   H158      1.0  0.13192  0.53737  0.42924  1.0000
  H   H159      1.0  0.13248  0.55319  0.40178  1.0000
  H   H160      1.0  0.07067  0.58947  0.90391  1.0000
  N   N11       1.0  0.12203  0.54831  0.05734  1.0000
  C   C148      1.0  0.12116  0.53959  0.03147  1.0000
  C   C149      1.0  0.11075  0.55344  0.06224  1.0000
  C   C150      1.0  0.13308  0.55915  0.03549  1.0000
  C   C151      1.0  0.12265  0.54137  0.09725  1.0000
  C   C152      1.0  0.11294  0.53052  0.12113  1.0000
  C   C153      1.0  0.13269  0.54506  0.11365  1.0000
  C   C154      1.0  0.11350  0.52353  0.15833  1.0000
  C   C155      1.0  0.13326  0.53787  0.15058  1.0000
  C   C156      1.0  0.12374  0.52711  0.17276  1.0000
  H   H161      1.0  0.11255  0.53170  0.04362  1.0000
  H   H162      1.0  0.12082  0.54458  0.00104  1.0000
  H   H163      1.0  0.12936  0.53533  0.02764  1.0000
  H   H164      1.0  0.10187  0.54585  0.07420  1.0000
  H   H165      1.0  0.11036  0.55922  0.03301  1.0000
  H   H166      1.0  0.11082  0.55975  0.08253  1.0000
  H   H167      1.0  0.13232  0.56416  0.00562  1.0000
  H   H168      1.0  0.11531  0.61856  0.48279  1.0000
  H   H169      1.0  0.14192  0.55598  0.02977  1.0000
  H   H170      1.0  0.10483  0.52740  0.11106  1.0000
  H   H171      1.0  0.14046  0.55323  0.09796  1.0000
  C   C157      1.0  0.99118  0.51548  0.24980  1.0000
  C   C158      1.0  0.13276  0.62996  0.48395  1.0000
  H   H172      1.0  0.13167  0.54135  0.93376  1.0000
  H   H173      1.0  0.03208  0.51575  0.49838  1.0000
  H   H174      1.0  0.11749  0.51621  0.96576  1.0000
  C   C159      1.0  0.08620  0.53857  0.46386  1.0000
  C   C160      1.0  0.06661  0.58979  0.81110  1.0000
  C   C161      1.0  0.06336  0.58638  0.85384  1.0000
  H   H175      1.0  0.03472  0.50673  0.46314  1.0000
  H   H176      1.0  0.01310  0.54469  0.11884  1.0000
  C   C162      1.0  0.07244  0.59160  0.87162  1.0000
  H   H177      1.0  0.14383  0.63197  0.37097  1.0000
  H   H178      1.0  0.08847  0.50824  0.66938  1.0000
  H   H179      1.0  0.04728  0.56743  0.83714  1.0000
  H   H180      1.0  0.11935  0.54125  0.52990  1.0000
  H   H181      1.0  0.09100  0.60313  0.86235  1.0000
  H   H182      1.0  0.05892  0.56139  0.88759  1.0000
  H   H183      1.0  0.07633  0.53561  0.46571  1.0000
  H   H184      1.0  0.13400  0.56644  0.05220  1.0000
  C   C163      1.0  0.04285  0.57296  0.85632  1.0000
  H   H185      1.0  0.12344  0.56407  0.49491  1.0000
  H   H186      1.0  0.05877  0.56917  0.92665  1.0000
  H   H187      1.0  0.08526  0.55723  0.46878  1.0000
  C   C164      1.0  0.05346  0.56653  0.90570  1.0000
  H   H188      1.0  0.09621  0.60835  0.78835  1.0000
  H   H189      1.0  0.03510  0.57841  0.92441  1.0000
  H   H190      1.0  0.04040  0.58088  0.83687  1.0000
  C   C165      1.0  0.07830  0.59772  0.78795  1.0000
  H   H191      1.0  0.01022  0.53737  0.17149  1.0000
  H   H192      1.0  0.12913  0.54661  0.58848  1.0000
  H   H193      1.0  0.07562  0.52700  0.71034  1.0000
  C   C166      1.0  0.03898  0.50885  0.60888  1.0000
  S   S39       1.0  0.99844  0.52389  0.34966  1.0000
  H   H194      1.0  0.10498  0.50008  0.94226  1.0000
  C   C167      1.0  0.02170  0.56556  0.02217  1.0000
  H   H195      1.0  0.00390  0.55800  0.23075  1.0000
  S   S40       1.0  0.99706  0.50927  0.12574  1.0000
  H   H196      1.0  0.04639  0.51045  0.48843  1.0000
  H   H197      1.0  0.01845  0.55915  0.17447  1.0000
  C   C168      1.0  0.03607  0.54337  0.49902  1.0000
  H   H198      1.0  0.08431  0.50207  0.93751  1.0000
  C   C169      1.0  0.01274  0.56278  0.15482  1.0000
  N   N12       1.0  0.00152  0.55279  0.15806  1.0000
  C   C170      1.0  0.12879  0.62498  0.42458  1.0000
  H   H199      1.0  0.04289  0.59324  0.88663  1.0000
  C   C171      1.0  0.10389  0.55447  0.46472  1.0000
  C   C172      1.0  0.10632  0.53364  0.46060  1.0000
  H   H200      1.0  0.08076  0.59979  0.75544  1.0000
  C   C173      1.0  0.08408  0.59953  0.84814  1.0000
  H   H201      1.0  0.09206  0.51488  0.70793  1.0000
  C   C174      1.0  0.15099  0.57483  0.54826  1.0000
  C   C175      1.0  0.12053  0.50770  0.96355  1.0000
  H   H202      1.0  0.14238  0.52492  0.83748  1.0000
  H   H203      1.0  0.14375  0.62009  0.93006  1.0000
  H   H204      1.0  0.12247  0.62032  0.41034  1.0000
  H   H205      1.0  0.13315  0.58959  0.85306  1.0000
  C   C176      1.0  0.14198  0.61335  0.91311  1.0000
  S   S41       1.0  0.15288  0.53455  0.05787  1.0000
  C   C177      1.0  0.01944  0.55231  0.03403  1.0000
  C   C178      1.0  0.11237  0.50073  0.07707  1.0000
  H   H206      1.0  0.11170  0.52661  0.45917  1.0000
  S   S42       1.0  0.14221  0.51660  0.47159  1.0000
  H   H207      1.0  0.12887  0.56938  0.44060  1.0000
  C   C179      1.0  0.09127  0.55074  0.46561  1.0000
  H   H208      1.0  0.06049  0.58618  0.79459  1.0000
  H   H209      1.0  0.08970  0.52052  0.46025  1.0000
  C   C180      1.0  0.03803  0.50817  0.57082  1.0000
  Fe  Fe19      1.0  0.99235  0.51685  0.41834  1.0000
  C   C181      1.0  0.12918  0.56231  0.46772  1.0000
  Fe  Fe20      1.0  0.00026  0.51922  0.49533  1.0000
  H   H210      1.0  0.10599  0.51528  0.17603  1.0000
  H   H211      1.0  0.01392  0.56992  0.02181  1.0000
  H   H212      1.0  0.07156  0.50574  0.64196  1.0000
  S   S43       1.0  0.01220  0.52650  0.53480  1.0000
  C   C182      1.0  0.11174  0.54588  0.46320  1.0000
  C   C183      1.0  0.08703  0.60253  0.80641  1.0000
  C   C184      1.0  0.09375  0.53008  0.46090  1.0000
  N   N13       1.0  0.07233  0.50674  0.71794  1.0000
  H   H213      1.0  0.14900  0.51860  0.24365  1.0000
  S   S44       1.0  0.00345  0.54354  0.04894  1.0000
  C   C185      1.0  0.08571  0.50696  0.70231  1.0000
  C   C186      1.0  0.12805  0.60431  0.87821  1.0000
  H   H214      1.0  0.00616  0.52700  0.26460  1.0000
  C   C187      1.0  0.14888  0.54880  0.56293  1.0000
  H   H215      1.0  0.13099  0.56976  0.57436  1.0000
  H   H216      1.0  0.11552  0.50858  0.50281  1.0000
  H   H217      1.0  0.15127  0.58480  0.54280  1.0000
  S   S45       1.0  0.00679  0.51006  0.44658  1.0000
  H   H218      1.0  0.04452  0.55971  0.92506  1.0000
  C   C188      1.0  0.14649  0.59667  0.88290  1.0000
  H   H219      1.0  0.12959  0.62899  0.51589  1.0000
  H   H220      1.0  0.07389  0.52239  0.66694  1.0000
  H   H221      1.0  0.05973  0.50455  0.77587  1.0000
  C   C189      1.0  0.13929  0.56625  0.56642  1.0000
  C   C190      1.0  0.13824  0.55324  0.57411  1.0000
  C   C191      1.0  0.07041  0.51936  0.70028  1.0000
  H   H222      1.0  0.03413  0.49904  0.67158  1.0000
  H   H223      1.0  0.01917  0.56616  0.12369  1.0000
  H   H224      1.0  0.04260  0.51667  0.54646  1.0000
  H   H225      1.0  0.14800  0.53866  0.56845  1.0000
  C   C192      1.0  0.99548  0.55806  0.12725  1.0000
  C   C193      1.0  0.13272  0.50178  0.11266  1.0000
  H   H226      1.0  0.02580  0.50569  0.95412  1.0000
  H   H227      1.0  0.08872  0.49853  0.55153  1.0000
  C   C194      1.0  0.06967  0.50480  0.76208  1.0000
  H   H228      1.0  0.12520  0.50347  0.13550  1.0000
  H   H229      1.0  0.14079  0.50146  0.12582  1.0000
  C   C195      1.0  0.99508  0.55188  0.23238  1.0000
  H   H230      1.0  0.15657  0.61367  0.96715  1.0000
  H   H231      1.0  0.09843  0.50875  0.05470  1.0000
  H   H232      1.0  0.00235  0.56236  0.09713  1.0000
  C   C196      1.0  0.10238  0.50057  0.05971  1.0000
  H   H233      1.0  0.99815  0.53437  0.14684  1.0000
  C   C197      1.0  0.11331  0.49851  0.95052  1.0000
  C   C198      1.0  0.99239  0.54843  0.19838  1.0000
  C   C199      1.0  0.06523  0.49778  0.66535  1.0000
  H   H234      1.0  0.99093  0.56551  0.13546  1.0000
  C   C200      1.0  0.99089  0.51719  0.31764  1.0000
  H   H235      1.0  0.15681  0.60445  0.06710  1.0000
  Fe  Fe21      1.0  0.28549  0.59004  0.52560  1.0000
  S   S46       1.0  0.26623  0.58213  0.56898  1.0000
  S   S47       1.0  0.29552  0.61080  0.50958  1.0000
  Fe  Fe22      1.0  0.28780  0.56452  0.51430  1.0000
  S   S48       1.0  0.26875  0.55440  0.55695  1.0000
  Fe  Fe23      1.0  0.26202  0.57065  0.52605  1.0000
  S   S49       1.0  0.24335  0.57027  0.50933  1.0000
  Fe  Fe24      1.0  0.27430  0.56649  0.59655  1.0000
  S   S50       1.0  0.27200  0.55731  0.66285  1.0000
  S   S51       1.0  0.28082  0.58003  0.48051  1.0000
  S   S52       1.0  0.29376  0.57525  0.55613  1.0000
  C   C201      1.0  0.19873  0.63799  0.30167  1.0000
  H   H236      1.0  0.31680  0.67669  0.71681  1.0000
  H   H237      1.0  0.16897  0.59299  0.95652  1.0000
  C   C202      1.0  0.24688  0.70466  0.07784  1.0000
  C   C203      1.0  0.29167  0.71767  0.78689  1.0000
  Fe  Fe25      1.0  0.29719  0.56945  0.92149  1.0000
  S   S53       1.0  0.30856  0.58634  0.86992  1.0000
  Fe  Fe26      1.0  0.27254  0.57715  0.92280  1.0000
  S   S54       1.0  0.28240  0.59492  0.87289  1.0000
  S   S55       1.0  0.25173  0.57571  0.94800  1.0000
  Fe  Fe27      1.0  0.29240  0.58250  0.84265  1.0000
  S   S56       1.0  0.29418  0.58752  0.77497  1.0000
  Fe  Fe28      1.0  0.29757  0.59728  0.90412  1.0000
  S   S57       1.0  0.30683  0.61655  0.90991  1.0000
  S   S58       1.0  0.28188  0.56451  0.89152  1.0000
  S   S59       1.0  0.28685  0.58063  0.95675  1.0000
  H   H238      1.0  0.20103  0.63281  0.32741  1.0000
  C   C204      1.0  0.29573  0.52453  0.64229  1.0000
  Fe  Fe29      1.0  0.30193  0.73029  0.87276  1.0000
  H   H239      1.0  0.28322  0.68585  0.50769  1.0000
  H   H240      1.0  0.28884  0.71280  0.81860  1.0000
  N   N14       1.0  0.29504  0.53111  0.60189  1.0000
  H   H241      1.0  0.15794  0.65233  0.34390  1.0000
  H   H242      1.0  0.19415  0.58163  0.49614  1.0000
  H   H243      1.0  0.29319  0.63385  0.04369  1.0000
  Fe  Fe30      1.0  0.19014  0.53538  0.41983  1.0000
  S   S60       1.0  0.17317  0.54111  0.44978  1.0000
  S   S61       1.0  0.20747  0.53333  0.44235  1.0000
  Fe  Fe31      1.0  0.18031  0.53391  0.34527  1.0000
  H   H244      1.0  0.18268  0.59423  0.45925  1.0000
  S   S62       1.0  0.18785  0.53309  0.28084  1.0000
  Fe  Fe32      1.0  0.17550  0.55382  0.38891  1.0000
  S   S63       1.0  0.17495  0.57421  0.37718  1.0000
  Fe  Fe33      1.0  0.15746  0.52353  0.01317  1.0000
  H   H245      1.0  0.23833  0.53784  0.33672  1.0000
  S   S64       1.0  0.19300  0.54912  0.36026  1.0000
  S   S65       1.0  0.17856  0.51941  0.40331  1.0000
  Fe  Fe34      1.0  0.21881  0.64922  0.45846  1.0000
  S   S66       1.0  0.22360  0.64461  0.39867  1.0000
  S   S67       1.0  0.23340  0.65688  0.48996  1.0000
  Fe  Fe35      1.0  0.21187  0.62491  0.43167  1.0000
  S   S68       1.0  0.21766  0.60707  0.42472  1.0000
  H   H246      1.0  0.25643  0.71052  0.06698  1.0000
  H   H247      1.0  0.21473  0.54006  0.25784  1.0000
  S   S69       1.0  0.21865  0.66731  0.01115  1.0000
  H   H248      1.0  0.30810  0.54841  0.59841  1.0000
  S   S70       1.0  0.20701  0.60488  0.06434  1.0000
  C   C205      1.0  0.30095  0.65863  0.03474  1.0000
  Fe  Fe36      1.0  0.16506  0.52583  0.09170  1.0000
  S   S71       1.0  0.18214  0.54164  0.05876  1.0000
  C   C206      1.0  0.19231  0.63829  0.24000  1.0000
  H   H249      1.0  0.22726  0.54926  0.36775  1.0000
  S   S72       1.0  0.17428  0.53929  0.97464  1.0000
  H   H250      1.0  0.16855  0.59338  0.02536  1.0000
  Fe  Fe37      1.0  0.18516  0.53027  0.01407  1.0000
  S   S73       1.0  0.20476  0.52866  0.98627  1.0000
  H   H251      1.0  0.25768  0.70096  0.94901  1.0000
  H   H252      1.0  0.22749  0.68236  0.16026  1.0000
  S   S74       1.0  0.16862  0.51351  0.04979  1.0000
  H   H253      1.0  0.23201  0.61123  0.00518  1.0000
  H   H254      1.0  0.21636  0.58083  0.26774  1.0000
  N   N15       1.0  0.30881  0.65031  0.02120  1.0000
  C   C207      1.0  0.31002  0.67436  0.41994  1.0000
  H   H255      1.0  0.16592  0.55505  0.15820  1.0000
  C   C208      1.0  0.21900  0.57392  0.28892  1.0000
  Fe  Fe38      1.0  0.17732  0.63297  0.07105  1.0000
  H   H256      1.0  0.21541  0.53016  0.36365  1.0000
  C   C209      1.0  0.19933  0.58444  0.03727  1.0000
  C   C210      1.0  0.19064  0.57644  0.02532  1.0000
  H   H257      1.0  0.27586  0.62520  0.54103  1.0000
  H   H258      1.0  0.31917  0.54219  0.45050  1.0000
  C   C211      1.0  0.26738  0.62542  0.53154  1.0000
  H   H259      1.0  0.20788  0.58188  0.04087  1.0000
  H   H260      1.0  0.19264  0.56790  0.01887  1.0000
  H   H261      1.0  0.20566  0.67980  0.06368  1.0000
  H   H262      1.0  0.24045  0.62306  0.43711  1.0000
  C   C212      1.0  0.16316  0.65490  0.36523  1.0000
  C   C213      1.0  0.17885  0.52961  0.24768  1.0000
  C   C214      1.0  0.18509  0.53138  0.20711  1.0000
  C   C215      1.0  0.17838  0.52867  0.17970  1.0000
  C   C216      1.0  0.16534  0.52394  0.19271  1.0000
  S   S75       1.0  0.29081  0.72701  0.56449  1.0000
  C   C217      1.0  0.16578  0.52518  0.26050  1.0000
  H   H263      1.0  0.19520  0.53477  0.19684  1.0000
  H   H264      1.0  0.18335  0.52994  0.14873  1.0000
  H   H265      1.0  0.29848  0.69451  0.40050  1.0000
  H   H266      1.0  0.28302  0.65349  0.48258  1.0000
  C   C218      1.0  0.18837  0.58336  0.38362  1.0000
  C   C219      1.0  0.19607  0.57753  0.40353  1.0000
  C   C220      1.0  0.20567  0.58495  0.41381  1.0000
  C   C221      1.0  0.20754  0.59815  0.40436  1.0000
  C   C222      1.0  0.20052  0.60398  0.38160  1.0000
  C   C223      1.0  0.19083  0.59660  0.37165  1.0000
  H   H267      1.0  0.19430  0.56730  0.41253  1.0000
  H   H268      1.0  0.21128  0.58044  0.43068  1.0000
  C   C224      1.0  0.19686  0.59560  0.04519  1.0000
  H   H269      1.0  0.18349  0.60119  0.23855  1.0000
  H   H270      1.0  0.29793  0.55016  0.56648  1.0000
  C   C225      1.0  0.25300  0.61779  0.49434  1.0000
  C   C226      1.0  0.25873  0.69271  0.50488  1.0000
  H   H271      1.0  0.23142  0.54719  0.23716  1.0000
  C   C227      1.0  0.26018  0.60843  0.95631  1.0000
  C   C228      1.0  0.22418  0.53961  0.26170  1.0000
  H   H272      1.0  0.23647  0.65364  0.94554  1.0000
  N   N16       1.0  0.16160  0.60559  0.91798  1.0000
  C   C229      1.0  0.29160  0.71751  0.71793  1.0000
  H   H273      1.0  0.30955  0.59851  0.57482  1.0000
  C   C230      1.0  0.29854  0.73036  0.77340  1.0000
  H   H274      1.0  0.29055  0.69951  0.44164  1.0000
  C   C231      1.0  0.31328  0.60579  0.97789  1.0000
  H   H275      1.0  0.18079  0.65247  0.40328  1.0000
  H   H276      1.0  0.23922  0.53004  0.29809  1.0000
  C   C232      1.0  0.16423  0.61538  0.93942  1.0000
  H   H277      1.0  0.30680  0.59709  0.97960  1.0000
  C   C233      1.0  0.23899  0.56216  0.96057  1.0000
  C   C234      1.0  0.22684  0.56320  0.97722  1.0000
  C   C235      1.0  0.21634  0.55292  0.98605  1.0000
  C   C236      1.0  0.21787  0.54149  0.97802  1.0000
  C   C237      1.0  0.23005  0.54039  0.96180  1.0000
  C   C238      1.0  0.24058  0.55064  0.95334  1.0000
  H   H278      1.0  0.22549  0.57205  0.98299  1.0000
  H   H279      1.0  0.20706  0.55395  0.99826  1.0000
  H   H280      1.0  0.23133  0.53157  0.95569  1.0000
  H   H281      1.0  0.24989  0.54961  0.94121  1.0000
  H   H282      1.0  0.15894  0.66182  0.37836  1.0000
  N   N17       1.0  0.16283  0.64363  0.39714  1.0000
  H   H283      1.0  0.19311  0.56014  0.16269  1.0000
  H   H284      1.0  0.16618  0.59208  0.47795  1.0000
  H   H285      1.0  0.18833  0.56438  0.11800  1.0000
  C   C239      1.0  0.31771  0.70804  0.69858  1.0000
  H   H286      1.0  0.18882  0.58663  0.29204  1.0000
  H   H287      1.0  0.30552  0.52636  0.64473  1.0000
  H   H288      1.0  0.27935  0.67576  0.41483  1.0000
  H   H289      1.0  0.26746  0.60827  0.43918  1.0000
  H   H290      1.0  0.25691  0.62528  0.41486  1.0000
  C   C240      1.0  0.24075  0.68577  0.97642  1.0000
  C   C241      1.0  0.23394  0.67545  0.00988  1.0000
  C   C242      1.0  0.23939  0.67212  0.04118  1.0000
  C   C243      1.0  0.25127  0.67932  0.03954  1.0000
  H   H291      1.0  0.23666  0.68844  0.95197  1.0000
  H   H292      1.0  0.23444  0.66411  0.06685  1.0000
  H   H293      1.0  0.25520  0.67691  0.06450  1.0000
  H   H294      1.0  0.27042  0.61211  0.49873  1.0000
  H   H295      1.0  0.30131  0.73505  0.67269  1.0000
  Fe  Fe39      1.0  0.28829  0.71423  0.95924  1.0000
  C   C244      1.0  0.29915  0.64837  0.45337  1.0000
  H   H296      1.0  0.15983  0.56031  0.20150  1.0000
  C   C245      1.0  0.32143  0.70024  0.76418  1.0000
  C   C246      1.0  0.27767  0.56578  0.69468  1.0000
  C   C247      1.0  0.28159  0.57903  0.68301  1.0000
  C   C248      1.0  0.28643  0.58548  0.70830  1.0000
  C   C249      1.0  0.28732  0.57881  0.74571  1.0000
  C   C250      1.0  0.28307  0.56556  0.75793  1.0000
  C   C251      1.0  0.27825  0.55909  0.73252  1.0000
  H   H297      1.0  0.28084  0.58429  0.65451  1.0000
  H   H298      1.0  0.28940  0.59574  0.69899  1.0000
  H   H299      1.0  0.28376  0.56028  0.78653  1.0000
  H   H300      1.0  0.27514  0.54884  0.74199  1.0000
  C   C252      1.0  0.31207  0.61439  0.49539  1.0000
  C   C253      1.0  0.32037  0.68813  0.75671  1.0000
  H   H301      1.0  0.16454  0.63278  0.35318  1.0000
  H   H302      1.0  0.29191  0.54789  0.61929  1.0000
  Fe  Fe40      1.0  0.31087  0.72751  0.53315  1.0000
  C   C254      1.0  0.31893  0.62679  0.49010  1.0000
  H   H303      1.0  0.24284  0.63911  0.54208  1.0000
  H   H304      1.0  0.31486  0.68422  0.40636  1.0000
  H   H305      1.0  0.31334  0.59546  0.49393  1.0000
  C   C255      1.0  0.23363  0.55988  0.49021  1.0000
  C   C256      1.0  0.22258  0.56284  0.48297  1.0000
  C   C257      1.0  0.21453  0.55491  0.46819  1.0000
  C   C258      1.0  0.21739  0.54385  0.46045  1.0000
  C   C259      1.0  0.22845  0.54091  0.46757  1.0000
  C   C260      1.0  0.23652  0.54885  0.48224  1.0000
  H   H306      1.0  0.22018  0.57128  0.48912  1.0000
  H   H307      1.0  0.20605  0.55726  0.46322  1.0000
  H   H308      1.0  0.23076  0.53237  0.46189  1.0000
  H   H309      1.0  0.24493  0.54639  0.48763  1.0000
  C   C261      1.0  0.25803  0.60216  0.45719  1.0000
  H   H310      1.0  0.31403  0.58896  0.67615  1.0000
  H   H311      1.0  0.18218  0.58871  0.12449  1.0000
  H   H312      1.0  0.18973  0.56496  0.28784  1.0000
  H   H313      1.0  0.30731  0.74636  0.72121  1.0000
  H   H314      1.0  0.19496  0.62173  0.27868  1.0000
  S   S76       1.0  0.30307  0.73884  0.80699  1.0000
  C   C262      1.0  0.20158  0.68229  0.09163  1.0000
  H   H315      1.0  0.25904  0.59553  0.48409  1.0000
  C   C263      1.0  0.25698  0.68058  0.53035  1.0000
  C   C264      1.0  0.24912  0.66986  0.52558  1.0000
  C   C265      1.0  0.24270  0.67100  0.49561  1.0000
  C   C266      1.0  0.24423  0.68317  0.47069  1.0000
  H   H316      1.0  0.20665  0.68027  0.18304  1.0000
  H   H317      1.0  0.26168  0.67944  0.55384  1.0000
  H   H318      1.0  0.24792  0.66062  0.54562  1.0000
  H   H319      1.0  0.23939  0.68433  0.44758  1.0000
  S   S77       1.0  0.29988  0.55367  0.48235  1.0000
  N   N18       1.0  0.25034  0.57383  0.82734  1.0000
  C   C267      1.0  0.25448  0.58703  0.82983  1.0000
  C   C268      1.0  0.25866  0.56651  0.84341  1.0000
  C   C269      1.0  0.25220  0.57434  0.78427  1.0000
  C   C270      1.0  0.23710  0.56753  0.84997  1.0000
  C   C271      1.0  0.23182  0.55488  0.85046  1.0000
  C   C272      1.0  0.22916  0.57355  0.87224  1.0000
  C   C273      1.0  0.21943  0.54861  0.87216  1.0000
  C   C274      1.0  0.21671  0.56725  0.89335  1.0000
  C   C275      1.0  0.21188  0.55480  0.89345  1.0000
  H   H320      1.0  0.24887  0.59325  0.81724  1.0000
  H   H321      1.0  0.25382  0.58723  0.86148  1.0000
  H   H322      1.0  0.26451  0.59143  0.81268  1.0000
  H   H323      1.0  0.25716  0.56559  0.87606  1.0000
  H   H324      1.0  0.26873  0.57123  0.82818  1.0000
  H   H325      1.0  0.25708  0.55677  0.83961  1.0000
  H   H326      1.0  0.24545  0.57897  0.77181  1.0000
  H   H327      1.0  0.26183  0.57978  0.76587  1.0000
  H   H328      1.0  0.25099  0.56475  0.77917  1.0000
  H   H329      1.0  0.23733  0.54962  0.83479  1.0000
  H   H330      1.0  0.23241  0.58297  0.87492  1.0000
  H   H331      1.0  0.21572  0.53877  0.87360  1.0000
  H   H332      1.0  0.21093  0.57182  0.91128  1.0000
  H   H333      1.0  0.20243  0.54973  0.91143  1.0000
  C   C276      1.0  0.24884  0.63322  0.53221  1.0000
  C   C277      1.0  0.28781  0.67845  0.49922  1.0000
  C   C278      1.0  0.25216  0.69389  0.47535  1.0000
  C   C279      1.0  0.30465  0.52814  0.57170  1.0000
  H   H334      1.0  0.17190  0.58035  0.45762  1.0000
  C   C280      1.0  0.19253  0.65116  0.23481  1.0000
  H   H335      1.0  0.16709  0.62545  0.39997  1.0000
  C   C281      1.0  0.19534  0.63175  0.27379  1.0000
  H   H336      1.0  0.22862  0.62721  0.03604  1.0000
  H   H337      1.0  0.21592  0.52082  0.32870  1.0000
  H   H338      1.0  0.17290  0.61527  0.94944  1.0000
  C   C282      1.0  0.24799  0.61800  0.43134  1.0000
  H   H339      1.0  0.31764  0.68710  0.06092  1.0000
  H   H340      1.0  0.28164  0.66911  0.51827  1.0000
  H   H341      1.0  0.22159  0.69761  0.04384  1.0000
  H   H342      1.0  0.18457  0.56809  0.48973  1.0000
  C   C283      1.0  0.31786  0.68607  0.72153  1.0000
  S   S78       1.0  0.17234  0.62641  0.52829  1.0000
  H   H343      1.0  0.25075  0.65083  0.91979  1.0000
  C   C284      1.0  0.18510  0.57428  0.51029  1.0000
  H   H344      1.0  0.21870  0.56099  0.25356  1.0000
  H   H345      1.0  0.19564  0.66724  0.25922  1.0000
  C   C285      1.0  0.22367  0.55311  0.30876  1.0000
  N   N19       1.0  0.24911  0.60982  0.46885  1.0000
  S   S79       1.0  0.30421  0.71203  0.50564  1.0000
  C   C286      1.0  0.25271  0.69287  0.97454  1.0000
  H   H346      1.0  0.16553  0.61583  0.46582  1.0000
  C   C287      1.0  0.25976  0.63307  0.54415  1.0000
  H   H347      1.0  0.22467  0.64114  0.01152  1.0000
  S   S80       1.0  0.20903  0.63554  0.10165  1.0000
  C   C288      1.0  0.24130  0.64600  0.94067  1.0000
  H   H348      1.0  0.17120  0.63997  0.44622  1.0000
  H   H349      1.0  0.30434  0.58665  0.62211  1.0000
  C   C289      1.0  0.29387  0.66402  0.01019  1.0000
  H   H350      1.0  0.25879  0.65106  0.97842  1.0000
  C   C290      1.0  0.31599  0.55678  0.47963  1.0000
  H   H351      1.0  0.20246  0.61418  0.37205  1.0000
  S   S81       1.0  0.16290  0.53986  0.36956  1.0000
  C   C291      1.0  0.31525  0.61663  0.94637  1.0000
  C   C292      1.0  0.30026  0.66186  0.07158  1.0000
  H   H352      1.0  0.27152  0.66748  0.46664  1.0000
  C   C293      1.0  0.18385  0.59166  0.23663  1.0000
  H   H353      1.0  0.29503  0.63826  0.46660  1.0000
  H   H354      1.0  0.17298  0.65987  0.34701  1.0000
  H   H355      1.0  0.31480  0.69810  0.99655  1.0000
  H   H356      1.0  0.27284  0.53113  0.65367  1.0000
  H   H357      1.0  0.30552  0.65850  0.09185  1.0000
  C   C294      1.0  0.18489  0.56721  0.23183  1.0000
  H   H358      1.0  0.21937  0.58529  0.33053  1.0000
  H   H359      1.0  0.32244  0.65360  0.05409  1.0000
  S   S82       1.0  0.31333  0.71379  0.58615  1.0000
  S   S83       1.0  0.26947  0.70652  0.50693  1.0000
  C   C295      1.0  0.18586  0.59894  0.04008  1.0000
  S   S84       1.0  0.29064  0.73480  0.92669  1.0000
  C   C296      1.0  0.27798  0.67649  0.44616  1.0000
  C   C297      1.0  0.31581  0.64562  0.04983  1.0000
  C   C298      1.0  0.27962  0.52378  0.56408  1.0000
  C   C299      1.0  0.22889  0.63319  0.00607  1.0000
  C   C300      1.0  0.32008  0.71020  0.73383  1.0000
  S   S85       1.0  0.18545  0.64895  0.09521  1.0000
  C   C301      1.0  0.29235  0.65715  0.46225  1.0000
  H   H360      1.0  0.27278  0.68394  0.44896  1.0000
  H   H361      1.0  0.19251  0.67772  0.16855  1.0000
  H   H362      1.0  0.30625  0.63215  0.00782  1.0000
  H   H363      1.0  0.17883  0.59445  0.18225  1.0000
  H   H364      1.0  0.20285  0.69337  0.15258  1.0000
  H   H365      1.0  0.29674  0.67968  0.50797  1.0000
  H   H366      1.0  0.31378  0.66006  0.95771  1.0000
  C   C302      1.0  0.24773  0.60513  0.97929  1.0000
  C   C303      1.0  0.26660  0.62117  0.94044  1.0000
  C   C304      1.0  0.30079  0.63903  0.01566  1.0000
  H   H367      1.0  0.16549  0.62513  0.92017  1.0000
  H   H368      1.0  0.25469  0.59605  0.43886  1.0000
  H   H369      1.0  0.16085  0.52375  0.29161  1.0000
  C   C305      1.0  0.26411  0.61787  0.50702  1.0000
  H   H370      1.0  0.28268  0.70158  0.77013  1.0000
  S   S86       1.0  0.15956  0.63208  0.04882  1.0000
  H   H371      1.0  0.29400  0.66208  0.98167  1.0000
  S   S87       1.0  0.30493  0.55491  0.95788  1.0000
  H   H372      1.0  0.24547  0.61231  0.41084  1.0000
  C   C306      1.0  0.24551  0.62576  0.50759  1.0000
  H   H373      1.0  0.26592  0.64041  0.93430  1.0000
  C   C307      1.0  0.30202  0.73654  0.73201  1.0000
  Fe  Fe41      1.0  0.16171  0.52638  0.42864  1.0000
  H   H374      1.0  0.23695  0.62628  0.49913  1.0000
  H   H375      1.0  0.26225  0.63884  0.56340  1.0000
  H   H376      1.0  0.30537  0.69620  0.44113  1.0000
  C   C308      1.0  0.23674  0.60087  0.49077  1.0000
  C   C309      1.0  0.25943  0.52433  0.62511  1.0000
  H   H377      1.0  0.23708  0.59480  0.51982  1.0000
  H   H378      1.0  0.23371  0.59438  0.47308  1.0000
  H   H379      1.0  0.22916  0.60582  0.49719  1.0000
  C   C310      1.0  0.23909  0.70499  0.05250  1.0000
  H   H380      1.0  0.22548  0.53032  0.25722  1.0000
  C   C311      1.0  0.22069  0.57647  0.32429  1.0000
  C   C312      1.0  0.22043  0.56243  0.28109  1.0000
  N   N20       1.0  0.17423  0.58008  0.51616  1.0000
  S   S88       1.0  0.30565  0.71909  0.98000  1.0000
  H   H381      1.0  0.24522  0.54700  0.28522  1.0000
  H   H382      1.0  0.16843  0.55325  0.53582  1.0000
  C   C313      1.0  0.25794  0.68983  0.00647  1.0000
  C   C314      1.0  0.22379  0.56753  0.35207  1.0000
  H   H383      1.0  0.20565  0.53123  0.33029  1.0000
  N   N21       1.0  0.22509  0.54074  0.30193  1.0000
  C   C315      1.0  0.16847  0.63471  0.37785  1.0000
  H   H384      1.0  0.22482  0.56939  0.38004  1.0000
  H   H385      1.0  0.19799  0.57637  0.13212  1.0000
  H   H386      1.0  0.17265  0.57601  0.11365  1.0000
  C   C316      1.0  0.21513  0.53031  0.33247  1.0000
  C   C317      1.0  0.23750  0.53885  0.30563  1.0000
  C   C318      1.0  0.22525  0.55602  0.34458  1.0000
  S   S89       1.0  0.19589  0.63510  0.02740  1.0000
  H   H387      1.0  0.31632  0.71565  0.67629  1.0000
  C   C319      1.0  0.27167  0.52774  0.62816  1.0000
  H   H388      1.0  0.25331  0.70319  0.45554  1.0000
  H   H389      1.0  0.23603  0.64024  0.92499  1.0000
  C   C320      1.0  0.30844  0.59696  0.60758  1.0000
  S   S90       1.0  0.20095  0.65446  0.44946  1.0000
  H   H390      1.0  0.18153  0.60911  0.89147  1.0000
  C   C321      1.0  0.17259  0.60825  0.88268  1.0000
  H   H391      1.0  0.18581  0.56862  0.53938  1.0000
  Fe  Fe42      1.0  0.20438  0.64965  0.05510  1.0000
  H   H392      1.0  0.24465  0.65342  0.00587  1.0000
  C   C322      1.0  0.24795  0.62766  0.97147  1.0000
  N   N22       1.0  0.17868  0.57052  0.16721  1.0000
  C   C323      1.0  0.17718  0.59093  0.02821  1.0000
  H   H393      1.0  0.17334  0.61729  0.86020  1.0000
  S   S91       1.0  0.16806  0.56937  0.00915  1.0000
  Fe  Fe43      1.0  0.19912  0.62101  0.07717  1.0000
  C   C324      1.0  0.18745  0.57132  0.26425  1.0000
  S   S92       1.0  0.20830  0.62888  0.49164  1.0000
  C   C325      1.0  0.18152  0.57518  0.20096  1.0000
  S   S93       1.0  0.20195  0.65871  0.33315  1.0000
  N   N23       1.0  0.24189  0.63792  0.97915  1.0000
  H   H394      1.0  0.25031  0.64013  0.02663  1.0000
  C   C326      1.0  0.28815  0.71134  0.75933  1.0000
  C   C327      1.0  0.24927  0.64595  0.99828  1.0000
  C   C328      1.0  0.18692  0.58351  0.26669  1.0000
  H   H395      1.0  0.18950  0.65609  0.21043  1.0000
  C   C329      1.0  0.18117  0.58762  0.20422  1.0000
  Fe  Fe44      1.0  0.20507  0.64833  0.39198  1.0000
  C   C330      1.0  0.24165  0.61454  0.98696  1.0000
  C   C331      1.0  0.29300  0.67006  0.08270  1.0000
  C   C332      1.0  0.19581  0.65739  0.26293  1.0000
  C   C333      1.0  0.16206  0.57068  0.53684  1.0000
  H   H396      1.0  0.26485  0.60106  0.95074  1.0000
  H   H397      1.0  0.31437  0.69478  0.86588  1.0000
  H   H398      1.0  0.22255  0.62751  0.99299  1.0000
  Fe  Fe45      1.0  0.29324  0.71251  0.61645  1.0000
  H   H399      1.0  0.25163  0.52496  0.64813  1.0000
  S   S94       1.0  0.27221  0.69934  0.00825  1.0000
  H   H400      1.0  0.29204  0.51407  0.64910  1.0000
  C   C334      1.0  0.15753  0.61268  0.49192  1.0000
  H   H401      1.0  0.32124  0.68009  0.77837  1.0000
  H   H402      1.0  0.31603  0.57208  0.50737  1.0000
  H   H403      1.0  0.19188  0.67607  0.10424  1.0000
  C   C335      1.0  0.26059  0.63067  0.94762  1.0000
  H   H404      1.0  0.31758  0.62038  0.61099  1.0000
  H   H405      1.0  0.27630  0.62362  0.92245  1.0000
  H   H406      1.0  0.18507  0.60117  0.35551  1.0000
  C   C336      1.0  0.19887  0.65082  0.29665  1.0000
  H   H407      1.0  0.21483  0.66459  0.15301  1.0000
  S   S95       1.0  0.19374  0.62828  0.42162  1.0000
  H   H408      1.0  0.29282  0.67263  0.11047  1.0000
  Fe  Fe46      1.0  0.17019  0.54941  0.02189  1.0000
  C   C337      1.0  0.28674  0.67229  0.02146  1.0000
  C   C338      1.0  0.17374  0.58700  0.47605  1.0000
  C   C339      1.0  0.29755  0.67043  0.44556  1.0000
  H   H409      1.0  0.28167  0.67660  0.00185  1.0000
  H   H410      1.0  0.24873  0.69611  0.13588  1.0000
  H   H411      1.0  0.24279  0.59515  0.99121  1.0000
  C   C340      1.0  0.20255  0.68308  0.15774  1.0000
  H   H412      1.0  0.30134  0.60198  0.61881  1.0000
  C   C341      1.0  0.24254  0.69647  0.11653  1.0000
  H   H413      1.0  0.30937  0.63989  0.07959  1.0000
  C   C342      1.0  0.28634  0.67533  0.05758  1.0000
  S   S96       1.0  0.28563  0.69583  0.59474  1.0000
  C   C343      1.0  0.20977  0.66699  0.12999  1.0000
  C   C344      1.0  0.17946  0.57959  0.02142  1.0000
  H   H414      1.0  0.16771  0.65534  0.43517  1.0000
  C   C345      1.0  0.22213  0.68878  0.10517  1.0000
  N   N24       1.0  0.29016  0.67951  0.45569  1.0000
  C   C346      1.0  0.17672  0.58940  0.53933  1.0000
  H   H415      1.0  0.20071  0.69225  0.08335  1.0000
  C   C347      1.0  0.16064  0.55734  0.54428  1.0000
  H   H416      1.0  0.18551  0.55769  0.23132  1.0000
  H   H417      1.0  0.20025  0.66042  0.14193  1.0000
  H   H418      1.0  0.17873  0.63853  0.36400  1.0000
  N   N25       1.0  0.20922  0.68048  0.12055  1.0000
  Fe  Fe47      1.0  0.19091  0.63380  0.47900  1.0000
  C   C348      1.0  0.31645  0.69599  0.69265  1.0000
  H   H419      1.0  0.31405  0.63402  0.49496  1.0000
  S   S97       1.0  0.29829  0.70958  0.90413  1.0000
  S   S98       1.0  0.28684  0.70896  0.68481  1.0000
  C   C349      1.0  0.23037  0.68863  0.13011  1.0000
  H   H420      1.0  0.31418  0.53065  0.57601  1.0000
  Fe  Fe48      1.0  0.18977  0.63387  0.14061  1.0000
  C   C350      1.0  0.29649  0.69299  0.43354  1.0000
  C   C351      1.0  0.22692  0.69713  0.06562  1.0000
  H   H421      1.0  0.21457  0.66466  0.10261  1.0000
  C   C352      1.0  0.17468  0.57976  0.13871  1.0000
  H   H422      1.0  0.29032  0.52777  0.66663  1.0000
  C   C353      1.0  0.29841  0.54499  0.59646  1.0000
  H   H423      1.0  0.31580  0.71818  0.80459  1.0000
  H   H424      1.0  0.32073  0.69921  0.48092  1.0000
  H   H425      1.0  0.24270  0.71108  0.02194  1.0000
  H   H426      1.0  0.18383  0.60751  0.04627  1.0000
  H   H427      1.0  0.31626  0.54402  0.01759  1.0000
  C   C354      1.0  0.28215  0.52732  0.59813  1.0000
  Fe  Fe49      1.0  0.31563  0.71555  0.92291  1.0000
  H   H428      1.0  0.18614  0.59615  0.52546  1.0000
  C   C355      1.0  0.26734  0.52043  0.56127  1.0000
  Fe  Fe50      1.0  0.28447  0.71008  0.54104  1.0000
  C   C356      1.0  0.29865  0.73015  0.70438  1.0000
  Fe  Fe51      1.0  0.30554  0.69852  0.56037  1.0000
  C   C357      1.0  0.16841  0.55871  0.18290  1.0000
  H   H429      1.0  0.29635  0.64155  0.99107  1.0000
  S   S99       1.0  0.18020  0.61795  0.11950  1.0000
  S   S100      1.0  0.18659  0.62957  0.20868  1.0000
  H   H430      1.0  0.28098  0.68195  0.06578  1.0000
  H   H431      1.0  0.17099  0.55086  0.20200  1.0000
  C   C358      1.0  0.31308  0.69362  0.83657  1.0000
  H   H432      1.0  0.30237  0.51786  0.57323  1.0000
  S   S101      1.0  0.31352  0.68145  0.55979  1.0000
  C   C359      1.0  0.19001  0.56772  0.14413  1.0000
  Fe  Fe52      1.0  0.30896  0.73925  0.94340  1.0000
  C   C360      1.0  0.31849  0.60501  0.49038  1.0000
  H   H433      1.0  0.17625  0.58452  0.57076  1.0000
  C   C361      1.0  0.25727  0.52063  0.59180  1.0000
  C   C362      1.0  0.16049  0.59308  0.94561  1.0000
  C   C363      1.0  0.15908  0.52227  0.23320  1.0000
  C   C364      1.0  0.31679  0.66550  0.41168  1.0000
  H   H434      1.0  0.31667  0.64574  0.42172  1.0000
  C   C365      1.0  0.17092  0.64800  0.42168  1.0000
  H   H435      1.0  0.30401  0.69581  0.83402  1.0000
  H   H436      1.0  0.16603  0.58213  0.15384  1.0000
  H   H437      1.0  0.32046  0.71967  0.73692  1.0000
  H   H438      1.0  0.17000  0.59552  0.54062  1.0000
  H   H439      1.0  0.31413  0.69432  0.66592  1.0000
  H   H440      1.0  0.17210  0.60059  0.86733  1.0000
  H   H441      1.0  0.24779  0.51827  0.58909  1.0000
  S   S102      1.0  0.32019  0.73596  0.88747  1.0000
  H   H442      1.0  0.31251  0.60467  0.67274  1.0000
  C   C366      1.0  0.31816  0.65747  0.98236  1.0000
  C   C367      1.0  0.31135  0.65255  0.42812  1.0000
  C   C368      1.0  0.32060  0.55823  0.96103  1.0000
  H   H443      1.0  0.31214  0.68341  0.83834  1.0000
  H   H444      1.0  0.30558  0.53372  0.54062  1.0000
  N   N26       1.0  0.32059  0.60157  0.61546  1.0000
  C   C369      1.0  0.31955  0.60619  0.00774  1.0000
  C   C370      1.0  0.31866  0.59906  0.65954  1.0000
  H   H445      1.0  0.26566  0.51796  0.53475  1.0000
  H   H446      1.0  0.31784  0.59774  0.03217  1.0000
  H   H447      1.0  0.28698  0.52384  0.53865  1.0000
  C   C371      1.0  0.32150  0.56621  0.49495  1.0000
  H   H448      1.0  0.15942  0.58520  0.93129  1.0000
  C   C372      1.0  0.15845  0.61629  0.52657  1.0000
  H   H449      1.0  0.32158  0.63934  0.03897  1.0000
  C   C373      1.0  0.32292  0.69436  0.99657  1.0000
  C   C374      1.0  0.32319  0.68161  0.51346  1.0000
  H   H450      1.0  0.31914  0.57599  0.63775  1.0000
  C   C375      1.0  0.32337  0.54949  0.46250  1.0000
  C   C376      1.0  0.32364  0.55104  0.99375  1.0000
  N   N27       1.0  0.32362  0.70202  0.80241  1.0000
  C   C377      1.0  0.30744  0.76743  0.87251  1.0000
  N   N28       1.0  0.31787  0.77597  0.83840  1.0000
  H   H451      1.0  0.31041  0.75908  0.88734  1.0000
  H   H452      1.0  0.31706  0.77833  0.99931  1.0000
  H   H453      1.0  0.31948  0.79047  0.89134  1.0000
  S   S103      1.0  0.31380  0.75714  0.96543  1.0000
  C   C378      1.0  0.31364  0.78714  0.82010  1.0000
  H   H454      1.0  0.29909  0.76377  0.86275  1.0000
  H   H455      1.0  0.30434  0.77212  0.89621  1.0000
  H   H456      1.0  0.32081  0.76214  0.52491  1.0000
  H   H457      1.0  0.32151  0.79422  0.79610  1.0000
  H   H458      1.0  0.30593  0.78439  0.80647  1.0000
  H   H459      1.0  0.30987  0.79202  0.84245  1.0000
  H   H460      1.0  0.31227  0.76632  0.79621  1.0000
  C   C379      1.0  0.32054  0.76900  0.80759  1.0000
  H   H461      1.0  0.32271  0.75985  0.82014  1.0000
  C   C380      1.0  0.47503  0.00306  0.29834  1.0000
  S   S104      1.0  0.48311  0.03486  0.14817  1.0000
  C   C381      1.0  0.48634  0.03755  0.22110  1.0000
  S   S105      1.0  0.47850  0.01118  0.45155  1.0000
  S   S106      1.0  0.48534  0.03575  0.03109  1.0000
  C   C382      1.0  0.45788  0.00983  0.27655  1.0000
  H   H462      1.0  0.48884  0.04015  0.27778  1.0000
  H   H463      1.0  0.43882  0.00586  0.34741  1.0000
  C   C383      1.0  0.46718  0.01505  0.36334  1.0000
  C   C384      1.0  0.47491  0.00621  0.22883  1.0000
  H   H464      1.0  0.47622  0.03491  0.23174  1.0000
  C   C385      1.0  0.46355  0.00669  0.30817  1.0000
  C   C386      1.0  0.46354  0.00957  0.23754  1.0000
  H   H465      1.0  0.47068  0.02481  0.34249  1.0000
  C   C387      1.0  0.44655  0.01195  0.35454  1.0000
  H   H466      1.0  0.47546  0.01122  0.36544  1.0000
  H   H467      1.0  0.47937  0.00638  0.19825  1.0000
  H   H468      1.0  0.45929  0.01233  0.21345  1.0000
  H   H469      1.0  0.44276  0.01220  0.38607  1.0000
  H   H470      1.0  0.48222  0.06383  0.13820  1.0000
  N   N29       1.0  0.45792  0.00692  0.34983  1.0000
  C   C388      1.0  0.48867  0.07371  0.01480  1.0000
  H   H471      1.0  0.48482  0.06565  0.00505  1.0000
  H   H472      1.0  0.44915  0.01265  0.28092  1.0000
  H   H473      1.0  0.44865  0.02184  0.33509  1.0000
  H   H474      1.0  0.47762  0.00778  0.93672  1.0000
  H   H475      1.0  0.46311  0.01589  0.39400  1.0000
  C   C389      1.0  0.48063  0.00293  0.25918  1.0000
  H   H476      1.0  0.48027  0.08635  0.12920  1.0000
  S   S107      1.0  0.48350  0.99862  0.01376  1.0000
  H   H477      1.0  0.48654  0.06230  0.07304  1.0000
  C   C390      1.0  0.48986  0.07193  0.05388  1.0000
  H   H478      1.0  0.47977  0.00031  0.32092  1.0000
  H   H479      1.0  0.48950  0.00036  0.25227  1.0000
  H   H480      1.0  0.48615  0.46229  0.57600  1.0000
  H   H481      1.0  0.42726  0.46183  0.43205  1.0000
  Fe  Fe53      1.0  0.44991  0.48361  0.59011  1.0000
  S   S108      1.0  0.43580  0.47596  0.56006  1.0000
  S   S109      1.0  0.45371  0.47455  0.64810  1.0000
  Fe  Fe54      1.0  0.45221  0.48127  0.50498  1.0000
  S   S110      1.0  0.45591  0.46991  0.46017  1.0000
  H   H482      1.0  0.48660  0.41299  0.25527  1.0000
  H   H483      1.0  0.45020  0.42718  0.88622  1.0000
  S   S111      1.0  0.46634  0.48712  0.53670  1.0000
  C   C391      1.0  0.40193  0.48646  0.46414  1.0000
  Fe  Fe55      1.0  0.43690  0.48722  0.85467  1.0000
  S   S112      1.0  0.43244  0.47464  0.91748  1.0000
  S   S113      1.0  0.42590  0.48373  0.81088  1.0000
  H   H484      1.0  0.45659  0.46035  0.99550  1.0000
  H   H485      1.0  0.45405  0.43753  0.83644  1.0000
  Fe  Fe56      1.0  0.45339  0.47796  0.90714  1.0000
  S   S114      1.0  0.46575  0.46409  0.90878  1.0000
  C   C392      1.0  0.48060  0.44793  0.44351  1.0000
  H   H486      1.0  0.41670  0.44512  0.91735  1.0000
  C   C393      1.0  0.48364  0.44351  0.97524  1.0000
  C   C394      1.0  0.47043  0.45657  0.95022  1.0000
  C   C395      1.0  0.47533  0.44749  0.51369  1.0000
  C   C396      1.0  0.41969  0.46665  0.42703  1.0000
  C   C397      1.0  0.46421  0.45579  0.98975  1.0000
  H   H487      1.0  0.48593  0.36003  0.38714  1.0000
  H   H488      1.0  0.42726  0.42193  0.88723  1.0000
  H   H489      1.0  0.48501  0.45101  0.91263  1.0000
  C   C398      1.0  0.43408  0.43983  0.92228  1.0000
  C   C399      1.0  0.44609  0.47763  0.69246  1.0000
  C   C400      1.0  0.45118  0.47577  0.72522  1.0000
  C   C401      1.0  0.44530  0.47810  0.76115  1.0000
  C   C402      1.0  0.43404  0.48183  0.76502  1.0000
  C   C403      1.0  0.42897  0.48372  0.73218  1.0000
  C   C404      1.0  0.43509  0.48183  0.69571  1.0000
  H   H490      1.0  0.45975  0.47260  0.72270  1.0000
  H   H491      1.0  0.44937  0.47678  0.78600  1.0000
  S   S115      1.0  0.45513  0.49518  0.93036  1.0000
  H   H492      1.0  0.43109  0.48326  0.67055  1.0000
  C   C405      1.0  0.46600  0.45987  0.46869  1.0000
  C   C406      1.0  0.46749  0.45568  0.50702  1.0000
  H   H493      1.0  0.41605  0.48776  0.36707  1.0000
  H   H494      1.0  0.48512  0.45723  0.07125  1.0000
  H   H495      1.0  0.46236  0.45848  0.53179  1.0000
  H   H496      1.0  0.47240  0.49499  0.65464  1.0000
  C   C407      1.0  0.44050  0.45366  0.85439  1.0000
  H   H497      1.0  0.44414  0.45459  0.82179  1.0000
  H   H498      1.0  0.47604  0.44397  0.54371  1.0000
  C   C408      1.0  0.44097  0.43672  0.95051  1.0000
  C   C409      1.0  0.42233  0.44240  0.93714  1.0000
  H   H499      1.0  0.41332  0.46874  0.50150  1.0000
  H   H500      1.0  0.44733  0.46051  0.86252  1.0000
  H   H501      1.0  0.47129  0.45902  0.40733  1.0000
  H   H502      1.0  0.48874  0.37804  0.42093  1.0000
  C   C410      1.0  0.47714  0.44232  0.01481  1.0000
  N   N30       1.0  0.42129  0.47873  0.43850  1.0000
  H   H503      1.0  0.48937  0.49637  0.93001  1.0000
  H   H504      1.0  0.47942  0.47573  0.61758  1.0000
  H   H505      1.0  0.42025  0.48661  0.73501  1.0000
  C   C411      1.0  0.47247  0.45588  0.43702  1.0000
  C   C412      1.0  0.41780  0.44193  0.97757  1.0000
  C   C413      1.0  0.48910  0.47513  0.61103  1.0000
  S   S116      1.0  0.42161  0.49581  0.98849  1.0000
  H   H506      1.0  0.45849  0.44367  0.87474  1.0000
  Fe  Fe57      1.0  0.43470  0.49305  0.93480  1.0000
  H   H507      1.0  0.40211  0.48366  0.49510  1.0000
  H   H508      1.0  0.48731  0.48439  0.03926  1.0000
  H   H509      1.0  0.45014  0.43495  0.94210  1.0000
  H   H510      1.0  0.40891  0.44419  0.98802  1.0000
  H   H511      1.0  0.43288  0.43163  0.83590  1.0000
  C   C414      1.0  0.42942  0.43181  0.86764  1.0000
  H   H512      1.0  0.48659  0.47308  0.01090  1.0000
  H   H513      1.0  0.46237  0.44762  0.05253  1.0000
  H   H514      1.0  0.42043  0.43470  0.86985  1.0000
  C   C415      1.0  0.39257  0.49253  0.45675  1.0000
  H   H515      1.0  0.48779  0.46827  0.10027  1.0000
  H   H516      1.0  0.42316  0.48453  0.49134  1.0000
  C   C416      1.0  0.42190  0.47580  0.48080  1.0000
  H   H517      1.0  0.44183  0.43400  0.01172  1.0000
  C   C417      1.0  0.46747  0.44855  0.02195  1.0000
  H   H518      1.0  0.44157  0.48356  0.41935  1.0000
  C   C418      1.0  0.42478  0.43885  0.00439  1.0000
  S   S117      1.0  0.45747  0.48907  0.84265  1.0000
  H   H519      1.0  0.43164  0.45685  0.85801  1.0000
  C   C419      1.0  0.48021  0.45051  0.94313  1.0000
  C   C420      1.0  0.43353  0.48735  0.41322  1.0000
  H   H520      1.0  0.42992  0.47158  0.48444  1.0000
  C   C421      1.0  0.41095  0.48468  0.43214  1.0000
  C   C422      1.0  0.45087  0.43703  0.86888  1.0000
  H   H521      1.0  0.41053  0.45996  0.44501  1.0000
  N   N31       1.0  0.43871  0.44053  0.87919  1.0000
  S   S118      1.0  0.48063  0.43287  0.05589  1.0000
  C   C423      1.0  0.40038  0.49515  0.38577  1.0000
  Fe  Fe58      1.0  0.43483  0.49634  0.53931  1.0000
  H   H522      1.0  0.42003  0.46813  0.39479  1.0000
  H   H523      1.0  0.42131  0.43864  0.03562  1.0000
  C   C424      1.0  0.43631  0.43622  0.99091  1.0000
  C   C425      1.0  0.48208  0.44374  0.48194  1.0000
  H   H524      1.0  0.38610  0.49423  0.48139  1.0000
  H   H525      1.0  0.43463  0.48874  0.38060  1.0000
  C   C426      1.0  0.40970  0.48897  0.39281  1.0000
  H   H526      1.0  0.48569  0.44504  0.41886  1.0000
  H   H527      1.0  0.43472  0.49685  0.41889  1.0000
  C   C427      1.0  0.39190  0.49700  0.41766  1.0000
  H   H528      1.0  0.34975  0.61971  0.39308  1.0000
  Fe  Fe59      1.0  0.39125  0.54737  0.39441  1.0000
  S   S119      1.0  0.40037  0.56364  0.33890  1.0000
  S   S120      1.0  0.40130  0.53155  0.39511  1.0000
  Fe  Fe60      1.0  0.37244  0.56116  0.42811  1.0000
  S   S121      1.0  0.38040  0.57850  0.37570  1.0000
  S   S122      1.0  0.35734  0.56308  0.47891  1.0000
  Fe  Fe61      1.0  0.38096  0.56494  0.33753  1.0000
  S   S123      1.0  0.37646  0.57257  0.27904  1.0000
  Fe  Fe62      1.0  0.39910  0.57588  0.38076  1.0000
  S   S124      1.0  0.41567  0.59246  0.36621  1.0000
  S   S125      1.0  0.37155  0.54755  0.38977  1.0000
  S   S126      1.0  0.39142  0.55966  0.43662  1.0000
  Fe  Fe63      1.0  0.45367  0.61567  0.48880  1.0000
  S   S127      1.0  0.46371  0.62840  0.51892  1.0000
  S   S128      1.0  0.43417  0.60293  0.51342  1.0000
  Fe  Fe64      1.0  0.46891  0.64309  0.45931  1.0000
  S   S129      1.0  0.46544  0.66287  0.44790  1.0000
  S   S130      1.0  0.45760  0.63074  0.43115  1.0000
  Fe  Fe65      1.0  0.37739  0.55057  0.09062  1.0000
  S   S131      1.0  0.37763  0.54228  0.03775  1.0000
  S   S132      1.0  0.37173  0.53951  0.15595  1.0000
  Fe  Fe66      1.0  0.38941  0.57710  0.03971  1.0000
  S   S133      1.0  0.39101  0.57146  0.98291  1.0000
  S   S134      1.0  0.39669  0.59743  0.03793  1.0000
  Fe  Fe67      1.0  0.37130  0.55949  0.01108  1.0000
  S   S135      1.0  0.36183  0.56213  0.96070  1.0000
  Fe  Fe68      1.0  0.39716  0.55479  0.01243  1.0000
  S   S136      1.0  0.41421  0.55145  0.97322  1.0000
  S   S137      1.0  0.36925  0.56661  0.06630  1.0000
  S   S138      1.0  0.39752  0.56158  0.06685  1.0000
  Fe  Fe69      1.0  0.44889  0.61194  0.12510  1.0000
  S   S139      1.0  0.45861  0.62011  0.05956  1.0000
  S   S140      1.0  0.43296  0.59461  0.14808  1.0000
  Fe  Fe70      1.0  0.45705  0.63891  0.07078  1.0000
  S   S141      1.0  0.44870  0.65201  0.03159  1.0000
  S   S142      1.0  0.44579  0.63028  0.13491  1.0000
  H   H529      1.0  0.44376  0.70202  0.85074  1.0000
  H   H530      1.0  0.33554  0.70021  0.41720  1.0000
  S   S143      1.0  0.35967  0.65406  0.37868  1.0000
  S   S144      1.0  0.43121  0.73428  0.58362  1.0000
  Fe  Fe71      1.0  0.45312  0.71239  0.56963  1.0000
  S   S145      1.0  0.43369  0.70553  0.61241  1.0000
  S   S146      1.0  0.46455  0.69767  0.56820  1.0000
  Fe  Fe72      1.0  0.42822  0.71692  0.56139  1.0000
  S   S147      1.0  0.41031  0.71119  0.54324  1.0000
  Fe  Fe73      1.0  0.43863  0.72355  0.63067  1.0000
  S   S148      1.0  0.43155  0.72644  0.69287  1.0000
  S   S149      1.0  0.44732  0.72292  0.51767  1.0000
  S   S150      1.0  0.45850  0.72980  0.59141  1.0000
  C   C428      1.0  0.36054  0.62158  0.95791  1.0000
  S   S151      1.0  0.38415  0.67749  0.36632  1.0000
  S   S152      1.0  0.38548  0.64813  0.39821  1.0000
  Fe  Fe74      1.0  0.38775  0.66561  0.42041  1.0000
  S   S153      1.0  0.40543  0.67150  0.43926  1.0000
  H   H531      1.0  0.42528  0.57232  0.46980  1.0000
  C   C429      1.0  0.32983  0.57927  0.37673  1.0000
  Fe  Fe75      1.0  0.36512  0.64397  0.43167  1.0000
  C   C430      1.0  0.43732  0.64714  0.53154  1.0000
  H   H532      1.0  0.47337  0.52898  0.61306  1.0000
  C   C431      1.0  0.34659  0.58121  0.56710  1.0000
  S   S154      1.0  0.44408  0.71824  0.93106  1.0000
  C   C432      1.0  0.37424  0.64986  0.19573  1.0000
  Fe  Fe76      1.0  0.43145  0.72907  0.95855  1.0000
  S   S155      1.0  0.41045  0.72109  0.97939  1.0000
  Fe  Fe77      1.0  0.45640  0.72488  0.96737  1.0000
  S   S156      1.0  0.46665  0.71181  0.99796  1.0000
  C   C433      1.0  0.41684  0.51995  0.43091  1.0000
  C   C434      1.0  0.39176  0.63076  0.16007  1.0000
  C   C435      1.0  0.39856  0.52236  0.47634  1.0000
  Fe  Fe78      1.0  0.37165  0.65342  0.04303  1.0000
  S   S157      1.0  0.39199  0.66170  0.00859  1.0000
  C   C436      1.0  0.46727  0.51182  0.00511  1.0000
  C   C437      1.0  0.40525  0.70445  0.99033  1.0000
  C   C438      1.0  0.39263  0.69892  0.99484  1.0000
  C   C439      1.0  0.38838  0.68572  0.00203  1.0000
  C   C440      1.0  0.39683  0.67804  0.00388  1.0000
  C   C441      1.0  0.40940  0.68353  0.00005  1.0000
  C   C442      1.0  0.41358  0.69668  0.99365  1.0000
  H   H533      1.0  0.38614  0.70489  0.99222  1.0000
  H   H534      1.0  0.37864  0.68156  0.00498  1.0000
  H   H535      1.0  0.41596  0.67763  0.00194  1.0000
  H   H536      1.0  0.42324  0.70078  0.99141  1.0000
  C   C443      1.0  0.48298  0.69038  0.84409  1.0000
  C   C444      1.0  0.34420  0.66391  0.18480  1.0000
  S   S158      1.0  0.36452  0.63280  0.07780  1.0000
  H   H537      1.0  0.39033  0.66324  0.19835  1.0000
  H   H538      1.0  0.48868  0.52921  0.61910  1.0000
  C   C445      1.0  0.44037  0.72926  0.72697  1.0000
  C   C446      1.0  0.43488  0.73317  0.76034  1.0000
  C   C447      1.0  0.43877  0.53492  0.07235  1.0000
  S   S159      1.0  0.38836  0.66058  0.28187  1.0000
  H   H539      1.0  0.35236  0.61787  0.94913  1.0000
  H   H540      1.0  0.35757  0.57214  0.34600  1.0000
  C   C448      1.0  0.35277  0.72541  0.52460  1.0000
  Fe  Fe79      1.0  0.46297  0.50642  0.51855  1.0000
  H   H541      1.0  0.45685  0.72451  0.69668  1.0000
  C   C449      1.0  0.40909  0.69989  0.51517  1.0000
  C   C450      1.0  0.41959  0.69621  0.49662  1.0000
  C   C451      1.0  0.41835  0.68762  0.47317  1.0000
  C   C452      1.0  0.40662  0.68255  0.46817  1.0000
  C   C453      1.0  0.39611  0.68616  0.48689  1.0000
  C   C454      1.0  0.39734  0.69474  0.51040  1.0000
  H   H542      1.0  0.42869  0.70006  0.50010  1.0000
  H   H543      1.0  0.42655  0.68487  0.45899  1.0000
  H   H544      1.0  0.38701  0.68230  0.48349  1.0000
  H   H545      1.0  0.38915  0.69743  0.52483  1.0000
  C   C455      1.0  0.45323  0.66853  0.02528  1.0000
  C   C456      1.0  0.44661  0.67642  0.00690  1.0000
  C   C457      1.0  0.45034  0.68967  0.99972  1.0000
  C   C458      1.0  0.46085  0.69515  0.01039  1.0000
  C   C459      1.0  0.46738  0.68723  0.02921  1.0000
  C   C460      1.0  0.46355  0.67396  0.03683  1.0000
  H   H546      1.0  0.43859  0.67232  0.99804  1.0000
  H   H547      1.0  0.44515  0.69560  0.98560  1.0000
  H   H548      1.0  0.47550  0.69139  0.03761  1.0000
  H   H549      1.0  0.46873  0.66797  0.05102  1.0000
  C   C461      1.0  0.34581  0.56125  0.96370  1.0000
  C   C462      1.0  0.34276  0.56859  0.93133  1.0000
  H   H550      1.0  0.47201  0.52489  0.92757  1.0000
  H   H551      1.0  0.37185  0.52380  0.98377  1.0000
  H   H552      1.0  0.36803  0.59288  0.31408  1.0000
  C   C463      1.0  0.33618  0.55267  0.99542  1.0000
  H   H553      1.0  0.35016  0.57518  0.90649  1.0000
  Fe  Fe80      1.0  0.45789  0.50595  0.86630  1.0000
  Fe  Fe81      1.0  0.46419  0.63255  0.14978  1.0000
  H   H554      1.0  0.33840  0.54687  0.02033  1.0000
  C   C464      1.0  0.41600  0.53590  0.97809  1.0000
  C   C465      1.0  0.42568  0.53381  0.94985  1.0000
  C   C466      1.0  0.42742  0.52153  0.95277  1.0000
  H   H555      1.0  0.40158  0.65677  0.13030  1.0000
  C   C467      1.0  0.40807  0.52566  0.00947  1.0000
  H   H556      1.0  0.43178  0.54169  0.92537  1.0000
  H   H557      1.0  0.43490  0.52004  0.93084  1.0000
  H   H558      1.0  0.40062  0.52722  0.03151  1.0000
  C   C468      1.0  0.40565  0.59756  0.07215  1.0000
  C   C469      1.0  0.41584  0.60785  0.06516  1.0000
  C   C470      1.0  0.42381  0.60733  0.09022  1.0000
  C   C471      1.0  0.42183  0.59633  0.12138  1.0000
  C   C472      1.0  0.41129  0.58634  0.12955  1.0000
  C   C473      1.0  0.40315  0.58702  0.10514  1.0000
  H   H559      1.0  0.41783  0.61598  0.03951  1.0000
  H   H560      1.0  0.43178  0.61521  0.08428  1.0000
  H   H561      1.0  0.40954  0.57792  0.15416  1.0000
  H   H562      1.0  0.39501  0.57929  0.11162  1.0000
  C   C474      1.0  0.46480  0.67209  0.48271  1.0000
  C   C475      1.0  0.46011  0.68296  0.47536  1.0000
  C   C476      1.0  0.45960  0.69065  0.50196  1.0000
  C   C477      1.0  0.46407  0.68771  0.53570  1.0000
  C   C478      1.0  0.46869  0.67679  0.54314  1.0000
  C   C479      1.0  0.46894  0.66893  0.51702  1.0000
  H   H563      1.0  0.45697  0.68556  0.44881  1.0000
  H   H564      1.0  0.45609  0.69905  0.49576  1.0000
  H   H565      1.0  0.47221  0.67447  0.56909  1.0000
  H   H566      1.0  0.47261  0.66063  0.52297  1.0000
  C   C480      1.0  0.47539  0.61755  0.28360  1.0000
  C   C481      1.0  0.45321  0.55874  0.96574  1.0000
  H   H567      1.0  0.46914  0.66601  0.94925  1.0000
  H   H568      1.0  0.47181  0.61780  0.22612  1.0000
  C   C482      1.0  0.38185  0.65602  0.21561  1.0000
  C   C483      1.0  0.34097  0.68354  0.19798  1.0000
  C   C484      1.0  0.33423  0.56818  0.49385  1.0000
  C   C485      1.0  0.34158  0.56076  0.47745  1.0000
  C   C486      1.0  0.33614  0.55146  0.46144  1.0000
  H   H569      1.0  0.38155  0.61420  0.00958  1.0000
  S   S160      1.0  0.47547  0.64253  0.08569  1.0000
  H   H570      1.0  0.33843  0.57562  0.50523  1.0000
  H   H571      1.0  0.34172  0.54565  0.44886  1.0000
  C   C487      1.0  0.42234  0.71194  0.87576  1.0000
  C   C488      1.0  0.37568  0.56326  0.24495  1.0000
  C   C489      1.0  0.37492  0.55023  0.25635  1.0000
  C   C490      1.0  0.37370  0.54299  0.22893  1.0000
  C   C491      1.0  0.37346  0.54877  0.18981  1.0000
  C   C492      1.0  0.37440  0.56183  0.17835  1.0000
  C   C493      1.0  0.37544  0.56903  0.20586  1.0000
  H   H572      1.0  0.37506  0.54568  0.28644  1.0000
  H   H573      1.0  0.37294  0.53289  0.23802  1.0000
  H   H574      1.0  0.37406  0.56634  0.14852  1.0000
  H   H575      1.0  0.37603  0.57909  0.19679  1.0000
  C   C494      1.0  0.42049  0.59510  0.40779  1.0000
  C   C495      1.0  0.43314  0.60058  0.40244  1.0000
  C   C496      1.0  0.43738  0.60245  0.43528  1.0000
  C   C497      1.0  0.42893  0.59933  0.47336  1.0000
  C   C498      1.0  0.41623  0.59381  0.47887  1.0000
  C   C499      1.0  0.41202  0.59159  0.44608  1.0000
  H   H576      1.0  0.43976  0.60310  0.37301  1.0000
  H   H577      1.0  0.44726  0.60617  0.43097  1.0000
  H   H578      1.0  0.40968  0.59126  0.50838  1.0000
  H   H579      1.0  0.40222  0.58729  0.45030  1.0000
  H   H580      1.0  0.39567  0.65564  0.08802  1.0000
  C   C500      1.0  0.40592  0.52440  0.43713  1.0000
  C   C501      1.0  0.47459  0.50500  0.63610  1.0000
  H   H581      1.0  0.35293  0.68676  0.11580  1.0000
  H   H582      1.0  0.48190  0.50692  0.78852  1.0000
  N   N32       1.0  0.44024  0.57898  0.03003  1.0000
  C   C502      1.0  0.44635  0.59001  0.04182  1.0000
  C   C503      1.0  0.43140  0.58316  0.00771  1.0000
  C   C504      1.0  0.43292  0.56896  0.06743  1.0000
  C   C505      1.0  0.44929  0.57389  0.00493  1.0000
  C   C506      1.0  0.46250  0.57903  0.99383  1.0000
  C   C507      1.0  0.44495  0.56348  0.99061  1.0000
  C   C508      1.0  0.38855  0.54416  0.93160  1.0000
  H   H583      1.0  0.45176  0.59808  0.01515  1.0000
  H   H584      1.0  0.43935  0.59370  0.06015  1.0000
  H   H585      1.0  0.45264  0.58741  0.06066  1.0000
  H   H586      1.0  0.43651  0.59041  0.97870  1.0000
  H   H587      1.0  0.42466  0.58739  0.02531  1.0000
  H   H588      1.0  0.42556  0.57518  0.00076  1.0000
  H   H589      1.0  0.42633  0.57264  0.08765  1.0000
  H   H590      1.0  0.42703  0.56082  0.06139  1.0000
  H   H591      1.0  0.43921  0.56525  0.08458  1.0000
  H   H592      1.0  0.46679  0.58687  0.00345  1.0000
  H   H593      1.0  0.43509  0.55893  0.99850  1.0000
  N   N33       1.0  0.41064  0.63024  0.49804  1.0000
  C   C509      1.0  0.40606  0.61818  0.53063  1.0000
  C   C510      1.0  0.39955  0.63400  0.48773  1.0000
  C   C511      1.0  0.41826  0.62789  0.46181  1.0000
  C   C512      1.0  0.41838  0.63987  0.51132  1.0000
  C   C513      1.0  0.41469  0.65092  0.51811  1.0000
  C   C514      1.0  0.42985  0.63817  0.51908  1.0000
  C   C515      1.0  0.42217  0.65973  0.53111  1.0000
  C   C516      1.0  0.43349  0.65790  0.53749  1.0000
  H   H594      1.0  0.40049  0.61957  0.55871  1.0000
  H   H595      1.0  0.40007  0.61067  0.52217  1.0000
  H   H596      1.0  0.41391  0.61430  0.53802  1.0000
  H   H597      1.0  0.39283  0.63501  0.51431  1.0000
  H   H598      1.0  0.39417  0.62680  0.47651  1.0000
  H   H599      1.0  0.40239  0.64315  0.46365  1.0000
  H   H600      1.0  0.41266  0.62079  0.45076  1.0000
  H   H601      1.0  0.42213  0.63675  0.43700  1.0000
  H   H602      1.0  0.42630  0.62407  0.46736  1.0000
  H   H603      1.0  0.40609  0.65307  0.51350  1.0000
  H   H604      1.0  0.41918  0.66807  0.53627  1.0000
  H   H605      1.0  0.43933  0.66484  0.54715  1.0000
  N   N34       1.0  0.44143  0.66594  0.37404  1.0000
  C   C517      1.0  0.43768  0.66315  0.41836  1.0000
  C   C518      1.0  0.45537  0.66910  0.35990  1.0000
  C   C519      1.0  0.43746  0.67747  0.35694  1.0000
  C   C520      1.0  0.43543  0.65475  0.36280  1.0000
  C   C521      1.0  0.44172  0.64520  0.35563  1.0000
  C   C522      1.0  0.42267  0.65251  0.36209  1.0000
  C   C523      1.0  0.43575  0.63436  0.34712  1.0000
  C   C524      1.0  0.41682  0.64167  0.35316  1.0000
  C   C525      1.0  0.42333  0.63260  0.34585  1.0000
  H   H606      1.0  0.44079  0.65480  0.43265  1.0000
  H   H607      1.0  0.44195  0.67125  0.42854  1.0000
  H   H608      1.0  0.42734  0.66119  0.43072  1.0000
  H   H609      1.0  0.45934  0.66176  0.37578  1.0000
  H   H610      1.0  0.45974  0.67795  0.36647  1.0000
  H   H611      1.0  0.45871  0.67037  0.32700  1.0000
  H   H612      1.0  0.43868  0.67906  0.32411  1.0000
  H   H613      1.0  0.42754  0.67701  0.37167  1.0000
  H   H614      1.0  0.44292  0.68617  0.36160  1.0000
  H   H615      1.0  0.45126  0.64580  0.35677  1.0000
  H   H616      1.0  0.41700  0.65896  0.36904  1.0000
  H   H617      1.0  0.44079  0.62725  0.34155  1.0000
  H   H618      1.0  0.40716  0.64028  0.35203  1.0000
  C   C526      1.0  0.33582  0.57477  0.59828  1.0000
  C   C527      1.0  0.38173  0.62021  0.18088  1.0000
  C   C528      1.0  0.37799  0.61108  0.16198  1.0000
  H   H619      1.0  0.37660  0.61925  0.21155  1.0000
  H   H620      1.0  0.37015  0.60295  0.17808  1.0000
  N   N35       1.0  0.41227  0.60511  0.24367  1.0000
  C   C529      1.0  0.40160  0.59737  0.27853  1.0000
  C   C530      1.0  0.40889  0.60410  0.20634  1.0000
  C   C531      1.0  0.42309  0.59940  0.24545  1.0000
  C   C532      1.0  0.41488  0.61858  0.24424  1.0000
  C   C533      1.0  0.40517  0.62507  0.24594  1.0000
  C   C534      1.0  0.42696  0.62568  0.24240  1.0000
  C   C535      1.0  0.40733  0.63775  0.24682  1.0000
  C   C536      1.0  0.42904  0.63841  0.24281  1.0000
  C   C537      1.0  0.41923  0.64441  0.24531  1.0000
  H   H621      1.0  0.39251  0.59943  0.27621  1.0000
  H   H622      1.0  0.40025  0.58705  0.28105  1.0000
  H   H623      1.0  0.40315  0.59888  0.30713  1.0000
  H   H624      1.0  0.40016  0.60711  0.20443  1.0000
  H   H625      1.0  0.40720  0.59410  0.20434  1.0000
  H   H626      1.0  0.41652  0.61005  0.17934  1.0000
  H   H627      1.0  0.42082  0.58925  0.24521  1.0000
  H   H628      1.0  0.43130  0.60424  0.21886  1.0000
  H   H629      1.0  0.42593  0.59965  0.27342  1.0000
  H   H630      1.0  0.39582  0.62035  0.24665  1.0000
  H   H631      1.0  0.43502  0.62169  0.24053  1.0000
  H   H632      1.0  0.39973  0.64246  0.24881  1.0000
  H   H633      1.0  0.43837  0.64363  0.24122  1.0000
  H   H634      1.0  0.42084  0.65424  0.24609  1.0000
  C   C538      1.0  0.44199  0.55696  0.47727  1.0000
  S   S161      1.0  0.35508  0.65407  0.01783  1.0000
  H   H635      1.0  0.48046  0.55655  0.72656  1.0000
  H   H636      1.0  0.45461  0.68673  0.87893  1.0000
  C   C539      1.0  0.43778  0.67300  0.91601  1.0000
  H   H637      1.0  0.39433  0.63758  0.17604  1.0000
  H   H638      1.0  0.33389  0.56455  0.61001  1.0000
  H   H639      1.0  0.42016  0.56678  0.43139  1.0000
  H   H640      1.0  0.40144  0.50320  0.94541  1.0000
  H   H641      1.0  0.43316  0.62985  0.51582  1.0000
  C   C540      1.0  0.40412  0.65571  0.09938  1.0000
  H   H642      1.0  0.43149  0.53720  0.09313  1.0000
  C   C541      1.0  0.47072  0.57406  0.96955  1.0000
  C   C542      1.0  0.38422  0.61249  0.12214  1.0000
  Fe  Fe82      1.0  0.47473  0.62381  0.41178  1.0000
  H   H643      1.0  0.41140  0.66450  0.08076  1.0000
  H   H644      1.0  0.38130  0.60533  0.10750  1.0000
  H   H645      1.0  0.42891  0.51029  0.45862  1.0000
  C   C543      1.0  0.33020  0.56723  0.93026  1.0000
  H   H646      1.0  0.44951  0.55087  0.95497  1.0000
  C   C544      1.0  0.39816  0.63265  0.11917  1.0000
  C   C545      1.0  0.39409  0.62314  0.10076  1.0000
  H   H647      1.0  0.39830  0.62368  0.06982  1.0000
  C   C546      1.0  0.48571  0.51993  0.85759  1.0000
  H   H648      1.0  0.40657  0.64515  0.03809  1.0000
  H   H649      1.0  0.44617  0.64580  0.53653  1.0000
  N   N36       1.0  0.40858  0.64408  0.09764  1.0000
  C   C547      1.0  0.44635  0.54612  0.49142  1.0000
  C   C548      1.0  0.46608  0.56405  0.95515  1.0000
  C   C549      1.0  0.41951  0.51127  0.98410  1.0000
  S   S162      1.0  0.47830  0.52433  0.49884  1.0000
  H   H650      1.0  0.42146  0.65376  0.03910  1.0000
  C   C550      1.0  0.41386  0.64495  0.05460  1.0000
  H   H651      1.0  0.42232  0.63517  0.11680  1.0000
  S   S163      1.0  0.47000  0.60784  0.46803  1.0000
  C   C551      1.0  0.47161  0.62257  0.24952  1.0000
  C   C552      1.0  0.47516  0.62372  0.31410  1.0000
  C   C553      1.0  0.41893  0.64392  0.11695  1.0000
  C   C554      1.0  0.34282  0.58284  0.30978  1.0000
  H   H652      1.0  0.48078  0.57802  0.96201  1.0000
  H   H653      1.0  0.41609  0.64429  0.14862  1.0000
  H   H654      1.0  0.41820  0.63695  0.05097  1.0000
  C   C555      1.0  0.46071  0.53817  0.03820  1.0000
  H   H655      1.0  0.39165  0.53985  0.95783  1.0000
  H   H656      1.0  0.39991  0.70288  0.86828  1.0000
  C   C556      1.0  0.34335  0.68359  0.99749  1.0000
  C   C557      1.0  0.41286  0.51111  0.50277  1.0000
  H   H657      1.0  0.40132  0.69398  0.91469  1.0000
  H   H658      1.0  0.40070  0.68673  0.87404  1.0000
  H   H659      1.0  0.42714  0.65218  0.10079  1.0000
  Fe  Fe83      1.0  0.45386  0.73661  0.88416  1.0000
  C   C558      1.0  0.44824  0.56869  0.48169  1.0000
  H   H660      1.0  0.37996  0.59627  0.98676  1.0000
  C   C559      1.0  0.40447  0.69560  0.88152  1.0000
  H   H661      1.0  0.41670  0.70877  0.80763  1.0000
  H   H662      1.0  0.41755  0.71917  0.86365  1.0000
  C   C560      1.0  0.33849  0.62040  0.47548  1.0000
  C   C561      1.0  0.47102  0.63486  0.31056  1.0000
  H   H663      1.0  0.42010  0.71053  0.90881  1.0000
  S   S164      1.0  0.43763  0.50534  0.87264  1.0000
  C   C562      1.0  0.44447  0.68452  0.88815  1.0000
  N   N37       1.0  0.41836  0.69979  0.86615  1.0000
  C   C563      1.0  0.42172  0.70214  0.82184  1.0000
  H   H664      1.0  0.41937  0.69315  0.81332  1.0000
  H   H665      1.0  0.40819  0.67559  0.92230  1.0000
  H   H666      1.0  0.33655  0.60061  0.47806  1.0000
  S   S165      1.0  0.44758  0.50345  0.57427  1.0000
  H   H667      1.0  0.34171  0.66637  0.15595  1.0000
  C   C564      1.0  0.33211  0.62986  0.47944  1.0000
  H   H668      1.0  0.39716  0.54878  0.90620  1.0000
  H   H669      1.0  0.47476  0.50903  0.98512  1.0000
  H   H670      1.0  0.37683  0.65231  0.16327  1.0000
  H   H671      1.0  0.40372  0.50545  0.03685  1.0000
  H   H672      1.0  0.35762  0.66417  0.23721  1.0000
  H   H673      1.0  0.43256  0.71627  0.86311  1.0000
  H   H674      1.0  0.43189  0.70654  0.80742  1.0000
  C   C565      1.0  0.39768  0.50888  0.92424  1.0000
  N   N38       1.0  0.34303  0.58235  0.35171  1.0000
  C   C566      1.0  0.42484  0.69047  0.88354  1.0000
  C   C567      1.0  0.41829  0.67853  0.91159  1.0000
  C   C568      1.0  0.37846  0.65298  0.25772  1.0000
  C   C569      1.0  0.42473  0.67002  0.92765  1.0000
  H   H675      1.0  0.37222  0.69823  0.06380  1.0000
  C   C570      1.0  0.39940  0.50744  0.88561  1.0000
  C   C571      1.0  0.37479  0.54165  0.88995  1.0000
  H   H676      1.0  0.36355  0.53500  0.96670  1.0000
  C   C572      1.0  0.46787  0.63395  0.24541  1.0000
  H   H677      1.0  0.43512  0.54042  0.43469  1.0000
  C   C573      1.0  0.34752  0.72067  0.46715  1.0000
  C   C574      1.0  0.48722  0.55800  0.79578  1.0000
  C   C575      1.0  0.36160  0.68772  0.12428  1.0000
  H   H678      1.0  0.38421  0.55178  0.93950  1.0000
  C   C576      1.0  0.40985  0.51337  0.01249  1.0000
  C   C577      1.0  0.38974  0.72318  0.47062  1.0000
  C   C578      1.0  0.39459  0.51470  0.85831  1.0000
  H   H679      1.0  0.33618  0.60041  0.39165  1.0000
  H   H680      1.0  0.43622  0.57484  0.42126  1.0000
  H   H681      1.0  0.39601  0.51368  0.53925  1.0000
  H   H682      1.0  0.46781  0.50548  0.61771  1.0000
  C   C579      1.0  0.36751  0.64367  0.27984  1.0000
  H   H683      1.0  0.42248  0.52137  0.40060  1.0000
  H   H684      1.0  0.37650  0.72929  0.50928  1.0000
  S   S166      1.0  0.32925  0.74192  0.49326  1.0000
  H   H685      1.0  0.33731  0.63945  0.47560  1.0000
  H   H686      1.0  0.46487  0.70986  0.87079  1.0000
  H   H687      1.0  0.41145  0.54630  0.47963  1.0000
  C   C580      1.0  0.36177  0.68233  0.16426  1.0000
  H   H688      1.0  0.47787  0.53403  0.65383  1.0000
  H   H689      1.0  0.34232  0.56231  0.37110  1.0000
  Fe  Fe84      1.0  0.35586  0.64012  0.12854  1.0000
  C   C581      1.0  0.42814  0.56796  0.44502  1.0000
  C   C582      1.0  0.45890  0.72928  0.75118  1.0000
  H   H690      1.0  0.47004  0.55921  0.52581  1.0000
  C   C583      1.0  0.43815  0.69317  0.87215  1.0000
  C   C584      1.0  0.33165  0.60797  0.48107  1.0000
  H   H691      1.0  0.45651  0.50228  0.70373  1.0000
  H   H692      1.0  0.34527  0.69267  0.20305  1.0000
  C   C585      1.0  0.43379  0.55016  0.42562  1.0000
  H   H693      1.0  0.39597  0.51352  0.82826  1.0000
  C   C586      1.0  0.32443  0.68793  0.03308  1.0000
  S   S167      1.0  0.36437  0.66059  0.09549  1.0000
  C   C587      1.0  0.45131  0.54114  0.06488  1.0000
  H   H694      1.0  0.48670  0.69661  0.81394  1.0000
  H   H695      1.0  0.48391  0.50713  0.61414  1.0000
  H   H696      1.0  0.44240  0.55611  0.40194  1.0000
  H   H697      1.0  0.33720  0.70308  0.53835  1.0000
  H   H698      1.0  0.45956  0.53855  0.51893  1.0000
  H   H699      1.0  0.42588  0.54932  0.41152  1.0000
  C   C588      1.0  0.41989  0.54724  0.49113  1.0000
  H   H700      1.0  0.36793  0.58318  0.98852  1.0000
  H   H701      1.0  0.39034  0.51852  0.96578  1.0000
  Fe  Fe85      1.0  0.38021  0.65964  0.34708  1.0000
  S   S168      1.0  0.35409  0.63182  0.19428  1.0000
  C   C589      1.0  0.33453  0.68239  0.03361  1.0000
  N   N39       1.0  0.37971  0.53465  0.92127  1.0000
  N   N40       1.0  0.43118  0.55571  0.45998  1.0000
  C   C590      1.0  0.36891  0.52820  0.95725  1.0000
  H   H702      1.0  0.33501  0.68848  0.80940  1.0000
  H   H703      1.0  0.38133  0.61228  0.31851  1.0000
  H   H704      1.0  0.36784  0.53508  0.88132  1.0000
  Fe  Fe86      1.0  0.48072  0.62191  0.49225  1.0000
  H   H705      1.0  0.35756  0.73545  0.50748  1.0000
  S   S169      1.0  0.41645  0.50211  0.54434  1.0000
  H   H706      1.0  0.34197  0.59852  0.99818  1.0000
  H   H707      1.0  0.41778  0.55093  0.51790  1.0000
  H   H708      1.0  0.33789  0.68586  0.17015  1.0000
  H   H709      1.0  0.37351  0.59653  0.94485  1.0000
  H   H710      1.0  0.44551  0.57745  0.47250  1.0000
  H   H711      1.0  0.44192  0.53682  0.48990  1.0000
  H   H712      1.0  0.42102  0.53747  0.50173  1.0000
  H   H713      1.0  0.36982  0.54853  0.90081  1.0000
  N   N41       1.0  0.35393  0.71676  0.49835  1.0000
  H   H714      1.0  0.47022  0.54340  0.03395  1.0000
  H   H715      1.0  0.34330  0.61116  0.55322  1.0000
  H   H716      1.0  0.42555  0.73469  0.76407  1.0000
  H   H717      1.0  0.38943  0.63723  0.98763  1.0000
  C   C591      1.0  0.45640  0.54698  0.50844  1.0000
  H   H718      1.0  0.46447  0.53713  0.93726  1.0000
  C   C592      1.0  0.34854  0.57180  0.36688  1.0000
  C   C593      1.0  0.45775  0.52880  0.01797  1.0000
  H   H719      1.0  0.42582  0.52074  0.05937  1.0000
  C   C594      1.0  0.37752  0.72370  0.48819  1.0000
  C   C595      1.0  0.38141  0.63284  0.97912  1.0000
  C   C596      1.0  0.36704  0.71688  0.47916  1.0000
  H   H720      1.0  0.39733  0.74370  0.55388  1.0000
  C   C597      1.0  0.37561  0.64040  0.95629  1.0000
  S   S170      1.0  0.46635  0.61321  0.14558  1.0000
  H   H721      1.0  0.33224  0.67885  0.22286  1.0000
  C   C598      1.0  0.46232  0.55860  0.51230  1.0000
  H   H722      1.0  0.47377  0.68862  0.94396  1.0000
  S   S171      1.0  0.45013  0.50106  0.48200  1.0000
  N   N42       1.0  0.46742  0.52536  0.98953  1.0000
  S   S172      1.0  0.47389  0.52301  0.83522  1.0000
  H   H723      1.0  0.48188  0.67396  0.82109  1.0000
  C   C599      1.0  0.34902  0.59430  0.55141  1.0000
  C   C600      1.0  0.32800  0.61737  0.00618  1.0000
  C   C601      1.0  0.46475  0.52717  0.94985  1.0000
  C   C602      1.0  0.48033  0.53303  0.98295  1.0000
  C   C603      1.0  0.38809  0.52348  0.86942  1.0000
  S   S173      1.0  0.35494  0.62375  0.46589  1.0000
  H   H724      1.0  0.48120  0.54336  0.97109  1.0000
  C   C604      1.0  0.37141  0.60959  0.33376  1.0000
  H   H725      1.0  0.35183  0.62976  0.27742  1.0000
  H   H726      1.0  0.38354  0.70330  0.41384  1.0000
  C   C605      1.0  0.36015  0.63717  0.26004  1.0000
  C   C606      1.0  0.34590  0.60256  0.37469  1.0000
  C   C607      1.0  0.39192  0.71602  0.44344  1.0000
  H   H727      1.0  0.48354  0.71615  0.81405  1.0000
  Fe  Fe87      1.0  0.34720  0.65956  0.07363  1.0000
  C   C608      1.0  0.39125  0.51765  0.93564  1.0000
  C   C609      1.0  0.32944  0.67196  0.51105  1.0000
  C   C610      1.0  0.37372  0.68387  0.17203  1.0000
  C   C611      1.0  0.33814  0.67267  0.47504  1.0000
  C   C612      1.0  0.37264  0.69426  0.09408  1.0000
  H   H728      1.0  0.41542  0.74032  0.52077  1.0000
  H   H729      1.0  0.35653  0.72257  0.55068  1.0000
  H   H730      1.0  0.46281  0.57842  0.50238  1.0000
  C   C613      1.0  0.48091  0.69503  0.87857  1.0000
  H   H731      1.0  0.35076  0.65768  0.18148  1.0000
  C   C614      1.0  0.38419  0.69558  0.10260  1.0000
  H   H732      1.0  0.34654  0.58417  0.99598  1.0000
  S   S174      1.0  0.36776  0.66044  0.45836  1.0000
  C   C615      1.0  0.38624  0.52523  0.90861  1.0000
  C   C616      1.0  0.45825  0.56942  0.49896  1.0000
  H   H733      1.0  0.32553  0.61816  0.56483  1.0000
  H   H734      1.0  0.41876  0.62414  0.33930  1.0000
  S   S175      1.0  0.46160  0.73450  0.82137  1.0000
  H   H735      1.0  0.46822  0.72772  0.74745  1.0000
  H   H736      1.0  0.45566  0.52092  0.95133  1.0000
  C   C617      1.0  0.34199  0.69032  0.96089  1.0000
  C   C618      1.0  0.34719  0.70371  0.52349  1.0000
  C   C619      1.0  0.46745  0.64000  0.27621  1.0000
  H   H737      1.0  0.36479  0.64132  0.31223  1.0000
  N   N43       1.0  0.34991  0.67532  0.19553  1.0000
  Fe  Fe88      1.0  0.47604  0.62279  0.08008  1.0000
  C   C620      1.0  0.36373  0.59850  0.33161  1.0000
  H   H738      1.0  0.36702  0.59673  0.05110  1.0000
  Fe  Fe89      1.0  0.36395  0.67094  0.40220  1.0000
  N   N44       1.0  0.36138  0.59962  0.99590  1.0000
  H   H739      1.0  0.35140  0.59707  0.95170  1.0000
  H   H740      1.0  0.34711  0.69670  0.50567  1.0000
  C   C621      1.0  0.34984  0.59473  0.98482  1.0000
  H   H741      1.0  0.40450  0.50071  0.87681  1.0000
  C   C622      1.0  0.38472  0.69039  0.14148  1.0000
  H   H742      1.0  0.48134  0.59255  0.53428  1.0000
  C   C623      1.0  0.35077  0.59451  0.35267  1.0000
  S   S176      1.0  0.35210  0.68492  0.39721  1.0000
  H   H743      1.0  0.35721  0.59926  0.52627  1.0000
  H   H744      1.0  0.47461  0.59401  0.07600  1.0000
  C   C624      1.0  0.47864  0.52706  0.63587  1.0000
  C   C625      1.0  0.34081  0.60106  0.56712  1.0000
  H   H745      1.0  0.45467  0.51303  0.66135  1.0000
  C   C626      1.0  0.48628  0.56090  0.83252  1.0000
  S   S177      1.0  0.44297  0.73444  0.99900  1.0000
  C   C627      1.0  0.36347  0.64027  0.21797  1.0000
  S   S178      1.0  0.46728  0.74279  0.91884  1.0000
  C   C628      1.0  0.44489  0.52257  0.02664  1.0000
  H   H746      1.0  0.35229  0.58381  0.28989  1.0000
  H   H747      1.0  0.36228  0.52060  0.95128  1.0000
  C   C629      1.0  0.37677  0.61965  0.99170  1.0000
  C   C630      1.0  0.37114  0.59369  0.97823  1.0000
  C   C631      1.0  0.34050  0.68299  0.44144  1.0000
  C   C632      1.0  0.47525  0.66857  0.88550  1.0000
  H   H748      1.0  0.46881  0.50993  0.03553  1.0000
  Fe  Fe90      1.0  0.34719  0.63403  0.05706  1.0000
  H   H749      1.0  0.33743  0.72000  0.48071  1.0000
  H   H750      1.0  0.37485  0.68012  0.20140  1.0000
  C   C633      1.0  0.45331  0.73291  0.78501  1.0000
  C   C634      1.0  0.35847  0.59536  0.04037  1.0000
  H   H751      1.0  0.35214  0.60065  0.05459  1.0000
  H   H752      1.0  0.47529  0.57271  0.06616  1.0000
  H   H753      1.0  0.32780  0.66410  0.53730  1.0000
  C   C635      1.0  0.35159  0.67101  0.23627  1.0000
  H   H754      1.0  0.43703  0.73814  0.81444  1.0000
  H   H755      1.0  0.32547  0.63621  0.91996  1.0000
  C   C636      1.0  0.38187  0.70916  0.43416  1.0000
  C   C637      1.0  0.32746  0.58141  0.61393  1.0000
  H   H756      1.0  0.34889  0.69140  0.93303  1.0000
  H   H757      1.0  0.39758  0.72804  0.47900  1.0000
  H   H758      1.0  0.35133  0.67957  0.99775  1.0000
  C   C638      1.0  0.48301  0.59268  0.05749  1.0000
  C   C639      1.0  0.36613  0.61361  0.98177  1.0000
  C   C640      1.0  0.47304  0.67282  0.91980  1.0000
  H   H759      1.0  0.35191  0.73067  0.44891  1.0000
  S   S179      1.0  0.44023  0.74717  0.90893  1.0000
  C   C641      1.0  0.43558  0.52565  0.05330  1.0000
  H   H760      1.0  0.38248  0.54734  0.86274  1.0000
  H   H761      1.0  0.33366  0.61973  0.60270  1.0000
  H   H762      1.0  0.33702  0.63669  0.97215  1.0000
  H   H763      1.0  0.45823  0.50530  0.00734  1.0000
  C   C642      1.0  0.40194  0.51558  0.50902  1.0000
  H   H764      1.0  0.44272  0.66640  0.92879  1.0000
  H   H765      1.0  0.39273  0.70063  0.07896  1.0000
  S   S180      1.0  0.46434  0.64132  0.20140  1.0000
  H   H766      1.0  0.46610  0.70642  0.92144  1.0000
  H   H767      1.0  0.47251  0.72208  0.88863  1.0000
  S   S181      1.0  0.33583  0.61715  0.04415  1.0000
  C   C643      1.0  0.33545  0.69867  0.80683  1.0000
  H   H768      1.0  0.32800  0.57275  0.90479  1.0000
  H   H769      1.0  0.39373  0.69144  0.14802  1.0000
  H   H770      1.0  0.34275  0.72530  0.53733  1.0000
  C   C644      1.0  0.45249  0.72749  0.72224  1.0000
  S   S182      1.0  0.48069  0.61766  0.35524  1.0000
  H   H771      1.0  0.41950  0.66110  0.94964  1.0000
  H   H772      1.0  0.46460  0.64882  0.27309  1.0000
  H   H773      1.0  0.38468  0.52880  0.84670  1.0000
  H   H774      1.0  0.45909  0.51901  0.70012  1.0000
  N   N45       1.0  0.47394  0.51382  0.66189  1.0000
  S   S183      1.0  0.33798  0.63964  0.11093  1.0000
  H   H775      1.0  0.34305  0.66529  0.47346  1.0000
  C   C645      1.0  0.44133  0.73504  0.78911  1.0000
  H   H776      1.0  0.48730  0.53046  0.96072  1.0000
  H   H777      1.0  0.44191  0.51519  0.01303  1.0000
  H   H778      1.0  0.37911  0.65064  0.94731  1.0000
  H   H779      1.0  0.34769  0.71469  0.44611  1.0000
  H   H780      1.0  0.48650  0.70738  0.93467  1.0000
  H   H781      1.0  0.48335  0.53149  0.01106  1.0000
  H   H782      1.0  0.45383  0.54833  0.07983  1.0000
  C   C646      1.0  0.48343  0.58062  0.05197  1.0000
  H   H783      1.0  0.47313  0.65847  0.88824  1.0000
  C   C647      1.0  0.36961  0.70950  0.45181  1.0000
  C   C648      1.0  0.46050  0.51197  0.68282  1.0000
  H   H784      1.0  0.34351  0.70439  0.78070  1.0000
  C   C649      1.0  0.33024  0.62816  0.97418  1.0000
  C   C650      1.0  0.42045  0.51358  0.46366  1.0000
  H   H785      1.0  0.32642  0.66873  0.39294  1.0000
  C   C651      1.0  0.47580  0.68583  0.91648  1.0000
  H   H786      1.0  0.35039  0.57216  0.39612  1.0000
  C   C652      1.0  0.47116  0.71185  0.88988  1.0000
  H   H787      1.0  0.47101  0.63975  0.33367  1.0000
  H   H788      1.0  0.35168  0.70044  0.54743  1.0000
  H   H789      1.0  0.33767  0.70045  0.83448  1.0000
  H   H790      1.0  0.47251  0.56040  0.93594  1.0000
  C   C653      1.0  0.33383  0.69230  0.44335  1.0000
  H   H791      1.0  0.35581  0.67915  0.24640  1.0000
  H   H792      1.0  0.41856  0.74667  0.46749  1.0000
  H   H793      1.0  0.36215  0.70371  0.44430  1.0000
  H   H794      1.0  0.36066  0.64069  0.92810  1.0000
  C   C654      1.0  0.48462  0.50762  0.88056  1.0000
  H   H795      1.0  0.46789  0.50958  0.74638  1.0000
  S   S184      1.0  0.33561  0.67362  0.07967  1.0000
  H   H796      1.0  0.47828  0.49963  0.87733  1.0000
  H   H797      1.0  0.34252  0.66592  0.25919  1.0000
  H   H798      1.0  0.33544  0.65810  0.20804  1.0000
  C   C655      1.0  0.36523  0.63479  0.94559  1.0000
  H   H799      1.0  0.38496  0.50219  0.41197  1.0000
  H   H800      1.0  0.47725  0.55825  0.85471  1.0000
  H   H801      1.0  0.40138  0.71540  0.43067  1.0000
  C   C656      1.0  0.47743  0.50979  0.73173  1.0000
  H   H802      1.0  0.39004  0.52561  0.48140  1.0000
  H   H803      1.0  0.33673  0.57400  0.30808  1.0000
  C   C657      1.0  0.32464  0.71523  0.80550  1.0000
  H   H804      1.0  0.35365  0.58508  0.05255  1.0000
  Fe  Fe91      1.0  0.45082  0.73967  0.54322  1.0000
  H   H805      1.0  0.33930  0.59103  0.29655  1.0000
  H   H806      1.0  0.37234  0.62566  0.35817  1.0000
  C   C658      1.0  0.33177  0.69576  0.96044  1.0000
  S   S185      1.0  0.33010  0.70417  0.91464  1.0000
  H   H807      1.0  0.37534  0.74404  0.56172  1.0000
  H   H808      1.0  0.32937  0.57851  0.40885  1.0000
  C   C659      1.0  0.36638  0.61713  0.35616  1.0000
  C   C660      1.0  0.48185  0.51157  0.68960  1.0000
  H   H809      1.0  0.47877  0.55279  0.79149  1.0000
  H   H810      1.0  0.47851  0.60888  0.28635  1.0000
  C   C661      1.0  0.48019  0.67732  0.84774  1.0000
  C   C662      1.0  0.32971  0.59479  0.59886  1.0000
  H   H811      1.0  0.48545  0.57148  0.55875  1.0000
  H   H812      1.0  0.48206  0.56667  0.42172  1.0000
  N   N46       1.0  0.48327  0.70875  0.87600  1.0000
  H   H813      1.0  0.35291  0.57600  0.55428  1.0000
  C   C663      1.0  0.48539  0.50822  0.75653  1.0000
  H   H814      1.0  0.32774  0.60152  0.66685  1.0000
  H   H815      1.0  0.33250  0.72212  0.78108  1.0000
  H   H816      1.0  0.32485  0.65192  0.97230  1.0000
  H   H817      1.0  0.39985  0.49876  0.35539  1.0000
  H   H818      1.0  0.32638  0.71624  0.83445  1.0000
  H   H819      1.0  0.32487  0.58650  0.36597  1.0000
  C   C664      1.0  0.32458  0.61556  0.59768  1.0000
  C   C665      1.0  0.35363  0.61373  0.37600  1.0000
  H   H820      1.0  0.48996  0.50321  0.50910  1.0000
  S   S186      1.0  0.48665  0.63756  0.43416  1.0000
  C   C666      1.0  0.32530  0.69167  0.47937  1.0000
  H   H821      1.0  0.48863  0.60374  0.17922  1.0000
  H   H822      1.0  0.38920  0.74247  0.98721  1.0000
  H   H823      1.0  0.32374  0.66644  0.98495  1.0000
  H   H824      1.0  0.32429  0.56995  0.37620  1.0000
  H   H825      1.0  0.48794  0.53869  0.75697  1.0000
  C   C667      1.0  0.32378  0.62783  0.94456  1.0000
  C   C668      1.0  0.48954  0.71717  0.83471  1.0000
  C   C669      1.0  0.49019  0.56177  0.70889  1.0000
  H   H826      1.0  0.40916  0.74745  0.00163  1.0000
  H   H827      1.0  0.48952  0.55277  0.47091  1.0000
  C   C670      1.0  0.48995  0.59195  0.54225  1.0000
  C   C671      1.0  0.48970  0.57074  0.43251  1.0000
  H   H828      1.0  0.36251  0.79789  0.38504  1.0000
  C   C672      1.0  0.34929  0.77028  0.97595  1.0000
  C   C673      1.0  0.38759  0.77062  0.00704  1.0000
  Fe  Fe92      1.0  0.47216  0.84193  0.47378  1.0000
  H   H829      1.0  0.48637  0.88747  0.99390  1.0000
  S   S187      1.0  0.45187  0.83873  0.50572  1.0000
  S   S188      1.0  0.48374  0.86064  0.43271  1.0000
  C   C674      1.0  0.48256  0.90016  0.66004  1.0000
  C   C675      1.0  0.38855  0.76989  0.48154  1.0000
  Fe  Fe93      1.0  0.45290  0.75198  0.94773  1.0000
  H   H830      1.0  0.47435  0.97210  0.01971  1.0000
  C   C676      1.0  0.49008  0.95665  0.47780  1.0000
  Fe  Fe94      1.0  0.40342  0.81343  0.41524  1.0000
  S   S189      1.0  0.39017  0.82028  0.45788  1.0000
  S   S190      1.0  0.41856  0.80430  0.43028  1.0000
  Fe  Fe95      1.0  0.39303  0.82246  0.34431  1.0000
  C   C677      1.0  0.45429  0.99382  0.37683  1.0000
  S   S191      1.0  0.39664  0.82081  0.27998  1.0000
  Fe  Fe96      1.0  0.39525  0.83804  0.40645  1.0000
  S   S192      1.0  0.40188  0.85887  0.40746  1.0000
  C   C678      1.0  0.35026  0.78041  0.85771  1.0000
  S   S193      1.0  0.40912  0.83130  0.36510  1.0000
  S   S194      1.0  0.38870  0.80382  0.39130  1.0000
  Fe  Fe97      1.0  0.43676  0.90892  0.52224  1.0000
  S   S195      1.0  0.44231  0.90700  0.58039  1.0000
  S   S196      1.0  0.42768  0.88930  0.51531  1.0000
  Fe  Fe98      1.0  0.45105  0.93755  0.49203  1.0000
  S   S197      1.0  0.45758  0.93730  0.54699  1.0000
  Fe  Fe99      1.0  0.46124  0.91860  0.54230  1.0000
  S   S198      1.0  0.47867  0.91279  0.55048  1.0000
  Fe  Fe100     1.0  0.43817  0.92579  0.58160  1.0000
  S   S199      1.0  0.42935  0.92911  0.64155  1.0000
  S   S200      1.0  0.45632  0.91949  0.48440  1.0000
  S   S201      1.0  0.43089  0.92716  0.52647  1.0000
  C   C679      1.0  0.40349  0.75421  0.00377  1.0000
  S   S202      1.0  0.47727  0.83705  0.04675  1.0000
  H   H831      1.0  0.45069  0.99358  0.40895  1.0000
  H   H832      1.0  0.43090  0.74863  0.49158  1.0000
  S   S203      1.0  0.48236  0.84898  0.12137  1.0000
  H   H833      1.0  0.42272  0.78923  0.99671  1.0000
  Fe  Fe101     1.0  0.46718  0.83520  0.11054  1.0000
  S   S204      1.0  0.44715  0.83615  0.13051  1.0000
  H   H834      1.0  0.37506  0.75702  0.99050  1.0000
  S   S205      1.0  0.47330  0.81801  0.13615  1.0000
  C   C680      1.0  0.37926  0.76057  0.51202  1.0000
  H   H835      1.0  0.43756  0.86896  0.55498  1.0000
  H   H836      1.0  0.35829  0.76802  0.96912  1.0000
  C   C681      1.0  0.45990  0.87544  0.64104  1.0000
  Fe  Fe102     1.0  0.39660  0.81188  0.04252  1.0000
  S   S206      1.0  0.39122  0.81535  0.98496  1.0000
  S   S207      1.0  0.41367  0.80466  0.04767  1.0000
  Fe  Fe103     1.0  0.38839  0.83390  0.99588  1.0000
  S   S208      1.0  0.39799  0.85206  0.94485  1.0000
  C   C682      1.0  0.48078  0.99107  0.41803  1.0000
  S   S209      1.0  0.39543  0.83097  0.05027  1.0000
  H   H837      1.0  0.46179  0.86356  0.31543  1.0000
  Fe  Fe104     1.0  0.45434  0.93431  0.83233  1.0000
  S   S210      1.0  0.43912  0.94224  0.86276  1.0000
  H   H838      1.0  0.41197  0.90424  0.68794  1.0000
  Fe  Fe105     1.0  0.45992  0.92408  0.91198  1.0000
  S   S211      1.0  0.44503  0.93095  0.94801  1.0000
  S   S212      1.0  0.47211  0.91354  0.94039  1.0000
  Fe  Fe106     1.0  0.43336  0.92335  0.91063  1.0000
  S   S213      1.0  0.41357  0.91048  0.93947  1.0000
  Fe  Fe107     1.0  0.45257  0.94907  0.89737  1.0000
  S   S214      1.0  0.44795  0.91532  0.87820  1.0000
  S   S215      1.0  0.46807  0.94227  0.86327  1.0000
  S   S216      1.0  0.45506  0.76019  0.50581  1.0000
  S   S217      1.0  0.45596  0.77232  0.95463  1.0000
  H   H839      1.0  0.36563  0.79553  0.28362  1.0000
  S   S218      1.0  0.36800  0.82523  0.03009  1.0000
  C   C683      1.0  0.39908  0.77373  0.01562  1.0000
  C   C684      1.0  0.41315  0.88671  0.72523  1.0000
  C   C685      1.0  0.47651  0.93383  0.97095  1.0000
  H   H840      1.0  0.44565  0.81584  0.37316  1.0000
  C   C686      1.0  0.34905  0.76317  0.46382  1.0000
  H   H841      1.0  0.46811  0.93584  0.96436  1.0000
  C   C687      1.0  0.40264  0.86766  0.94927  1.0000
  C   C688      1.0  0.39406  0.87344  0.96872  1.0000
  C   C689      1.0  0.39757  0.88651  0.96603  1.0000
  C   C690      1.0  0.40975  0.89388  0.94459  1.0000
  C   C691      1.0  0.41838  0.88799  0.92620  1.0000
  C   C692      1.0  0.41478  0.87504  0.92789  1.0000
  H   H842      1.0  0.38454  0.86797  0.98425  1.0000
  H   H843      1.0  0.39075  0.89096  0.98014  1.0000
  H   H844      1.0  0.42776  0.89345  0.90969  1.0000
  H   H845      1.0  0.42141  0.87074  0.91208  1.0000
  C   C693      1.0  0.47692  0.79391  0.02783  1.0000
  C   C694      1.0  0.46948  0.79945  0.00604  1.0000
  C   C695      1.0  0.46324  0.79273  0.98376  1.0000
  C   C696      1.0  0.46409  0.78028  0.98354  1.0000
  C   C697      1.0  0.47135  0.77466  0.00592  1.0000
  C   C698      1.0  0.47780  0.78148  0.02756  1.0000
  H   H846      1.0  0.46874  0.80901  0.00560  1.0000
  H   H847      1.0  0.45781  0.79729  0.96622  1.0000
  H   H848      1.0  0.47217  0.76515  0.00605  1.0000
  H   H849      1.0  0.46009  0.88228  0.65845  1.0000
  C   C699      1.0  0.43768  0.82658  0.11002  1.0000
  C   C700      1.0  0.42493  0.82632  0.11707  1.0000
  C   C701      1.0  0.41748  0.81946  0.09839  1.0000
  C   C702      1.0  0.42272  0.81273  0.07294  1.0000
  C   C703      1.0  0.43535  0.81256  0.06728  1.0000
  C   C704      1.0  0.44283  0.81950  0.08571  1.0000
  H   H850      1.0  0.42083  0.83149  0.13672  1.0000
  H   H851      1.0  0.40767  0.81925  0.10394  1.0000
  H   H852      1.0  0.43944  0.80726  0.04797  1.0000
  H   H853      1.0  0.45260  0.81940  0.08078  1.0000
  C   C705      1.0  0.43847  0.93089  0.67572  1.0000
  C   C706      1.0  0.43345  0.93420  0.71082  1.0000
  C   C707      1.0  0.44030  0.93524  0.73920  1.0000
  C   C708      1.0  0.45236  0.93320  0.73232  1.0000
  H   H854      1.0  0.43587  0.76234  0.03006  1.0000
  C   C709      1.0  0.45057  0.92897  0.66878  1.0000
  H   H855      1.0  0.42427  0.93612  0.71574  1.0000
  H   H856      1.0  0.43637  0.93788  0.76591  1.0000
  H   H857      1.0  0.47012  0.84143  0.26315  1.0000
  H   H858      1.0  0.42598  0.77038  0.43682  1.0000
  H   H859      1.0  0.42932  0.78048  0.96411  1.0000
  C   C710      1.0  0.48854  0.92461  0.56225  1.0000
  C   C711      1.0  0.35053  0.81408  0.35569  1.0000
  H   H860      1.0  0.47378  0.93197  0.59108  1.0000
  C   C712      1.0  0.48373  0.93293  0.58200  1.0000
  H   H861      1.0  0.35394  0.75720  0.44946  1.0000
  C   C713      1.0  0.40494  0.76059  0.50262  1.0000
  C   C714      1.0  0.47270  0.88804  0.37715  1.0000
  C   C715      1.0  0.33873  0.80603  0.29520  1.0000
  C   C716      1.0  0.42175  0.90693  0.83085  1.0000
  C   C717      1.0  0.46592  0.97012  0.44492  1.0000
  H   H862      1.0  0.43968  0.90454  0.04498  1.0000
  C   C718      1.0  0.40885  0.86706  0.43847  1.0000
  C   C719      1.0  0.41213  0.88046  0.42716  1.0000
  C   C720      1.0  0.41782  0.88741  0.45013  1.0000
  C   C721      1.0  0.42031  0.88107  0.48509  1.0000
  C   C722      1.0  0.41708  0.86766  0.49632  1.0000
  C   C723      1.0  0.41144  0.86071  0.47325  1.0000
  H   H863      1.0  0.41020  0.88554  0.40042  1.0000
  H   H864      1.0  0.42017  0.89768  0.44089  1.0000
  H   H865      1.0  0.41882  0.86256  0.52336  1.0000
  H   H866      1.0  0.40898  0.85044  0.48265  1.0000
  H   H867      1.0  0.48059  0.95034  0.99225  1.0000
  H   H868      1.0  0.43640  0.78409  0.00195  1.0000
  C   C724      1.0  0.47717  0.77301  0.51724  1.0000
  C   C725      1.0  0.46662  0.77377  0.50314  1.0000
  C   C726      1.0  0.46521  0.78575  0.48509  1.0000
  C   C727      1.0  0.47427  0.79686  0.48060  1.0000
  C   C728      1.0  0.32805  0.78783  0.88018  1.0000
  H   H869      1.0  0.47845  0.76383  0.53083  1.0000
  H   H870      1.0  0.45711  0.78649  0.47413  1.0000
  H   H871      1.0  0.47295  0.80589  0.46661  1.0000
  H   H872      1.0  0.38141  0.77700  0.00821  1.0000
  H   H873      1.0  0.36278  0.79680  0.21747  1.0000
  C   C729      1.0  0.34605  0.80344  0.22878  1.0000
  H   H874      1.0  0.45898  0.98980  0.50298  1.0000
  H   H875      1.0  0.43096  0.76338  0.53654  1.0000
  C   C730      1.0  0.38258  0.75119  0.53769  1.0000
  H   H876      1.0  0.38596  0.77731  0.46196  1.0000
  C   C731      1.0  0.48045  0.92326  0.96312  1.0000
  H   H877      1.0  0.44615  0.89402  0.42771  1.0000
  C   C732      1.0  0.48498  0.79622  0.49372  1.0000
  H   H878      1.0  0.46568  0.83184  0.33610  1.0000
  C   C733      1.0  0.44216  0.82826  0.48861  1.0000
  C   C734      1.0  0.43062  0.83045  0.48508  1.0000
  C   C735      1.0  0.42338  0.82313  0.46707  1.0000
  C   C736      1.0  0.42739  0.81323  0.45406  1.0000
  C   C737      1.0  0.43869  0.81068  0.45919  1.0000
  C   C738      1.0  0.44614  0.81829  0.47600  1.0000
  H   H879      1.0  0.42746  0.83811  0.49505  1.0000
  H   H880      1.0  0.41473  0.82523  0.46318  1.0000
  H   H881      1.0  0.44186  0.80301  0.44938  1.0000
  H   H882      1.0  0.45488  0.81632  0.47957  1.0000
  C   C739      1.0  0.41322  0.88021  0.76348  1.0000
  C   C740      1.0  0.35598  0.79919  0.23957  1.0000
  S   S219      1.0  0.37711  0.80170  0.08058  1.0000
  C   C741      1.0  0.39963  0.89664  0.85774  1.0000
  C   C742      1.0  0.32604  0.77600  0.99274  1.0000
  H   H883      1.0  0.41086  0.76177  0.08797  1.0000
  C   C743      1.0  0.42687  0.75943  0.02256  1.0000
  C   C744      1.0  0.47650  0.97859  0.41580  1.0000
  C   C745      1.0  0.45873  0.85771  0.59671  1.0000
  C   C746      1.0  0.45936  0.85412  0.63638  1.0000
  C   C747      1.0  0.45990  0.86296  0.65855  1.0000
  H   H884      1.0  0.45798  0.85044  0.58102  1.0000
  H   H885      1.0  0.45920  0.84436  0.65012  1.0000
  H   H886      1.0  0.46017  0.86010  0.68951  1.0000
  C   C748      1.0  0.43524  0.85439  0.39281  1.0000
  C   C749      1.0  0.45503  0.84930  0.39155  1.0000
  H   H887      1.0  0.42999  0.86101  0.37979  1.0000
  H   H888      1.0  0.43154  0.84509  0.38766  1.0000
  H   H889      1.0  0.43264  0.85286  0.42591  1.0000
  H   H890      1.0  0.44740  0.85213  0.32392  1.0000
  H   H891      1.0  0.46503  0.85102  0.37467  1.0000
  H   H892      1.0  0.45478  0.84896  0.42318  1.0000
  N   N47       1.0  0.43295  0.81697  0.25529  1.0000
  C   C750      1.0  0.42153  0.80700  0.28044  1.0000
  C   C751      1.0  0.42882  0.82800  0.23553  1.0000
  C   C752      1.0  0.43949  0.81176  0.22392  1.0000
  C   C753      1.0  0.44160  0.82110  0.27834  1.0000
  C   C754      1.0  0.43908  0.81607  0.32064  1.0000
  C   C755      1.0  0.45301  0.83047  0.25837  1.0000
  C   C756      1.0  0.44768  0.81998  0.34107  1.0000
  C   C757      1.0  0.46145  0.83436  0.27922  1.0000
  C   C758      1.0  0.45890  0.82902  0.32036  1.0000
  H   H893      1.0  0.41595  0.81039  0.30411  1.0000
  H   H894      1.0  0.41512  0.80429  0.26231  1.0000
  H   H895      1.0  0.42390  0.79820  0.29502  1.0000
  H   H896      1.0  0.42406  0.83235  0.25806  1.0000
  H   H897      1.0  0.42207  0.82522  0.21854  1.0000
  H   H898      1.0  0.43673  0.83553  0.21342  1.0000
  H   H899      1.0  0.44289  0.80353  0.23740  1.0000
  H   H900      1.0  0.43326  0.80863  0.20576  1.0000
  H   H901      1.0  0.44777  0.81888  0.20201  1.0000
  H   H902      1.0  0.43059  0.80906  0.33877  1.0000
  H   H903      1.0  0.45557  0.83476  0.22627  1.0000
  H   H904      1.0  0.47731  0.87562  0.50977  1.0000
  H   H905      1.0  0.45948  0.88900  0.58965  1.0000
  H   H906      1.0  0.46776  0.89354  0.51933  1.0000
  H   H907      1.0  0.40787  0.77754  0.45276  1.0000
  C   C759      1.0  0.40737  0.76559  0.01450  1.0000
  C   C760      1.0  0.45864  0.88752  0.51996  1.0000
  C   C761      1.0  0.45879  0.87038  0.57782  1.0000
  H   H908      1.0  0.45087  0.89049  0.53768  1.0000
  H   H909      1.0  0.47949  0.91775  0.85299  1.0000
  H   H910      1.0  0.36181  0.78818  0.35172  1.0000
  N   N48       1.0  0.44902  0.85921  0.37478  1.0000
  N   N49       1.0  0.45773  0.87383  0.53620  1.0000
  C   C762      1.0  0.46790  0.87064  0.50884  1.0000
  C   C763      1.0  0.45944  0.87918  0.60124  1.0000
  H   H911      1.0  0.45776  0.88978  0.48876  1.0000
  H   H912      1.0  0.46744  0.87340  0.47720  1.0000
  H   H913      1.0  0.46736  0.86032  0.51639  1.0000
  H   H914      1.0  0.36472  0.77977  0.43867  1.0000
  H   H915      1.0  0.48630  0.97371  0.48753  1.0000
  C   C764      1.0  0.44543  0.86667  0.53498  1.0000
  H   H916      1.0  0.44416  0.85624  0.54483  1.0000
  H   H917      1.0  0.41238  0.88076  0.82342  1.0000
  C   C765      1.0  0.34815  0.78062  0.99218  1.0000
  H   H918      1.0  0.46775  0.90889  0.68006  1.0000
  H   H919      1.0  0.33149  0.78480  0.51331  1.0000
  H   H920      1.0  0.46189  0.81589  0.54367  1.0000
  H   H921      1.0  0.45456  0.92649  0.64184  1.0000
  C   C766      1.0  0.45212  0.88917  0.41147  1.0000
  H   H922      1.0  0.35201  0.81408  0.38574  1.0000
  H   H923      1.0  0.45436  0.85197  0.04890  1.0000
  H   H924      1.0  0.39964  0.84149  0.11724  1.0000
  H   H925      1.0  0.45010  0.77406  0.69133  1.0000
  H   H926      1.0  0.46076  0.89461  0.74922  1.0000
  H   H927      1.0  0.33525  0.79122  0.01315  1.0000
  H   H928      1.0  0.41862  0.77145  0.54355  1.0000
  C   C767      1.0  0.46830  0.80076  0.57552  1.0000
  C   C768      1.0  0.45157  0.86098  0.33086  1.0000
  H   H929      1.0  0.45022  0.83965  0.39135  1.0000
  C   C769      1.0  0.46744  0.87679  0.36930  1.0000
  C   C770      1.0  0.41701  0.77061  0.06551  1.0000
  H   H930      1.0  0.42947  0.91290  0.80404  1.0000
  S   S220      1.0  0.46145  0.93439  0.76680  1.0000
  H   H931      1.0  0.40538  0.92152  0.83758  1.0000
  C   C771      1.0  0.43539  0.76185  0.65325  1.0000
  C   C772      1.0  0.38613  0.81920  0.17867  1.0000
  H   H932      1.0  0.45373  0.88893  0.97787  1.0000
  H   H933      1.0  0.43518  0.87883  0.96221  1.0000
  N   N50       1.0  0.41941  0.76906  0.02429  1.0000
  C   C773      1.0  0.45505  0.75959  0.61669  1.0000
  C   C774      1.0  0.45374  0.76749  0.67498  1.0000
  H   H934      1.0  0.43143  0.76043  0.62810  1.0000
  C   C775      1.0  0.47251  0.90154  0.68842  1.0000
  H   H935      1.0  0.46414  0.77020  0.66748  1.0000
  H   H936      1.0  0.45678  0.88606  0.06773  1.0000
  H   H937      1.0  0.46323  0.86529  0.08508  1.0000
  H   H938      1.0  0.38501  0.85367  0.14686  1.0000
  C   C776      1.0  0.46852  0.89343  0.72721  1.0000
  H   H939      1.0  0.48308  0.92459  0.78037  1.0000
  C   C777      1.0  0.36174  0.79792  0.35437  1.0000
  C   C778      1.0  0.45987  0.97416  0.47688  1.0000
  N   N51       1.0  0.44911  0.76770  0.63889  1.0000
  H   H940      1.0  0.41543  0.75452  0.56435  1.0000
  H   H941      1.0  0.45192  0.75954  0.58917  1.0000
  H   H942      1.0  0.44754  0.86865  0.31699  1.0000
  C   C779      1.0  0.45753  0.93030  0.69662  1.0000
  S   S221      1.0  0.36173  0.78981  0.00046  1.0000
  C   C780      1.0  0.46497  0.88900  0.04073  1.0000
  C   C781      1.0  0.44994  0.87883  0.99120  1.0000
  C   C782      1.0  0.39334  0.86199  0.13594  1.0000
  C   C783      1.0  0.34929  0.78821  0.88336  1.0000
  H   H943      1.0  0.35830  0.82160  0.33271  1.0000
  C   C784      1.0  0.47094  0.86947  0.05670  1.0000
  C   C785      1.0  0.43934  0.87310  0.98164  1.0000
  C   C786      1.0  0.33893  0.76289  0.96814  1.0000
  H   H944      1.0  0.41219  0.85043  0.12996  1.0000
  H   H945      1.0  0.40141  0.78260  0.02312  1.0000
  H   H946      1.0  0.39782  0.86156  0.16088  1.0000
  H   H947      1.0  0.46334  0.89661  0.01793  1.0000
  H   H948      1.0  0.33870  0.78236  0.37343  1.0000
  H   H949      1.0  0.48760  0.88023  0.60861  1.0000
  C   C787      1.0  0.33649  0.77877  0.49962  1.0000
  C   C788      1.0  0.45241  0.78085  0.61249  1.0000
  N   N52       1.0  0.46708  0.87795  0.02571  1.0000
  N   N53       1.0  0.40200  0.86174  0.09806  1.0000
  C   C789      1.0  0.40718  0.85047  0.10637  1.0000
  C   C790      1.0  0.40643  0.91737  0.81155  1.0000
  H   H950      1.0  0.38982  0.87074  0.13158  1.0000
  Fe  Fe108     1.0  0.48956  0.83192  0.14157  1.0000
  C   C791      1.0  0.38401  0.75937  0.99699  1.0000
  C   C792      1.0  0.44340  0.78667  0.59852  1.0000
  C   C793      1.0  0.46501  0.78822  0.59945  1.0000
  H   H951      1.0  0.42639  0.78072  0.46949  1.0000
  C   C794      1.0  0.45571  0.87166  0.01657  1.0000
  H   H952      1.0  0.39008  0.86823  0.06230  1.0000
  C   C795      1.0  0.41241  0.87340  0.08275  1.0000
  C   C796      1.0  0.39438  0.86010  0.06959  1.0000
  H   H953      1.0  0.38646  0.85140  0.08234  1.0000
  H   H954      1.0  0.42589  0.77307  0.07400  1.0000
  C   C797      1.0  0.41200  0.88612  0.79451  1.0000
  H   H955      1.0  0.39050  0.89403  0.85090  1.0000
  C   C798      1.0  0.32878  0.78010  0.85329  1.0000
  H   H956      1.0  0.48060  0.95302  0.47661  1.0000
  H   H957      1.0  0.42955  0.75822  0.99175  1.0000
  C   C799      1.0  0.38843  0.82259  0.24270  1.0000
  H   H958      1.0  0.41391  0.84999  0.07887  1.0000
  H   H959      1.0  0.47400  0.86166  0.04579  1.0000
  C   C800      1.0  0.42020  0.87663  0.10714  1.0000
  H   H960      1.0  0.41878  0.87060  0.13697  1.0000
  S   S222      1.0  0.47889  0.83123  0.43068  1.0000
  C   C801      1.0  0.43423  0.86004  0.99644  1.0000
  H   H961      1.0  0.42608  0.85561  0.98850  1.0000
  C   C802      1.0  0.35520  0.77599  0.45756  1.0000
  Fe  Fe109     1.0  0.48454  0.82060  0.07281  1.0000
  S   S223      1.0  0.35574  0.80048  0.46533  1.0000
  H   H962      1.0  0.42431  0.89786  0.84118  1.0000
  H   H963      1.0  0.36948  0.76076  0.51597  1.0000
  C   C803      1.0  0.41516  0.88182  0.04370  1.0000
  H   H964      1.0  0.33173  0.80866  0.31576  1.0000
  H   H965      1.0  0.46447  0.96060  0.97753  1.0000
  H   H966      1.0  0.40006  0.85905  0.04110  1.0000
  C   C804      1.0  0.42729  0.77118  0.46636  1.0000
  H   H967      1.0  0.47375  0.87234  0.35282  1.0000
  H   H968      1.0  0.40957  0.91471  0.74071  1.0000
  H   H969      1.0  0.47332  0.89365  0.04878  1.0000
  C   C805      1.0  0.42488  0.89290  0.03050  1.0000
  C   C806      1.0  0.47766  0.88243  0.98860  1.0000
  H   H970      1.0  0.40993  0.88010  0.02276  1.0000
  C   C807      1.0  0.42724  0.78123  0.99553  1.0000
  C   C808      1.0  0.40120  0.76993  0.47669  1.0000
  C   C809      1.0  0.43223  0.89587  0.05538  1.0000
  C   C810      1.0  0.39223  0.81802  0.20929  1.0000
  H   H971      1.0  0.43562  0.89009  0.11304  1.0000
  C   C811      1.0  0.42993  0.88772  0.09362  1.0000
  H   H972      1.0  0.43316  0.75226  0.67463  1.0000
  H   H973      1.0  0.48357  0.97113  0.84809  1.0000
  H   H974      1.0  0.47250  0.78428  0.60701  1.0000
  H   H975      1.0  0.43989  0.80348  0.56355  1.0000
  H   H976      1.0  0.34152  0.77018  0.82365  1.0000
  H   H977      1.0  0.48553  0.96058  0.90833  1.0000
  C   C812      1.0  0.45924  0.80623  0.56287  1.0000
  C   C813      1.0  0.45041  0.85831  0.03063  1.0000
  H   H978      1.0  0.47564  0.88911  0.96405  1.0000
  H   H979      1.0  0.42663  0.89930  0.00080  1.0000
  H   H980      1.0  0.39988  0.81339  0.20717  1.0000
  C   C814      1.0  0.43980  0.85266  0.02071  1.0000
  H   H981      1.0  0.48879  0.87475  0.71938  1.0000
  H   H982      1.0  0.41419  0.88218  0.70107  1.0000
  H   H983      1.0  0.47989  0.87435  0.97720  1.0000
  H   H984      1.0  0.46699  0.92911  0.69044  1.0000
  H   H985      1.0  0.35698  0.79107  0.89572  1.0000
  H   H986      1.0  0.43670  0.87458  0.41494  1.0000
  H   H987      1.0  0.42163  0.91181  0.85504  1.0000
  S   S224      1.0  0.37934  0.83049  0.38144  1.0000
  H   H988      1.0  0.38894  0.81534  0.15370  1.0000
  H   H989      1.0  0.44420  0.86896  0.50415  1.0000
  C   C815      1.0  0.45430  0.87130  0.38269  1.0000
  C   C816      1.0  0.33039  0.76590  0.50627  1.0000
  C   C817      1.0  0.41045  0.90506  0.74883  1.0000
  H   H990      1.0  0.48128  0.97551  0.39108  1.0000
  C   C818      1.0  0.42089  0.76260  0.53784  1.0000
  H   H991      1.0  0.45081  0.75780  0.69642  1.0000
  H   H992      1.0  0.43601  0.84244  0.03146  1.0000
  C   C819      1.0  0.34890  0.78393  0.47515  1.0000
  S   S225      1.0  0.48599  0.83986  0.50931  1.0000
  H   H993      1.0  0.48276  0.89198  0.36678  1.0000
  N   N54       1.0  0.35018  0.80150  0.34786  1.0000
  H   H994      1.0  0.36484  0.83445  0.21583  1.0000
  S   S226      1.0  0.36851  0.82691  0.14220  1.0000
  C   C820      1.0  0.37252  0.82988  0.21390  1.0000
  N   N55       1.0  0.40953  0.90487  0.82132  1.0000
  H   H995      1.0  0.35879  0.77729  0.85003  1.0000
  C   C821      1.0  0.47673  0.99085  0.98142  1.0000
  S   S227      1.0  0.45856  0.96975  0.90076  1.0000
  Fe  Fe110     1.0  0.37549  0.82124  0.08473  1.0000
  C   C822      1.0  0.48887  0.92259  0.83388  1.0000
  C   C823      1.0  0.47304  0.97745  0.99221  1.0000
  C   C824      1.0  0.39520  0.75111  0.53301  1.0000
  C   C825      1.0  0.33638  0.78337  0.00064  1.0000
  C   C826      1.0  0.39196  0.75121  0.99525  1.0000
  H   H996      1.0  0.48163  0.97474  0.78053  1.0000
  H   H997      1.0  0.41236  0.77842  0.06864  1.0000
  C   C827      1.0  0.34892  0.80204  0.30693  1.0000
  Fe  Fe111     1.0  0.37568  0.81202  0.42965  1.0000
  H   H998      1.0  0.41427  0.87055  0.76912  1.0000
  H   H999      1.0  0.43366  0.78176  0.60582  1.0000
  H   H1000     1.0  0.33991  0.79134  0.40918  1.0000
  H   H1001     1.0  0.41398  0.92449  0.78678  1.0000
  H   H1002     1.0  0.43721  0.77097  0.46513  1.0000
  C   C828      1.0  0.34019  0.77638  0.84277  1.0000
  C   C829      1.0  0.46746  0.97085  0.96822  1.0000
  H   H1003     1.0  0.37560  0.83226  0.27015  1.0000
  C   C830      1.0  0.46399  0.98669  0.47869  1.0000
  H   H1004     1.0  0.40197  0.88770  0.87107  1.0000
  H   H1005     1.0  0.46791  0.99625  0.89436  1.0000
  C   C831      1.0  0.37629  0.82520  0.18062  1.0000
  H   H1006     1.0  0.45172  0.96775  0.49948  1.0000
  C   C832      1.0  0.33929  0.79200  0.37795  1.0000
  H   H1007     1.0  0.39815  0.90143  0.88221  1.0000
  H   H1008     1.0  0.46546  0.76291  0.60683  1.0000
  H   H1009     1.0  0.34521  0.80433  0.19849  1.0000
  C   C833      1.0  0.37853  0.82855  0.24490  1.0000
  H   H1010     1.0  0.45266  0.74956  0.63544  1.0000
  H   H1011     1.0  0.47923  0.87457  0.06404  1.0000
  N   N56       1.0  0.41827  0.76080  0.50010  1.0000
  C   C834      1.0  0.41045  0.89871  0.78825  1.0000
  C   C835      1.0  0.41182  0.89911  0.71794  1.0000
  H   H1012     1.0  0.47140  0.87759  0.76796  1.0000
  H   H1013     1.0  0.39746  0.91653  0.80305  1.0000
  C   C836      1.0  0.46935  0.99091  0.92164  1.0000
  C   C837      1.0  0.44677  0.87790  0.40390  1.0000
  C   C838      1.0  0.33660  0.75803  0.48808  1.0000
  C   C839      1.0  0.46505  0.89423  0.39818  1.0000
  S   S228      1.0  0.45982  0.95510  0.43843  1.0000
  C   C840      1.0  0.46552  0.97753  0.93269  1.0000
  C   C841      1.0  0.35750  0.79855  0.27791  1.0000
  H   H1014     1.0  0.46912  0.90300  0.40405  1.0000
  H   H1015     1.0  0.48804  0.94890  0.60575  1.0000
  C   C842      1.0  0.44684  0.79919  0.57412  1.0000
  Fe  Fe112     1.0  0.37127  0.80619  0.02292  1.0000
  H   H1016     1.0  0.43031  0.76765  0.66954  1.0000
  C   C843      1.0  0.48359  0.94208  0.98671  1.0000
  H   H1017     1.0  0.46228  0.98933  0.37501  1.0000
  H   H1018     1.0  0.47802  0.80616  0.56561  1.0000
  H   H1019     1.0  0.34007  0.75507  0.95545  1.0000
  H   H1020     1.0  0.37033  0.80479  0.33286  1.0000
  H   H1021     1.0  0.34166  0.81700  0.35577  1.0000
  H   H1022     1.0  0.42171  0.75006  0.04414  1.0000
  H   H1023     1.0  0.48662  0.93880  0.72102  1.0000
  C   C844      1.0  0.48884  0.89046  0.66935  1.0000
  H   H1024     1.0  0.48355  0.77708  0.04412  1.0000
  C   C845      1.0  0.48453  0.88232  0.70923  1.0000
  S   S229      1.0  0.48573  0.80222  0.05444  1.0000
  C   C846      1.0  0.47452  0.88385  0.73761  1.0000
  C   C847      1.0  0.32720  0.76571  0.97631  1.0000
  H   H1025     1.0  0.44691  0.98753  0.36890  1.0000
  C   C848      1.0  0.33741  0.80679  0.25658  1.0000
  H   H1026     1.0  0.48537  0.90677  0.63057  1.0000
  H   H1027     1.0  0.33024  0.79438  0.37670  1.0000
  C   C849      1.0  0.48634  0.78421  0.51237  1.0000
  C   C850      1.0  0.47434  0.99527  0.44907  1.0000
  C   C851      1.0  0.42083  0.74860  0.49480  1.0000
  H   H1028     1.0  0.32971  0.81010  0.24794  1.0000
  H   H1029     1.0  0.33736  0.79757  0.91573  1.0000
  C   C852      1.0  0.33821  0.79191  0.89453  1.0000
  H   H1030     1.0  0.32844  0.77482  0.78115  1.0000
  C   C853      1.0  0.47490  0.99752  0.94568  1.0000
  H   H1031     1.0  0.48886  0.99750  0.39527  1.0000
  Fe  Fe113     1.0  0.57845  0.13988  0.52706  1.0000
  S   S230      1.0  0.56313  0.12237  0.56063  1.0000
  S   S231      1.0  0.59853  0.13907  0.51970  1.0000
  Fe  Fe114     1.0  0.56050  0.15553  0.50647  1.0000
  S   S232      1.0  0.54352  0.13903  0.53847  1.0000
  S   S233      1.0  0.55939  0.17546  0.47700  1.0000
  Fe  Fe115     1.0  0.55355  0.13571  0.58695  1.0000
  S   S234      1.0  0.54485  0.13103  0.65435  1.0000
  Fe  Fe116     1.0  0.55460  0.12690  0.50904  1.0000
  S   S235      1.0  0.55127  0.11126  0.47632  1.0000
  S   S236      1.0  0.56949  0.15286  0.55668  1.0000
  S   S237      1.0  0.57083  0.14382  0.47381  1.0000
  Fe  Fe117     1.0  0.51081  0.05398  0.40745  1.0000
  S   S238      1.0  0.52631  0.05341  0.35621  1.0000
  S   S239      1.0  0.51043  0.07011  0.43870  1.0000
  C   C854      1.0  0.52182  0.01581  0.18288  1.0000
  S   S240      1.0  0.51045  0.02433  0.36351  1.0000
  H   H1032     1.0  0.59681  0.15769  0.71094  1.0000
  Fe  Fe118     1.0  0.52408  0.03349  0.39190  1.0000
  S   S241      1.0  0.54036  0.02567  0.40128  1.0000
  Fe  Fe119     1.0  0.51128  0.04438  0.33136  1.0000
  S   S242      1.0  0.51605  0.04961  0.26308  1.0000
  S   S243      1.0  0.50953  0.03434  0.44467  1.0000
  C   C855      1.0  0.64915  0.21710  0.00305  1.0000
  Fe  Fe120     1.0  0.61691  0.07242  0.47531  1.0000
  S   S244      1.0  0.60662  0.07563  0.42775  1.0000
  Fe  Fe121     1.0  0.61510  0.06164  0.40192  1.0000
  S   S245      1.0  0.62333  0.06629  0.33430  1.0000
  Fe  Fe122     1.0  0.59159  0.05882  0.46801  1.0000
  S   S246      1.0  0.57169  0.06044  0.48074  1.0000
  S   S247      1.0  0.60108  0.05606  0.51705  1.0000
  C   C856      1.0  0.53422  0.02084  0.18140  1.0000
  H   H1033     1.0  0.56519  0.00617  0.16081  1.0000
  C   C857      1.0  0.57881  0.01391  0.01750  1.0000
  Fe  Fe123     1.0  0.51626  0.02782  0.04255  1.0000
  S   S248      1.0  0.51125  0.02983  0.98447  1.0000
  S   S249      1.0  0.53381  0.02187  0.04813  1.0000
  Fe  Fe124     1.0  0.50529  0.04707  0.99726  1.0000
  S   S250      1.0  0.51221  0.06584  0.94799  1.0000
  C   C858      1.0  0.54371  0.01536  0.16575  1.0000
  C   C859      1.0  0.63326  0.22786  0.47389  1.0000
  S   S251      1.0  0.51196  0.04589  0.05222  1.0000
  H   H1034     1.0  0.62647  0.11696  0.49785  1.0000
  Fe  Fe125     1.0  0.61315  0.06358  0.06945  1.0000
  S   S252      1.0  0.60063  0.06538  0.12587  1.0000
  Fe  Fe126     1.0  0.58516  0.05532  0.10591  1.0000
  S   S253      1.0  0.56650  0.05996  0.11379  1.0000
  Fe  Fe127     1.0  0.60198  0.04573  0.15435  1.0000
  S   S254      1.0  0.59723  0.05483  0.04727  1.0000
  Fe  Fe128     1.0  0.58406  0.14367  0.89303  1.0000
  S   S255      1.0  0.58383  0.16207  0.85325  1.0000
  S   S256      1.0  0.60257  0.13947  0.89406  1.0000
  Fe  Fe129     1.0  0.55594  0.13454  0.92204  1.0000
  S   S257      1.0  0.55334  0.15276  0.88494  1.0000
  S   S258      1.0  0.54185  0.11747  0.96921  1.0000
  Fe  Fe130     1.0  0.56855  0.15051  0.83540  1.0000
  S   S259      1.0  0.57240  0.15581  0.76711  1.0000
  Fe  Fe131     1.0  0.56901  0.16307  0.90545  1.0000
  S   S260      1.0  0.57031  0.18277  0.91689  1.0000
  S   S261      1.0  0.57020  0.13186  0.87131  1.0000
  S   S262      1.0  0.57020  0.14510  0.94654  1.0000
  Fe  Fe132     1.0  0.60143  0.23442  0.02432  1.0000
  S   S263      1.0  0.59806  0.21391  0.01836  1.0000
  S   S264      1.0  0.61290  0.23829  0.06727  1.0000
  H   H1035     1.0  0.59980  0.02464  0.39063  1.0000
  H   H1036     1.0  0.64223  0.20058  0.85644  1.0000
  S   S265      1.0  0.60083  0.22444  0.46705  1.0000
  H   H1037     1.0  0.55663  0.09185  0.55393  1.0000
  C   C860      1.0  0.59038  0.20550  0.98946  1.0000
  C   C861      1.0  0.59108  0.19287  0.99165  1.0000
  C   C862      1.0  0.58504  0.18575  0.96983  1.0000
  C   C863      1.0  0.57809  0.19114  0.94566  1.0000
  C   C864      1.0  0.57757  0.20383  0.94299  1.0000
  C   C865      1.0  0.58368  0.21097  0.96457  1.0000
  H   H1038     1.0  0.59620  0.18847  0.01080  1.0000
  H   H1039     1.0  0.58559  0.17604  0.97220  1.0000
  H   H1040     1.0  0.57229  0.20815  0.92430  1.0000
  H   H1041     1.0  0.58302  0.22064  0.96244  1.0000
  C   C866      1.0  0.52095  0.08000  0.95377  1.0000
  C   C867      1.0  0.52225  0.08101  0.99127  1.0000
  C   C868      1.0  0.52873  0.09255  0.99513  1.0000
  C   C869      1.0  0.53422  0.10315  0.96162  1.0000
  C   C870      1.0  0.53324  0.10209  0.92388  1.0000
  C   C871      1.0  0.52652  0.09059  0.92009  1.0000
  H   H1042     1.0  0.51792  0.07304  0.01748  1.0000
  H   H1043     1.0  0.52948  0.09334  0.02429  1.0000
  H   H1044     1.0  0.53736  0.11020  0.89780  1.0000
  H   H1045     1.0  0.52555  0.08994  0.89095  1.0000
  C   C872      1.0  0.54254  0.03178  0.06929  1.0000
  C   C873      1.0  0.53699  0.03931  0.09085  1.0000
  C   C874      1.0  0.54430  0.04793  0.10504  1.0000
  C   C875      1.0  0.55710  0.04867  0.09874  1.0000
  C   C876      1.0  0.56250  0.04067  0.07894  1.0000
  C   C877      1.0  0.55528  0.03244  0.06351  1.0000
  H   H1046     1.0  0.52705  0.03828  0.09738  1.0000
  H   H1047     1.0  0.54004  0.05395  0.12098  1.0000
  H   H1048     1.0  0.57233  0.04107  0.07412  1.0000
  H   H1049     1.0  0.55967  0.02682  0.04623  1.0000
  Fe  Fe133     1.0  0.60972  0.04330  0.48429  1.0000
  S   S266      1.0  0.62662  0.05932  0.44623  1.0000
  C   C878      1.0  0.60581  0.04662  0.25173  1.0000
  H   H1050     1.0  0.59575  0.15620  0.94287  1.0000
  C   C879      1.0  0.61609  0.05889  0.30307  1.0000
  C   C880      1.0  0.61597  0.05731  0.23551  1.0000
  C   C881      1.0  0.62118  0.06331  0.26115  1.0000
  H   H1051     1.0  0.62005  0.06070  0.20332  1.0000
  H   H1052     1.0  0.62925  0.07135  0.24845  1.0000
  C   C882      1.0  0.50656  0.04457  0.23319  1.0000
  C   C883      1.0  0.51241  0.04532  0.19319  1.0000
  C   C884      1.0  0.50532  0.04192  0.16758  1.0000
  C   C885      1.0  0.51881  0.00525  0.16888  1.0000
  C   C886      1.0  0.65012  0.19438  0.54883  1.0000
  H   H1053     1.0  0.63252  0.03981  0.31810  1.0000
  H   H1054     1.0  0.52251  0.04853  0.18198  1.0000
  H   H1055     1.0  0.50997  0.04257  0.13699  1.0000
  N   N57       1.0  0.51914  0.05435  0.55101  1.0000
  N   N58       1.0  0.61707  0.19689  0.85963  1.0000
  C   C887      1.0  0.54869  0.03497  0.42523  1.0000
  C   C888      1.0  0.54548  0.04607  0.43126  1.0000
  C   C889      1.0  0.55249  0.05377  0.44888  1.0000
  C   C890      1.0  0.56266  0.05034  0.46077  1.0000
  C   C891      1.0  0.56564  0.03906  0.45586  1.0000
  C   C892      1.0  0.55873  0.03142  0.43776  1.0000
  H   H1056     1.0  0.53773  0.04888  0.42177  1.0000
  H   H1057     1.0  0.55020  0.06252  0.45254  1.0000
  H   H1058     1.0  0.57314  0.03609  0.46649  1.0000
  H   H1059     1.0  0.56117  0.02279  0.43350  1.0000
  C   C893      1.0  0.57103  0.18906  0.47384  1.0000
  C   C894      1.0  0.57005  0.20123  0.45524  1.0000
  C   C895      1.0  0.57911  0.21220  0.45261  1.0000
  C   C896      1.0  0.58920  0.21108  0.46877  1.0000
  C   C897      1.0  0.59015  0.19892  0.48737  1.0000
  C   C898      1.0  0.58116  0.18797  0.48976  1.0000
  H   H1060     1.0  0.56226  0.20216  0.44275  1.0000
  H   H1061     1.0  0.57820  0.22152  0.43865  1.0000
  H   H1062     1.0  0.59794  0.19795  0.49987  1.0000
  H   H1063     1.0  0.58214  0.17870  0.50373  1.0000
  C   C899      1.0  0.56482  0.14802  0.73728  1.0000
  C   C900      1.0  0.55316  0.13920  0.75325  1.0000
  C   C901      1.0  0.54723  0.13386  0.72767  1.0000
  C   C902      1.0  0.55300  0.13708  0.68614  1.0000
  C   C903      1.0  0.56489  0.14548  0.67059  1.0000
  C   C904      1.0  0.57065  0.15108  0.69584  1.0000
  H   H1064     1.0  0.54855  0.13677  0.78508  1.0000
  H   H1065     1.0  0.53804  0.12734  0.74009  1.0000
  H   H1066     1.0  0.56959  0.14785  0.63897  1.0000
  H   H1067     1.0  0.57961  0.15794  0.68299  1.0000
  C   C905      1.0  0.53973  0.10021  0.46502  1.0000
  C   C906      1.0  0.54366  0.09178  0.44345  1.0000
  C   C907      1.0  0.53494  0.08274  0.43435  1.0000
  C   C908      1.0  0.52207  0.08191  0.44687  1.0000
  C   C909      1.0  0.51814  0.09038  0.46828  1.0000
  C   C910      1.0  0.52686  0.09944  0.47729  1.0000
  H   H1068     1.0  0.55354  0.09222  0.43363  1.0000
  H   H1069     1.0  0.53820  0.07640  0.41772  1.0000
  H   H1070     1.0  0.50824  0.08992  0.47805  1.0000
  H   H1071     1.0  0.52361  0.10582  0.49376  1.0000
  C   C911      1.0  0.60712  0.14690  0.54648  1.0000
  H   H1072     1.0  0.55082  0.00540  0.07487  1.0000
  H   H1073     1.0  0.62329  0.14012  0.52532  1.0000
  S   S267      1.0  0.59906  0.04506  0.43807  1.0000
  C   C912      1.0  0.57974  0.10694  0.95085  1.0000
  C   C913      1.0  0.59157  0.10466  0.94780  1.0000
  H   H1074     1.0  0.57876  0.11663  0.94505  1.0000
  H   H1075     1.0  0.59974  0.11256  0.93949  1.0000
  N   N59       1.0  0.58853  0.10425  0.47047  1.0000
  C   C914      1.0  0.60189  0.10671  0.44835  1.0000
  C   C915      1.0  0.58064  0.09656  0.45164  1.0000
  C   C916      1.0  0.58519  0.11666  0.46559  1.0000
  C   C917      1.0  0.58665  0.09732  0.51295  1.0000
  C   C918      1.0  0.58433  0.10305  0.54489  1.0000
  C   C919      1.0  0.58730  0.08447  0.52345  1.0000
  C   C920      1.0  0.58155  0.09597  0.58496  1.0000
  C   C921      1.0  0.58475  0.07752  0.56352  1.0000
  C   C922      1.0  0.58166  0.08319  0.59427  1.0000
  H   H1076     1.0  0.60379  0.11187  0.41615  1.0000
  H   H1077     1.0  0.60809  0.11242  0.46182  1.0000
  H   H1078     1.0  0.60494  0.09780  0.44942  1.0000
  H   H1079     1.0  0.58094  0.10191  0.42088  1.0000
  H   H1080     1.0  0.57062  0.09358  0.46978  1.0000
  H   H1081     1.0  0.58368  0.08787  0.44813  1.0000
  H   H1082     1.0  0.59184  0.12365  0.47364  1.0000
  H   H1083     1.0  0.58547  0.12112  0.43399  1.0000
  H   H1084     1.0  0.57555  0.11557  0.48421  1.0000
  H   H1085     1.0  0.58457  0.11299  0.53950  1.0000
  H   H1086     1.0  0.58977  0.07968  0.50067  1.0000
  H   H1087     1.0  0.57921  0.10041  0.60887  1.0000
  H   H1088     1.0  0.58508  0.06763  0.57060  1.0000
  H   H1089     1.0  0.57946  0.07770  0.62532  1.0000
  C   C923      1.0  0.55179  0.07519  0.94963  1.0000
  C   C924      1.0  0.64061  0.18431  0.50554  1.0000
  C   C925      1.0  0.54177  0.06339  0.54619  1.0000
  C   C926      1.0  0.56914  0.09681  0.96155  1.0000
  N   N60       1.0  0.55871  0.07345  0.98058  1.0000
  C   C927      1.0  0.61312  0.01060  0.33272  1.0000
  C   C928      1.0  0.62837  0.03195  0.27235  1.0000
  H   H1090     1.0  0.63135  0.18172  0.52827  1.0000
  H   H1091     1.0  0.51806  0.07841  0.56287  1.0000
  H   H1092     1.0  0.56980  0.10981  0.05538  1.0000
  C   C929      1.0  0.63157  0.20699  0.51616  1.0000
  H   H1093     1.0  0.55778  0.07564  0.91964  1.0000
  N   N61       1.0  0.61373  0.12412  0.02317  1.0000
  C   C930      1.0  0.61199  0.13705  0.02207  1.0000
  C   C931      1.0  0.62131  0.12121  0.05163  1.0000
  C   C932      1.0  0.62096  0.12449  0.98242  1.0000
  C   C933      1.0  0.60180  0.11420  0.03539  1.0000
  C   C934      1.0  0.58987  0.11706  0.04021  1.0000
  C   C935      1.0  0.60189  0.10118  0.04172  1.0000
  C   C936      1.0  0.55146  0.07302  0.54729  1.0000
  H   H1094     1.0  0.51454  0.02020  0.19452  1.0000
  H   H1095     1.0  0.61349  0.23490  0.27320  1.0000
  H   H1096     1.0  0.60662  0.13746  0.05192  1.0000
  H   H1097     1.0  0.62114  0.14427  0.01319  1.0000
  H   H1098     1.0  0.60703  0.14022  0.99954  1.0000
  H   H1099     1.0  0.61600  0.12032  0.08295  1.0000
  H   H1100     1.0  0.63023  0.12868  0.04379  1.0000
  H   H1101     1.0  0.62416  0.11224  0.05165  1.0000
  H   H1102     1.0  0.61569  0.12696  0.96001  1.0000
  H   H1103     1.0  0.63016  0.13166  0.97223  1.0000
  H   H1104     1.0  0.62298  0.11519  0.98112  1.0000
  H   H1105     1.0  0.58880  0.12666  0.03514  1.0000
  H   H1106     1.0  0.61058  0.09823  0.03735  1.0000
  Fe  Fe134     1.0  0.49274  0.03361  0.08590  1.0000
  H   H1107     1.0  0.54848  0.08403  0.94642  1.0000
  H   H1108     1.0  0.59875  0.00806  0.41023  1.0000
  N   N62       1.0  0.61484  0.10618  0.63598  1.0000
  C   C937      1.0  0.61818  0.09760  0.66819  1.0000
  C   C938      1.0  0.61390  0.09961  0.60433  1.0000
  C   C939      1.0  0.62531  0.11779  0.61888  1.0000
  C   C940      1.0  0.60296  0.10976  0.65002  1.0000
  C   C941      1.0  0.59534  0.10523  0.69051  1.0000
  C   C942      1.0  0.59872  0.11814  0.62274  1.0000
  C   C943      1.0  0.58424  0.10899  0.70254  1.0000
  H   H1109     1.0  0.55536  0.07201  0.04357  1.0000
  H   H1110     1.0  0.61096  0.08841  0.68143  1.0000
  H   H1111     1.0  0.62720  0.09519  0.65636  1.0000
  H   H1112     1.0  0.61952  0.10213  0.69238  1.0000
  H   H1113     1.0  0.60603  0.09092  0.61557  1.0000
  H   H1114     1.0  0.62266  0.09667  0.59327  1.0000
  H   H1115     1.0  0.61238  0.10570  0.57737  1.0000
  H   H1116     1.0  0.62569  0.12365  0.64038  1.0000
  H   H1117     1.0  0.63460  0.11551  0.61098  1.0000
  H   H1118     1.0  0.62454  0.12389  0.59070  1.0000
  H   H1119     1.0  0.59770  0.09874  0.71341  1.0000
  H   H1120     1.0  0.60388  0.12175  0.59135  1.0000
  H   H1121     1.0  0.57847  0.10536  0.73344  1.0000
  Fe  Fe135     1.0  0.49196  0.01822  0.02198  1.0000
  H   H1122     1.0  0.60504  0.22420  0.38208  1.0000
  C   C944      1.0  0.60412  0.01781  0.40732  1.0000
  H   H1123     1.0  0.58464  0.12829  0.61350  1.0000
  H   H1124     1.0  0.63128  0.22162  0.06041  1.0000
  C   C945      1.0  0.63173  0.16087  0.91588  1.0000
  H   H1125     1.0  0.59430  0.07501  0.33294  1.0000
  H   H1126     1.0  0.49106  0.08746  0.15942  1.0000
  H   H1127     1.0  0.53226  0.18717  0.66040  1.0000
  C   C946      1.0  0.62620  0.15093  0.56713  1.0000
  H   H1128     1.0  0.55151  0.18891  0.53797  1.0000
  H   H1129     1.0  0.51240  0.08348  0.13478  1.0000
  H   H1130     1.0  0.61988  0.20328  0.99656  1.0000
  C   C947      1.0  0.54905  0.08425  0.55419  1.0000
  C   C948      1.0  0.60694  0.22528  0.28473  1.0000
  H   H1131     1.0  0.56362  0.18312  0.61779  1.0000
  C   C949      1.0  0.61410  0.01123  0.29234  1.0000
  H   H1132     1.0  0.50916  0.03548  0.58798  1.0000
  C   C950      1.0  0.61649  0.14349  0.75447  1.0000
  H   H1133     1.0  0.56015  0.09912  0.96400  1.0000
  C   C951      1.0  0.55189  0.05002  0.27402  1.0000
  H   H1134     1.0  0.55871  0.02851  0.26643  1.0000
  H   H1135     1.0  0.56020  0.03129  0.31303  1.0000
  H   H1136     1.0  0.54705  0.04602  0.30661  1.0000
  H   H1137     1.0  0.55191  0.06026  0.26568  1.0000
  Fe  Fe136     1.0  0.60462  0.24513  0.43118  1.0000
  C   C952      1.0  0.60565  0.04850  0.31914  1.0000
  H   H1138     1.0  0.63097  0.19522  0.01191  1.0000
  H   H1139     1.0  0.63258  0.01096  0.39216  1.0000
  H   H1140     1.0  0.50189  0.10534  0.97758  1.0000
  N   N63       1.0  0.60012  0.22256  0.32776  1.0000
  H   H1141     1.0  0.54718  0.20943  0.51484  1.0000
  C   C953      1.0  0.59177  0.23129  0.33184  1.0000
  C   C954      1.0  0.60957  0.22553  0.34968  1.0000
  C   C955      1.0  0.59255  0.20925  0.34272  1.0000
  C   C956      1.0  0.59438  0.20012  0.37446  1.0000
  C   C957      1.0  0.58297  0.20505  0.32522  1.0000
  C   C958      1.0  0.58702  0.18762  0.38768  1.0000
  C   C959      1.0  0.57553  0.19258  0.33916  1.0000
  C   C960      1.0  0.57751  0.18390  0.37047  1.0000
  H   H1142     1.0  0.58494  0.01612  0.51128  1.0000
  C   C961      1.0  0.54236  0.18585  0.60149  1.0000
  C   C962      1.0  0.62006  0.20915  0.82855  1.0000
  H   H1143     1.0  0.58535  0.23091  0.31233  1.0000
  N   N64       1.0  0.54555  0.17360  0.61497  1.0000
  H   H1144     1.0  0.58593  0.22903  0.36343  1.0000
  C   C963      1.0  0.51070  0.08480  0.10456  1.0000
  C   C964      1.0  0.54635  0.19263  0.56017  1.0000
  H   H1145     1.0  0.61511  0.23562  0.33750  1.0000
  H   H1146     1.0  0.53653  0.02927  0.19146  1.0000
  H   H1147     1.0  0.58108  0.21144  0.30085  1.0000
  H   H1148     1.0  0.58835  0.18085  0.41252  1.0000
  H   H1149     1.0  0.56809  0.18965  0.32594  1.0000
  H   H1150     1.0  0.57155  0.17432  0.38200  1.0000
  H   H1151     1.0  0.51424  0.04644  0.61498  1.0000
  C   C965      1.0  0.59076  0.09163  0.05365  1.0000
  H   H1152     1.0  0.58404  0.07266  0.97265  1.0000
  C   C966      1.0  0.64204  0.12063  0.52325  1.0000
  H   H1153     1.0  0.64155  0.13024  0.52282  1.0000
  C   C967      1.0  0.60088  0.00888  0.51942  1.0000
  C   C968      1.0  0.57924  0.09474  0.05890  1.0000
  H   H1154     1.0  0.62353  0.22571  0.98136  1.0000
  H   H1155     1.0  0.65096  0.23383  0.02589  1.0000
  S   S268      1.0  0.49564  0.04652  0.37969  1.0000
  C   C969      1.0  0.62425  0.03205  0.39405  1.0000
  H   H1156     1.0  0.64395  0.08617  0.52270  1.0000
  H   H1157     1.0  0.57066  0.08728  0.06833  1.0000
  H   H1158     1.0  0.63063  0.15490  0.69899  1.0000
  Fe  Fe137     1.0  0.64884  0.16067  0.60854  1.0000
  S   S269      1.0  0.49758  0.01546  0.08004  1.0000
  C   C970      1.0  0.62633  0.21721  0.50520  1.0000
  H   H1159     1.0  0.59108  0.08175  0.05870  1.0000
  C   C971      1.0  0.54049  0.16752  0.65892  1.0000
  H   H1160     1.0  0.59318  0.12647  0.77884  1.0000
  H   H1161     1.0  0.62204  0.02262  0.23101  1.0000
  H   H1162     1.0  0.56093  0.07181  0.54208  1.0000
  C   C972      1.0  0.52280  0.05002  0.51444  1.0000
  N   N65       1.0  0.63559  0.21535  0.00654  1.0000
  S   S270      1.0  0.65096  0.14164  0.63832  1.0000
  C   C973      1.0  0.64332  0.17609  0.81551  1.0000
  H   H1163     1.0  0.62253  0.03141  0.42666  1.0000
  H   H1164     1.0  0.51607  0.07910  0.08866  1.0000
  S   S271      1.0  0.58821  0.24624  0.04446  1.0000
  H   H1165     1.0  0.63929  0.22926  0.94985  1.0000
  C   C974      1.0  0.52818  0.99956  0.15381  1.0000
  H   H1166     1.0  0.53515  0.09477  0.56457  1.0000
  C   C975      1.0  0.64739  0.10677  0.06390  1.0000
  C   C976      1.0  0.63765  0.14306  0.78504  1.0000
  H   H1167     1.0  0.62781  0.16460  0.80379  1.0000
  C   C977      1.0  0.61517  0.13715  0.79519  1.0000
  C   C978      1.0  0.64550  0.22839  0.45355  1.0000
  S   S272      1.0  0.63517  0.17611  0.96523  1.0000
  C   C979      1.0  0.49247  0.06752  0.13340  1.0000
  C   C980      1.0  0.65624  0.20905  0.98803  1.0000
  C   C981      1.0  0.58589  0.00812  0.04029  1.0000
  C   C982      1.0  0.63353  0.11306  0.50883  1.0000
  C   C983      1.0  0.58859  0.00777  0.51596  1.0000
  H   H1168     1.0  0.60249  0.01879  0.43836  1.0000
  S   S273      1.0  0.58531  0.03587  0.13857  1.0000
  S   S274      1.0  0.61553  0.04422  0.09912  1.0000
  H   H1169     1.0  0.59254  0.15488  0.57338  1.0000
  C   C984      1.0  0.59286  0.09223  0.95583  1.0000
  H   H1170     1.0  0.50337  0.00285  0.49958  1.0000
  C   C985      1.0  0.63010  0.20433  0.99341  1.0000
  S   S275      1.0  0.63015  0.16548  0.61782  1.0000
  H   H1171     1.0  0.53007  0.16547  0.66861  1.0000
  C   C986      1.0  0.61929  0.14555  0.54428  1.0000
  H   H1172     1.0  0.60209  0.09049  0.95423  1.0000
  C   C987      1.0  0.53317  0.20336  0.61451  1.0000
  Fe  Fe138     1.0  0.59842  0.03565  0.08124  1.0000
  S   S276      1.0  0.59973  0.03797  0.22116  1.0000
  C   C988      1.0  0.60194  0.15385  0.57125  1.0000
  H   H1173     1.0  0.54747  0.08229  0.01821  1.0000
  C   C989      1.0  0.62163  0.02194  0.26224  1.0000
  N   N66       1.0  0.60569  0.14376  0.73742  1.0000
  C   C990      1.0  0.60067  0.04227  0.29363  1.0000
  H   H1174     1.0  0.60148  0.04522  0.35118  1.0000
  C   C991      1.0  0.55046  0.07331  0.01957  1.0000
  C   C992      1.0  0.57011  0.08401  0.96921  1.0000
  C   C993      1.0  0.56440  0.03471  0.27988  1.0000
  H   H1175     1.0  0.54581  0.04516  0.25833  1.0000
  C   C994      1.0  0.58233  0.08201  0.96648  1.0000
  H   H1176     1.0  0.54175  0.06547  0.02938  1.0000
  C   C995      1.0  0.49949  0.09443  0.03827  1.0000
  H   H1177     1.0  0.59926  0.13821  0.68948  1.0000
  H   H1178     1.0  0.59281  0.03403  0.30646  1.0000
  S   S277      1.0  0.62694  0.08090  0.02182  1.0000
  C   C996      1.0  0.60578  0.15744  0.93533  1.0000
  H   H1179     1.0  0.54321  0.06731  0.95710  1.0000
  C   C997      1.0  0.53690  0.08585  0.56036  1.0000
  C   C998      1.0  0.56139  0.06074  0.98497  1.0000
  H   H1180     1.0  0.56602  0.05846  0.00922  1.0000
  H   H1181     1.0  0.62097  0.04036  0.38038  1.0000
  H   H1182     1.0  0.63459  0.03414  0.38155  1.0000
  S   S278      1.0  0.61125  0.02359  0.51468  1.0000
  H   H1183     1.0  0.57927  0.02389  0.01375  1.0000
  N   N67       1.0  0.56484  0.04829  0.26365  1.0000
  H   H1184     1.0  0.56077  0.04798  0.34307  1.0000
  H   H1185     1.0  0.55263  0.05301  0.99333  1.0000
  C   C999      1.0  0.49346  0.04055  0.24724  1.0000
  C   C1000     1.0  0.49542  0.08229  0.06674  1.0000
  H   H1186     1.0  0.62985  0.21469  0.82320  1.0000
  S   S279      1.0  0.59527  0.01638  0.06579  1.0000
  S   S280      1.0  0.62248  0.09120  0.49237  1.0000
  H   H1187     1.0  0.56304  0.04579  0.20622  1.0000
  H   H1188     1.0  0.57401  0.03311  0.27353  1.0000
  H   H1189     1.0  0.56746  0.06008  0.95653  1.0000
  C   C1001     1.0  0.63866  0.19277  0.84550  1.0000
  C   C1002     1.0  0.62221  0.17902  0.83009  1.0000
  H   H1190     1.0  0.52583  0.05815  0.48688  1.0000
  H   H1191     1.0  0.62732  0.20627  0.89442  1.0000
  H   H1192     1.0  0.60150  0.18941  0.83806  1.0000
  C   C1003     1.0  0.61148  0.15058  0.91123  1.0000
  C   C1004     1.0  0.65569  0.22719  0.01485  1.0000
  H   H1193     1.0  0.61260  0.21829  0.28003  1.0000
  H   H1194     1.0  0.60123  0.20242  0.39031  1.0000
  H   H1195     1.0  0.61269  0.17556  0.82950  1.0000
  H   H1196     1.0  0.64574  0.14282  0.79658  1.0000
  H   H1197     1.0  0.61082  0.20386  0.91112  1.0000
  C   C1005     1.0  0.62583  0.18933  0.84601  1.0000
  C   C1006     1.0  0.52931  0.06480  0.55151  1.0000
  H   H1198     1.0  0.63591  0.23536  0.99261  1.0000
  H   H1199     1.0  0.62439  0.13203  0.84113  1.0000
  H   H1200     1.0  0.64107  0.10414  0.96311  1.0000
  C   C1007     1.0  0.60900  0.15953  0.59341  1.0000
  C   C1008     1.0  0.58043  0.11731  0.67492  1.0000
  H   H1201     1.0  0.60090  0.18104  0.88870  1.0000
  H   H1202     1.0  0.50306  0.06022  0.57991  1.0000
  C   C1009     1.0  0.61833  0.19953  0.89799  1.0000
  C   C1010     1.0  0.60369  0.19052  0.86627  1.0000
  C   C1011     1.0  0.56940  0.05152  0.21912  1.0000
  H   H1203     1.0  0.61766  0.19066  0.92087  1.0000
  C   C1012     1.0  0.57286  0.05605  0.28171  1.0000
  H   H1204     1.0  0.57071  0.00012  0.11996  1.0000
  H   H1205     1.0  0.65217  0.20111  0.97830  1.0000
  H   H1206     1.0  0.59728  0.19617  0.87781  1.0000
  H   H1207     1.0  0.56598  0.01152  0.98118  1.0000
  H   H1208     1.0  0.63030  0.20493  0.06893  1.0000
  C   C1013     1.0  0.62564  0.13692  0.80996  1.0000
  H   H1209     1.0  0.57875  0.04956  0.20921  1.0000
  H   H1210     1.0  0.50830  0.06627  0.52572  1.0000
  H   H1211     1.0  0.58818  0.06630  0.22706  1.0000
  H   H1212     1.0  0.60502  0.16502  0.61218  1.0000
  H   H1213     1.0  0.63525  0.08772  0.08911  1.0000
  C   C1014     1.0  0.56934  0.05461  0.32374  1.0000
  C   C1015     1.0  0.58447  0.06482  0.25895  1.0000
  H   H1214     1.0  0.57003  0.06166  0.20488  1.0000
  H   H1215     1.0  0.61908  0.20762  0.79935  1.0000
  H   H1216     1.0  0.61369  0.21519  0.83739  1.0000
  H   H1217     1.0  0.65456  0.12399  0.96642  1.0000
  C   C1016     1.0  0.63351  0.22690  0.98152  1.0000
  H   H1218     1.0  0.62580  0.19897  0.54077  1.0000
  C   C1017     1.0  0.58768  0.12190  0.63512  1.0000
  H   H1219     1.0  0.60407  0.16176  0.74779  1.0000
  H   H1220     1.0  0.60854  0.17014  0.97225  1.0000
  C   C1018     1.0  0.60723  0.13811  0.70310  1.0000
  H   H1221     1.0  0.63401  0.04037  0.24883  1.0000
  H   H1222     1.0  0.50398  0.10273  0.04551  1.0000
  C   C1019     1.0  0.61305  0.16541  0.95176  1.0000
  H   H1223     1.0  0.57177  0.12014  0.68425  1.0000
  H   H1224     1.0  0.64453  0.17587  0.51181  1.0000
  C   C1020     1.0  0.57694  0.06147  0.34184  1.0000
  C   C1021     1.0  0.59196  0.07169  0.27737  1.0000
  C   C1022     1.0  0.63943  0.09559  0.06234  1.0000
  C   C1023     1.0  0.63705  0.09457  0.02600  1.0000
  C   C1024     1.0  0.62447  0.15234  0.90146  1.0000
  H   H1225     1.0  0.49746  0.06111  0.11999  1.0000
  H   H1226     1.0  0.57413  0.06004  0.37408  1.0000
  C   C1025     1.0  0.54389  0.20442  0.54660  1.0000
  C   C1026     1.0  0.58824  0.06998  0.31870  1.0000
  H   H1227     1.0  0.53546  0.21895  0.56307  1.0000
  C   C1027     1.0  0.63923  0.14956  0.74528  1.0000
  C   C1028     1.0  0.57880  0.10743  0.05184  1.0000
  H   H1228     1.0  0.50918  0.00151  0.16944  1.0000
  H   H1229     1.0  0.60095  0.07805  0.25968  1.0000
  N   N68       1.0  0.64910  0.19597  0.50721  1.0000
  C   C1029     1.0  0.53731  0.20978  0.57372  1.0000
  H   H1230     1.0  0.52807  0.20758  0.63551  1.0000
  C   C1030     1.0  0.53565  0.19157  0.62843  1.0000
  H   H1231     1.0  0.54488  0.16758  0.56127  1.0000
  H   H1232     1.0  0.61647  0.21963  0.34695  1.0000
  H   H1233     1.0  0.49399  0.06655  0.16375  1.0000
  H   H1234     1.0  0.61491  0.99868  0.52803  1.0000
  H   H1235     1.0  0.60882  0.00351  0.28425  1.0000
  C   C1031     1.0  0.63407  0.10054  0.50851  1.0000
  H   H1236     1.0  0.59724  0.24135  0.32313  1.0000
  H   H1237     1.0  0.62900  0.14741  0.88180  1.0000
  H   H1238     1.0  0.54220  0.15496  0.60517  1.0000
  C   C1032     1.0  0.62738  0.03148  0.31262  1.0000
  C   C1033     1.0  0.65282  0.11717  0.02948  1.0000
  H   H1239     1.0  0.63542  0.14947  0.56601  1.0000
  H   H1240     1.0  0.64085  0.19245  0.57104  1.0000
  H   H1241     1.0  0.54450  0.17346  0.67660  1.0000
  H   H1242     1.0  0.61581  0.14338  0.67844  1.0000
  C   C1034     1.0  0.61953  0.02081  0.34417  1.0000
  H   H1243     1.0  0.56614  0.01469  0.11003  1.0000
  N   N69       1.0  0.49716  0.08079  0.10750  1.0000
  H   H1244     1.0  0.56382  0.17893  0.57174  1.0000
  H   H1245     1.0  0.64858  0.15439  0.72596  1.0000
  H   H1246     1.0  0.54285  0.15821  0.66778  1.0000
  C   C1035     1.0  0.64269  0.10488  0.99149  1.0000
  C   C1036     1.0  0.57134  0.00685  0.99879  1.0000
  C   C1037     1.0  0.52713  0.07633  0.55900  1.0000
  H   H1247     1.0  0.54421  0.05489  0.54070  1.0000
  C   C1038     1.0  0.54050  0.16448  0.59427  1.0000
  C   C1039     1.0  0.55939  0.17575  0.60476  1.0000
  C   C1040     1.0  0.62116  0.15809  0.59121  1.0000
  H   H1248     1.0  0.53020  0.16317  0.59929  1.0000
  C   C1041     1.0  0.62861  0.21329  0.04905  1.0000
  H   H1249     1.0  0.56222  0.16694  0.61642  1.0000
  C   C1042     1.0  0.62886  0.14977  0.73010  1.0000
  H   H1250     1.0  0.61676  0.21684  0.52062  1.0000
  H   H1251     1.0  0.61343  0.16292  0.69825  1.0000
  C   C1043     1.0  0.59343  0.13663  0.76668  1.0000
  C   C1044     1.0  0.64335  0.09574  0.52266  1.0000
  C   C1045     1.0  0.62607  0.16698  0.94246  1.0000
  C   C1046     1.0  0.60504  0.15710  0.72295  1.0000
  H   H1252     1.0  0.63888  0.18546  0.47545  1.0000
  H   H1253     1.0  0.61829  0.21155  0.05312  1.0000
  H   H1254     1.0  0.60052  0.22506  0.26516  1.0000
  H   H1255     1.0  0.60791  0.12813  0.71270  1.0000
  H   H1256     1.0  0.62141  0.00914  0.43930  1.0000
  H   H1257     1.0  0.63464  0.20532  0.96134  1.0000
  H   H1258     1.0  0.58555  0.13678  0.75268  1.0000
  C   C1047     1.0  0.64392  0.20707  0.49556  1.0000
  Fe  Fe139     1.0  0.49583  0.02680  0.41328  1.0000
  H   H1259     1.0  0.59124  0.14091  0.79211  1.0000
  H   H1260     1.0  0.52407  0.00367  0.46508  1.0000
  H   H1261     1.0  0.65628  0.20301  0.55150  1.0000
  H   H1262     1.0  0.60616  0.13239  0.81652  1.0000
  N   N70       1.0  0.61770  0.02020  0.38722  1.0000
  C   C1048     1.0  0.63088  0.17259  0.81494  1.0000
  C   C1049     1.0  0.65034  0.11617  0.99329  1.0000
  H   H1263     1.0  0.64176  0.16299  0.90526  1.0000
  C   C1050     1.0  0.65122  0.11578  0.53783  1.0000
  C   C1051     1.0  0.50708  0.05796  0.55155  1.0000
  H   H1264     1.0  0.53056  0.04521  0.51441  1.0000
  H   H1265     1.0  0.55315  0.01999  0.16444  1.0000
  H   H1266     1.0  0.60709  0.00214  0.35502  1.0000
  H   H1267     1.0  0.64994  0.17087  0.80471  1.0000
  H   H1268     1.0  0.51143  0.00428  0.02327  1.0000
  H   H1269     1.0  0.65080  0.23674  0.42917  1.0000
  C   C1052     1.0  0.64720  0.18613  0.83086  1.0000
  H   H1270     1.0  0.52535  0.03983  0.58705  1.0000
  H   H1271     1.0  0.53042  0.00449  0.97784  1.0000
  H   H1272     1.0  0.49981  0.05019  0.54887  1.0000
  H   H1273     1.0  0.62906  0.23568  0.46526  1.0000
  H   H1274     1.0  0.51488  0.09499  0.08807  1.0000
  C   C1053     1.0  0.54095  0.00449  0.15146  1.0000
  C   C1054     1.0  0.49828  0.09607  0.99926  1.0000
  H   H1275     1.0  0.57214  0.00237  0.70420  1.0000
  C   C1055     1.0  0.51686  0.04353  0.58682  1.0000
  H   H1276     1.0  0.51491  0.04309  0.51121  1.0000
  C   C1056     1.0  0.65083  0.21818  0.46407  1.0000
  H   H1277     1.0  0.65419  0.18625  0.55852  1.0000
  C   C1057     1.0  0.49224  0.03809  0.18121  1.0000
  C   C1058     1.0  0.56365  0.00511  0.13176  1.0000
  C   C1059     1.0  0.62246  0.00968  0.40694  1.0000
  H   H1278     1.0  0.53622  0.99908  0.01939  1.0000
  C   C1060     1.0  0.60545  0.99795  0.52544  1.0000
  H   H1279     1.0  0.49238  0.08691  0.95687  1.0000
  H   H1280     1.0  0.64929  0.10737  0.09204  1.0000
  C   C1061     1.0  0.49291  0.08572  0.98754  1.0000
  Fe  Fe140     1.0  0.65386  0.17114  0.96173  1.0000
  C   C1062     1.0  0.65183  0.10331  0.53714  1.0000
  H   H1281     1.0  0.49423  0.09907  0.11253  1.0000
  H   H1282     1.0  0.61732  0.00026  0.40602  1.0000
  H   H1283     1.0  0.58072  0.00439  0.63179  1.0000
  N   N71       1.0  0.55063  0.99805  0.13644  1.0000
  C   C1063     1.0  0.49040  0.08878  0.12799  1.0000
  H   H1284     1.0  0.65688  0.18868  0.83179  1.0000
  Fe  Fe141     1.0  0.60247  0.36591  0.53215  1.0000
  S   S281      1.0  0.59586  0.35758  0.48663  1.0000
  S   S282      1.0  0.62224  0.37792  0.51127  1.0000
  Fe  Fe142     1.0  0.57836  0.35241  0.59772  1.0000
  S   S283      1.0  0.56963  0.34311  0.55680  1.0000
  S   S284      1.0  0.56811  0.34673  0.66392  1.0000
  Fe  Fe143     1.0  0.58853  0.33923  0.53532  1.0000
  S   S285      1.0  0.59441  0.32079  0.53594  1.0000
  Fe  Fe144     1.0  0.57766  0.36239  0.51151  1.0000
  S   S286      1.0  0.57045  0.37389  0.46408  1.0000
  S   S287      1.0  0.59663  0.34740  0.57917  1.0000
  S   S288      1.0  0.58494  0.37196  0.55425  1.0000
  S   S289      1.0  0.55416  0.47689  0.47362  1.0000
  Fe  Fe145     1.0  0.51476  0.40352  0.44138  1.0000
  S   S290      1.0  0.52330  0.41050  0.37463  1.0000
  S   S291      1.0  0.51685  0.38573  0.48216  1.0000
  Fe  Fe146     1.0  0.50293  0.42618  0.44461  1.0000
  S   S292      1.0  0.51064  0.43520  0.37813  1.0000
  H   H1285     1.0  0.56637  0.43883  0.43473  1.0000
  Fe  Fe147     1.0  0.50503  0.41541  0.37210  1.0000
  H   H1286     1.0  0.50688  0.48790  0.89358  1.0000
  Fe  Fe148     1.0  0.52814  0.42954  0.38599  1.0000
  S   S293      1.0  0.54735  0.44234  0.35881  1.0000
  C   C1064     1.0  0.64606  0.28408  0.01342  1.0000
  S   S294      1.0  0.52113  0.42223  0.45289  1.0000
  S   S295      1.0  0.56619  0.46248  0.14463  1.0000
  Fe  Fe149     1.0  0.51660  0.41769  0.09731  1.0000
  S   S296      1.0  0.50353  0.40835  0.06676  1.0000
  S   S297      1.0  0.52202  0.40913  0.15316  1.0000
  Fe  Fe150     1.0  0.52636  0.44173  0.02779  1.0000
  S   S298      1.0  0.51464  0.43451  0.99072  1.0000
  S   S299      1.0  0.53912  0.46128  0.00903  1.0000
  Fe  Fe151     1.0  0.49932  0.42758  0.04869  1.0000
  C   C1065     1.0  0.49754  0.48206  0.62624  1.0000
  Fe  Fe152     1.0  0.51994  0.41605  0.01113  1.0000
  S   S300      1.0  0.52598  0.40476  0.96750  1.0000
  S   S301      1.0  0.51085  0.43600  0.08473  1.0000
  S   S302      1.0  0.53316  0.42416  0.04252  1.0000
  Fe  Fe153     1.0  0.58802  0.36254  0.85102  1.0000
  S   S303      1.0  0.56970  0.35545  0.90014  1.0000
  S   S304      1.0  0.59271  0.37053  0.78345  1.0000
  Fe  Fe154     1.0  0.60375  0.35981  0.90997  1.0000
  S   S305      1.0  0.58704  0.35259  0.96335  1.0000
  S   S306      1.0  0.62348  0.36129  0.91461  1.0000
  Fe  Fe155     1.0  0.57893  0.34073  0.92770  1.0000
  S   S307      1.0  0.56897  0.32051  0.96445  1.0000
  Fe  Fe156     1.0  0.57922  0.36787  0.93248  1.0000
  S   S308      1.0  0.57180  0.37934  0.97389  1.0000
  S   S309      1.0  0.59639  0.34687  0.87611  1.0000
  S   S310      1.0  0.59680  0.37607  0.88153  1.0000
  S   S311      1.0  0.59492  0.25455  0.38849  1.0000
  H   H1287     1.0  0.56290  0.43088  0.15606  1.0000
  S   S312      1.0  0.61335  0.26844  0.03554  1.0000
  H   H1288     1.0  0.55686  0.30960  0.73060  1.0000
  Fe  Fe157     1.0  0.60187  0.26274  0.99583  1.0000
  S   S313      1.0  0.59995  0.27889  0.94801  1.0000
  H   H1289     1.0  0.57016  0.45096  0.96266  1.0000
  H   H1290     1.0  0.56226  0.45423  0.22782  1.0000
  Fe  Fe158     1.0  0.59983  0.27155  0.41240  1.0000
  S   S314      1.0  0.61833  0.28022  0.36530  1.0000
  S   S315      1.0  0.58660  0.28417  0.42435  1.0000
  Fe  Fe159     1.0  0.61411  0.26256  0.34463  1.0000
  H   H1291     1.0  0.49570  0.35273  0.41313  1.0000
  Fe  Fe160     1.0  0.62606  0.26919  0.41101  1.0000
  H   H1292     1.0  0.55169  0.42984  0.43419  1.0000
  S   S316      1.0  0.60779  0.26136  0.45912  1.0000
  N   N72       1.0  0.57521  0.44167  0.01499  1.0000
  C   C1066     1.0  0.52802  0.48529  0.08295  1.0000
  S   S317      1.0  0.59255  0.25393  0.14514  1.0000
  C   C1067     1.0  0.61056  0.41210  0.01149  1.0000
  H   H1293     1.0  0.57977  0.40387  0.57142  1.0000
  H   H1294     1.0  0.58982  0.44261  0.96283  1.0000
  C   C1068     1.0  0.51667  0.37222  0.37932  1.0000
  H   H1295     1.0  0.55658  0.35576  0.98045  1.0000
  C   C1069     1.0  0.56269  0.42790  0.12909  1.0000
  C   C1070     1.0  0.57759  0.30888  0.96061  1.0000
  C   C1071     1.0  0.57357  0.29696  0.98931  1.0000
  C   C1072     1.0  0.58045  0.28768  0.98663  1.0000
  C   C1073     1.0  0.59124  0.29023  0.95473  1.0000
  C   C1074     1.0  0.59511  0.30206  0.92592  1.0000
  C   C1075     1.0  0.58843  0.31138  0.92910  1.0000
  H   H1296     1.0  0.56510  0.29488  0.01357  1.0000
  H   H1297     1.0  0.57722  0.27846  0.00847  1.0000
  H   H1298     1.0  0.60326  0.30397  0.90064  1.0000
  H   H1299     1.0  0.59147  0.32034  0.90631  1.0000
  C   C1076     1.0  0.62731  0.37039  0.94650  1.0000
  C   C1077     1.0  0.63971  0.37339  0.94842  1.0000
  C   C1078     1.0  0.63425  0.38629  0.99315  1.0000
  C   C1079     1.0  0.62172  0.38280  0.99275  1.0000
  C   C1080     1.0  0.61827  0.37500  0.96894  1.0000
  H   H1300     1.0  0.61000  0.34438  0.00704  1.0000
  H   H1301     1.0  0.61472  0.38626  0.01038  1.0000
  H   H1302     1.0  0.60864  0.37263  0.96787  1.0000
  C   C1081     1.0  0.53885  0.39789  0.96918  1.0000
  C   C1082     1.0  0.54323  0.39211  0.93928  1.0000
  C   C1083     1.0  0.55324  0.38627  0.94044  1.0000
  C   C1084     1.0  0.55897  0.38623  0.97150  1.0000
  C   C1085     1.0  0.55453  0.39192  0.00155  1.0000
  C   C1086     1.0  0.54452  0.39772  0.00042  1.0000
  H   H1303     1.0  0.53884  0.39213  0.91517  1.0000
  H   H1304     1.0  0.55657  0.38192  0.91713  1.0000
  H   H1305     1.0  0.55871  0.39172  0.02614  1.0000
  H   H1306     1.0  0.54102  0.40183  0.02414  1.0000
  C   C1087     1.0  0.57023  0.30023  0.70200  1.0000
  C   C1088     1.0  0.54554  0.46236  0.04901  1.0000
  C   C1089     1.0  0.55414  0.47343  0.04691  1.0000
  C   C1090     1.0  0.55989  0.47380  0.07788  1.0000
  C   C1091     1.0  0.55716  0.46307  0.11056  1.0000
  C   C1092     1.0  0.54804  0.45230  0.11372  1.0000
  C   C1093     1.0  0.54237  0.45189  0.08274  1.0000
  H   H1307     1.0  0.55653  0.48163  0.02127  1.0000
  H   H1308     1.0  0.56655  0.48237  0.07616  1.0000
  H   H1309     1.0  0.54573  0.44404  0.13922  1.0000
  H   H1310     1.0  0.53582  0.44327  0.08484  1.0000
  H   H1311     1.0  0.58943  0.45390  0.03093  1.0000
  C   C1094     1.0  0.56878  0.43289  0.05543  1.0000
  H   H1312     1.0  0.63137  0.33000  0.98241  1.0000
  C   C1095     1.0  0.54845  0.41035  0.49610  1.0000
  C   C1096     1.0  0.50273  0.41211  0.27769  1.0000
  C   C1097     1.0  0.51527  0.41146  0.26809  1.0000
  C   C1098     1.0  0.52114  0.41074  0.22960  1.0000
  C   C1099     1.0  0.51468  0.41109  0.20002  1.0000
  C   C1100     1.0  0.50230  0.41220  0.20917  1.0000
  H   H1313     1.0  0.58333  0.29578  0.13030  1.0000
  H   H1314     1.0  0.52037  0.41128  0.29047  1.0000
  H   H1315     1.0  0.53073  0.40992  0.22268  1.0000
  N   N73       1.0  0.50346  0.37268  0.38254  1.0000
  Fe  Fe161     1.0  0.61033  0.48095  0.05822  1.0000
  C   C1101     1.0  0.55212  0.46860  0.43818  1.0000
  C   C1102     1.0  0.54010  0.46243  0.43878  1.0000
  C   C1103     1.0  0.53856  0.45471  0.41321  1.0000
  C   C1104     1.0  0.54908  0.45326  0.38679  1.0000
  C   C1105     1.0  0.56105  0.46001  0.38458  1.0000
  C   C1106     1.0  0.56255  0.46772  0.41011  1.0000
  H   H1316     1.0  0.53201  0.46349  0.45921  1.0000
  H   H1317     1.0  0.52925  0.44980  0.41420  1.0000
  H   H1318     1.0  0.56923  0.45906  0.36401  1.0000
  H   H1319     1.0  0.57184  0.47288  0.40802  1.0000
  C   C1107     1.0  0.59265  0.31134  0.50256  1.0000
  C   C1108     1.0  0.59947  0.30204  0.50114  1.0000
  C   C1109     1.0  0.59796  0.29391  0.47645  1.0000
  C   C1110     1.0  0.58940  0.29483  0.45356  1.0000
  C   C1111     1.0  0.58264  0.30419  0.45481  1.0000
  C   C1112     1.0  0.58433  0.31251  0.47891  1.0000
  H   H1320     1.0  0.60591  0.30103  0.51938  1.0000
  H   H1321     1.0  0.60323  0.28676  0.47575  1.0000
  H   H1322     1.0  0.57600  0.30496  0.43720  1.0000
  H   H1323     1.0  0.57899  0.31959  0.47986  1.0000
  C   C1113     1.0  0.57534  0.35284  0.69728  1.0000
  C   C1114     1.0  0.56934  0.34873  0.73871  1.0000
  C   C1115     1.0  0.57474  0.35374  0.76579  1.0000
  C   C1116     1.0  0.58609  0.36306  0.75140  1.0000
  C   C1117     1.0  0.59216  0.36701  0.71004  1.0000
  C   C1118     1.0  0.58690  0.36179  0.68314  1.0000
  H   H1324     1.0  0.56039  0.34178  0.74986  1.0000
  H   H1325     1.0  0.56997  0.35069  0.79756  1.0000
  H   H1326     1.0  0.60095  0.37418  0.69880  1.0000
  H   H1327     1.0  0.59170  0.36479  0.65144  1.0000
  C   C1119     1.0  0.55547  0.37702  0.47043  1.0000
  C   C1120     1.0  0.54576  0.37129  0.50578  1.0000
  C   C1121     1.0  0.53392  0.37398  0.50900  1.0000
  C   C1122     1.0  0.53181  0.38262  0.47733  1.0000
  C   C1123     1.0  0.54158  0.38848  0.44225  1.0000
  C   C1124     1.0  0.55330  0.38556  0.43867  1.0000
  H   H1328     1.0  0.54731  0.36465  0.53037  1.0000
  H   H1329     1.0  0.52639  0.36939  0.53623  1.0000
  H   H1330     1.0  0.54002  0.39502  0.41748  1.0000
  H   H1331     1.0  0.56073  0.38992  0.41107  1.0000
  C   C1125     1.0  0.62871  0.38228  0.54811  1.0000
  C   C1126     1.0  0.62168  0.37898  0.58830  1.0000
  C   C1127     1.0  0.62687  0.38357  0.61635  1.0000
  C   C1128     1.0  0.64622  0.39418  0.56435  1.0000
  C   C1129     1.0  0.64106  0.38965  0.53639  1.0000
  H   H1332     1.0  0.61216  0.37321  0.59750  1.0000
  S   S318      1.0  0.58628  0.49719  0.11205  1.0000
  H   H1333     1.0  0.64657  0.39209  0.50537  1.0000
  C   C1130     1.0  0.63904  0.39148  0.60411  1.0000
  C   C1131     1.0  0.57100  0.41085  0.52602  1.0000
  C   C1132     1.0  0.63705  0.29295  0.51425  1.0000
  C   C1133     1.0  0.58281  0.42418  0.55713  1.0000
  H   H1334     1.0  0.58442  0.44423  0.53648  1.0000
  H   H1335     1.0  0.58822  0.42519  0.57840  1.0000
  H   H1336     1.0  0.56194  0.31967  0.66275  1.0000
  H   H1337     1.0  0.53535  0.33256  0.07265  1.0000
  C   C1134     1.0  0.63369  0.45908  0.55651  1.0000
  H   H1338     1.0  0.62909  0.25872  0.20054  1.0000
  H   H1339     1.0  0.58070  0.28673  0.68375  1.0000
  S   S319      1.0  0.64513  0.39808  0.63839  1.0000
  S   S320      1.0  0.59158  0.48096  0.04704  1.0000
  C   C1135     1.0  0.63557  0.28630  0.48554  1.0000
  C   C1136     1.0  0.59220  0.29275  0.12976  1.0000
  C   C1137     1.0  0.61161  0.29094  0.08918  1.0000
  C   C1138     1.0  0.61535  0.43522  0.06809  1.0000
  H   H1340     1.0  0.62302  0.35201  0.51020  1.0000
  H   H1341     1.0  0.60981  0.28064  0.10475  1.0000
  H   H1342     1.0  0.62633  0.28113  0.48655  1.0000
  C   C1139     1.0  0.55965  0.30079  0.73137  1.0000
  C   C1140     1.0  0.56572  0.27746  0.73604  1.0000
  C   C1141     1.0  0.55247  0.29004  0.76224  1.0000
  C   C1142     1.0  0.55552  0.27840  0.76464  1.0000
  H   H1343     1.0  0.56802  0.26836  0.73790  1.0000
  H   H1344     1.0  0.54448  0.29074  0.78444  1.0000
  H   H1345     1.0  0.54994  0.27009  0.78868  1.0000
  H   H1346     1.0  0.55811  0.44670  0.00919  1.0000
  H   H1347     1.0  0.64410  0.41999  0.86035  1.0000
  H   H1348     1.0  0.60946  0.47237  0.27331  1.0000
  H   H1349     1.0  0.53879  0.32275  0.04040  1.0000
  N   N74       1.0  0.63370  0.33783  0.50497  1.0000
  C   C1143     1.0  0.62763  0.33124  0.54798  1.0000
  C   C1144     1.0  0.62590  0.34615  0.48999  1.0000
  C   C1145     1.0  0.63378  0.32808  0.48235  1.0000
  C   C1146     1.0  0.64646  0.34530  0.50103  1.0000
  H   H1350     1.0  0.54323  0.46774  0.29489  1.0000
  C   C1147     1.0  0.51913  0.47730  0.07183  1.0000
  H   H1351     1.0  0.60759  0.43283  0.09604  1.0000
  H   H1352     1.0  0.50443  0.38553  0.41908  1.0000
  S   S321      1.0  0.65045  0.30733  0.55151  1.0000
  C   C1148     1.0  0.64900  0.29954  0.51376  1.0000
  H   H1353     1.0  0.55225  0.46475  0.23239  1.0000
  H   H1354     1.0  0.61278  0.31549  0.10411  1.0000
  H   H1355     1.0  0.64990  0.45219  0.94564  1.0000
  H   H1356     1.0  0.49968  0.35660  0.35929  1.0000
  H   H1357     1.0  0.51479  0.47362  0.98884  1.0000
  C   C1149     1.0  0.57577  0.47784  0.21642  1.0000
  H   H1358     1.0  0.62412  0.32330  0.48282  1.0000
  H   H1359     1.0  0.63927  0.33235  0.45035  1.0000
  C   C1150     1.0  0.58850  0.40174  0.02727  1.0000
  H   H1360     1.0  0.58320  0.28781  0.07026  1.0000
  S   S322      1.0  0.64481  0.27692  0.42183  1.0000
  C   C1151     1.0  0.65219  0.31456  0.88980  1.0000
  C   C1152     1.0  0.55260  0.34693  0.00558  1.0000
  N   N75       1.0  0.62236  0.42166  0.52532  1.0000
  C   C1153     1.0  0.62263  0.41487  0.49368  1.0000
  C   C1154     1.0  0.61885  0.43369  0.51085  1.0000
  C   C1155     1.0  0.63525  0.42473  0.52960  1.0000
  C   C1156     1.0  0.61356  0.41424  0.56482  1.0000
  C   C1157     1.0  0.61254  0.41935  0.59833  1.0000
  C   C1158     1.0  0.60599  0.40183  0.57157  1.0000
  C   C1159     1.0  0.60463  0.41239  0.63628  1.0000
  H   H1361     1.0  0.61329  0.41251  0.48795  1.0000
  H   H1362     1.0  0.62937  0.42071  0.46450  1.0000
  H   H1363     1.0  0.62568  0.40594  0.50189  1.0000
  H   H1364     1.0  0.60930  0.43183  0.50647  1.0000
  H   H1365     1.0  0.62555  0.43968  0.48172  1.0000
  H   H1366     1.0  0.61895  0.43967  0.53198  1.0000
  H   H1367     1.0  0.63797  0.41596  0.54247  1.0000
  H   H1368     1.0  0.64232  0.42983  0.50025  1.0000
  H   H1369     1.0  0.63630  0.43103  0.54949  1.0000
  H   H1370     1.0  0.61804  0.42872  0.59555  1.0000
  H   H1371     1.0  0.62132  0.38135  0.64720  1.0000
  H   H1372     1.0  0.60421  0.41638  0.66160  1.0000
  C   C1160     1.0  0.58463  0.43615  0.99320  1.0000
  C   C1161     1.0  0.56124  0.42070  0.05958  1.0000
  C   C1162     1.0  0.55428  0.41263  0.09731  1.0000
  C   C1163     1.0  0.55492  0.41627  0.13196  1.0000
  H   H1373     1.0  0.59164  0.43439  0.00999  1.0000
  H   H1374     1.0  0.58026  0.42695  0.98874  1.0000
  H   H1375     1.0  0.56026  0.41750  0.03359  1.0000
  H   H1376     1.0  0.54790  0.40372  0.09973  1.0000
  H   H1377     1.0  0.54906  0.41023  0.16100  1.0000
  N   N76       1.0  0.63653  0.40369  0.84170  1.0000
  H   H1378     1.0  0.59734  0.29809  0.14662  1.0000
  C   C1164     1.0  0.64198  0.41752  0.83345  1.0000
  C   C1165     1.0  0.62498  0.40013  0.87568  1.0000
  C   C1166     1.0  0.63360  0.39999  0.80660  1.0000
  C   C1167     1.0  0.62739  0.38727  0.81069  1.0000
  C   C1168     1.0  0.63706  0.40862  0.76754  1.0000
  C   C1169     1.0  0.62431  0.38356  0.77834  1.0000
  C   C1170     1.0  0.57183  0.48488  0.29416  1.0000
  C   C1171     1.0  0.62751  0.39230  0.74080  1.0000
  C   C1172     1.0  0.53848  0.33760  0.97287  1.0000
  H   H1379     1.0  0.51492  0.37836  0.03080  1.0000
  H   H1380     1.0  0.61783  0.29273  0.05837  1.0000
  H   H1381     1.0  0.65275  0.38362  0.97294  1.0000
  C   C1173     1.0  0.63159  0.30139  0.92896  1.0000
  H   H1382     1.0  0.63549  0.42317  0.82392  1.0000
  H   H1383     1.0  0.62118  0.38969  0.88750  1.0000
  H   H1384     1.0  0.62677  0.40342  0.90177  1.0000
  H   H1385     1.0  0.61746  0.40421  0.86639  1.0000
  H   H1386     1.0  0.61696  0.29609  0.10594  1.0000
  C   C1174     1.0  0.61214  0.33072  0.05693  1.0000
  H   H1387     1.0  0.61808  0.32525  0.55257  1.0000
  C   C1175     1.0  0.60052  0.25625  0.18186  1.0000
  H   H1388     1.0  0.65157  0.34877  0.64107  1.0000
  C   C1176     1.0  0.57299  0.28817  0.70502  1.0000
  C   C1177     1.0  0.58060  0.43488  0.53363  1.0000
  C   C1178     1.0  0.56956  0.43613  0.09149  1.0000
  H   H1389     1.0  0.56551  0.30918  0.63224  1.0000
  C   C1179     1.0  0.57806  0.41220  0.55319  1.0000
  C   C1180     1.0  0.58178  0.45440  0.01596  1.0000
  C   C1181     1.0  0.57344  0.43363  0.50659  1.0000
  H   H1390     1.0  0.59428  0.31876  0.61926  1.0000
  H   H1391     1.0  0.57495  0.44520  0.09166  1.0000
  H   H1392     1.0  0.58633  0.46094  0.98527  1.0000
  H   H1393     1.0  0.56164  0.43483  0.98494  1.0000
  H   H1394     1.0  0.62808  0.28176  0.92840  1.0000
  H   H1395     1.0  0.57209  0.44232  0.48943  1.0000
  C   C1182     1.0  0.56592  0.44359  0.99195  1.0000
  H   H1396     1.0  0.57509  0.45908  0.03172  1.0000
  C   C1183     1.0  0.56828  0.42149  0.50235  1.0000
  H   H1397     1.0  0.62926  0.45731  0.96267  1.0000
  H   H1398     1.0  0.60623  0.39702  0.54823  1.0000
  H   H1399     1.0  0.54955  0.40059  0.50713  1.0000
  H   H1400     1.0  0.54345  0.41308  0.52238  1.0000
  H   H1401     1.0  0.56765  0.40136  0.52369  1.0000
  N   N77       1.0  0.57774  0.31182  0.66995  1.0000
  H   H1402     1.0  0.57493  0.32475  0.70671  1.0000
  H   H1403     1.0  0.58838  0.31846  0.70790  1.0000
  H   H1404     1.0  0.51264  0.35879  0.43842  1.0000
  H   H1405     1.0  0.62315  0.47568  0.46571  1.0000
  H   H1406     1.0  0.62498  0.38939  0.71588  1.0000
  S   S323      1.0  0.60255  0.47538  0.12575  1.0000
  C   C1184     1.0  0.58256  0.32178  0.68822  1.0000
  H   H1407     1.0  0.59525  0.30624  0.65877  1.0000
  C   C1185     1.0  0.59741  0.40023  0.64193  1.0000
  C   C1186     1.0  0.62104  0.41575  0.09355  1.0000
  N   N78       1.0  0.56061  0.41973  0.47427  1.0000
  H   H1408     1.0  0.56206  0.41364  0.42026  1.0000
  H   H1409     1.0  0.54205  0.40951  0.47653  1.0000
  H   H1410     1.0  0.55257  0.43579  0.47643  1.0000
  H   H1411     1.0  0.60236  0.40165  0.97524  1.0000
  S   S324      1.0  0.58864  0.47271  0.45366  1.0000
  Fe  Fe162     1.0  0.57483  0.48465  0.46032  1.0000
  S   S325      1.0  0.61793  0.46848  0.02103  1.0000
  C   C1187     1.0  0.58872  0.30978  0.64237  1.0000
  H   H1412     1.0  0.58577  0.30307  0.62521  1.0000
  C   C1188     1.0  0.56970  0.31657  0.64532  1.0000
  H   H1413     1.0  0.64233  0.32025  0.98162  1.0000
  C   C1189     1.0  0.63617  0.46010  0.97789  1.0000
  C   C1190     1.0  0.56745  0.41493  0.44239  1.0000
  C   C1191     1.0  0.55772  0.43159  0.45427  1.0000
  H   H1414     1.0  0.56925  0.40556  0.45472  1.0000
  H   H1415     1.0  0.49194  0.44395  0.57403  1.0000
  C   C1192     1.0  0.59802  0.39501  0.60961  1.0000
  C   C1193     1.0  0.63332  0.46650  0.00724  1.0000
  H   H1416     1.0  0.57670  0.42165  0.42558  1.0000
  C   C1194     1.0  0.61923  0.25849  0.20562  1.0000
  C   C1195     1.0  0.53206  0.35670  0.04846  1.0000
  H   H1417     1.0  0.57679  0.40278  0.08246  1.0000
  H   H1418     1.0  0.58836  0.33064  0.66499  1.0000
  C   C1196     1.0  0.62602  0.47106  0.49111  1.0000
  C   C1197     1.0  0.59383  0.25775  0.21832  1.0000
  C   C1198     1.0  0.51951  0.37080  0.02690  1.0000
  H   H1419     1.0  0.59139  0.39476  0.67151  1.0000
  H   H1420     1.0  0.58395  0.25746  0.22347  1.0000
  C   C1199     1.0  0.51030  0.48199  0.05364  1.0000
  H   H1421     1.0  0.52796  0.48522  0.41534  1.0000
  C   C1200     1.0  0.52678  0.37941  0.34513  1.0000
  H   H1422     1.0  0.61739  0.33791  0.06725  1.0000
  C   C1201     1.0  0.55827  0.45976  0.24770  1.0000
  Fe  Fe163     1.0  0.59910  0.48846  0.39742  1.0000
  H   H1423     1.0  0.64666  0.36959  0.93190  1.0000
  N   N79       1.0  0.53917  0.34185  0.00930  1.0000
  H   H1424     1.0  0.59240  0.38553  0.61423  1.0000
  H   H1425     1.0  0.64027  0.47522  0.04896  1.0000
  C   C1202     1.0  0.64238  0.47026  0.02630  1.0000
  H   H1426     1.0  0.63671  0.41142  0.70564  1.0000
  Fe  Fe164     1.0  0.62462  0.25527  0.01689  1.0000
  H   H1427     1.0  0.53469  0.48146  0.09665  1.0000
  C   C1203     1.0  0.62279  0.46364  0.56286  1.0000
  H   H1428     1.0  0.58094  0.39598  0.02004  1.0000
  C   C1204     1.0  0.61252  0.25988  0.24225  1.0000
  C   C1205     1.0  0.64783  0.45713  0.96832  1.0000
  C   C1206     1.0  0.63693  0.46658  0.48477  1.0000
  C   C1207     1.0  0.61897  0.46971  0.53018  1.0000
  H   H1429     1.0  0.52382  0.32668  0.04926  1.0000
  H   H1430     1.0  0.53621  0.47965  0.34095  1.0000
  H   H1431     1.0  0.61858  0.25558  0.14773  1.0000
  C   C1208     1.0  0.52579  0.35673  0.98754  1.0000
  C   C1209     1.0  0.53405  0.33049  0.04446  1.0000
  Fe  Fe165     1.0  0.58426  0.47688  0.11327  1.0000
  C   C1210     1.0  0.49308  0.46744  0.58717  1.0000
  S   S326      1.0  0.62046  0.26134  0.27971  1.0000
  H   H1432     1.0  0.57514  0.32497  0.61987  1.0000
  S   S327      1.0  0.49456  0.41153  0.32699  1.0000
  S   S328      1.0  0.60576  0.48116  0.34361  1.0000
  H   H1433     1.0  0.55420  0.34939  0.03296  1.0000
  C   C1211     1.0  0.52379  0.49552  0.90798  1.0000
  H   H1434     1.0  0.63778  0.27912  0.03781  1.0000
  H   H1435     1.0  0.49762  0.36942  0.44735  1.0000
  C   C1212     1.0  0.49320  0.47984  0.02018  1.0000
  H   H1436     1.0  0.59064  0.27581  0.08781  1.0000
  C   C1213     1.0  0.49630  0.41251  0.24805  1.0000
  C   C1214     1.0  0.53212  0.36369  0.40890  1.0000
  H   H1437     1.0  0.65495  0.33616  0.91870  1.0000
  C   C1215     1.0  0.55474  0.48980  0.33758  1.0000
  C   C1216     1.0  0.54179  0.37084  0.37503  1.0000
  N   N80       1.0  0.56826  0.46881  0.25556  1.0000
  H   H1438     1.0  0.65321  0.37470  0.64933  1.0000
  H   H1439     1.0  0.64212  0.41841  0.76095  1.0000
  H   H1440     1.0  0.54394  0.33034  0.96923  1.0000
  C   C1217     1.0  0.49587  0.35995  0.38570  1.0000
  H   H1441     1.0  0.61666  0.31820  0.93299  1.0000
  H   H1442     1.0  0.65574  0.39985  0.55488  1.0000
  C   C1218     1.0  0.64085  0.46063  0.51735  1.0000
  H   H1443     1.0  0.56996  0.48359  0.20274  1.0000
  C   C1219     1.0  0.56339  0.47597  0.28349  1.0000
  H   H1444     1.0  0.63664  0.45452  0.58180  1.0000
  C   C1220     1.0  0.60255  0.30826  0.06514  1.0000
  H   H1445     1.0  0.52397  0.47395  0.58716  1.0000
  H   H1446     1.0  0.52543  0.38578  0.31960  1.0000
  C   C1221     1.0  0.65525  0.30407  0.87822  1.0000
  H   H1447     1.0  0.61689  0.34058  0.48795  1.0000
  H   H1448     1.0  0.62224  0.33486  0.92322  1.0000
  H   H1449     1.0  0.58397  0.48452  0.21902  1.0000
  H   H1450     1.0  0.64907  0.28415  0.88360  1.0000
  H   H1451     1.0  0.52594  0.37000  0.07954  1.0000
  H   H1452     1.0  0.64856  0.33919  0.87596  1.0000
  N   N81       1.0  0.59974  0.29471  0.08791  1.0000
  H   H1453     1.0  0.55826  0.34001  0.99970  1.0000
  C   C1222     1.0  0.50190  0.38182  0.34767  1.0000
  H   H1454     1.0  0.51089  0.46663  0.89826  1.0000
  C   C1223     1.0  0.55037  0.47442  0.30069  1.0000
  C   C1224     1.0  0.63401  0.40475  0.73527  1.0000
  S   S329      1.0  0.60544  0.47562  0.53908  1.0000
  C   C1225     1.0  0.51757  0.47403  0.90331  1.0000
  C   C1226     1.0  0.64320  0.38144  0.97135  1.0000
  C   C1227     1.0  0.59254  0.28593  0.07034  1.0000
  C   C1228     1.0  0.58620  0.40559  0.06234  1.0000
  H   H1455     1.0  0.62333  0.44166  0.07302  1.0000
  C   C1229     1.0  0.62491  0.32629  0.91645  1.0000
  C   C1230     1.0  0.60123  0.32523  0.00972  1.0000
  H   H1456     1.0  0.62230  0.29979  0.94864  1.0000
  C   C1231     1.0  0.60857  0.48201  0.26441  1.0000
  H   H1457     1.0  0.59773  0.28661  0.03906  1.0000
  C   C1232     1.0  0.52577  0.36611  0.05423  1.0000
  H   H1458     1.0  0.64052  0.36125  0.51944  1.0000
  N   N82       1.0  0.61879  0.42384  0.05803  1.0000
  S   S330      1.0  0.63872  0.39702  0.01990  1.0000
  C   C1233     1.0  0.60850  0.41641  0.04667  1.0000
  H   H1459     1.0  0.62363  0.40710  0.08692  1.0000
  H   H1460     1.0  0.53429  0.35789  0.43408  1.0000
  H   H1461     1.0  0.61092  0.48236  0.20207  1.0000
  H   H1462     1.0  0.62608  0.31335  0.98828  1.0000
  H   H1463     1.0  0.59787  0.32810  0.98355  1.0000
  S   S331      1.0  0.61419  0.25067  0.97320  1.0000
  C   C1234     1.0  0.59977  0.25957  0.24834  1.0000
  H   H1464     1.0  0.63319  0.32486  0.56033  1.0000
  H   H1465     1.0  0.64302  0.34468  0.91865  1.0000
  H   H1466     1.0  0.50498  0.37929  0.31909  1.0000
  H   H1467     1.0  0.52556  0.35374  0.96079  1.0000
  C   C1235     1.0  0.65639  0.26888  0.54971  1.0000
  H   H1468     1.0  0.62888  0.29286  0.53719  1.0000
  N   N83       1.0  0.50104  0.47331  0.04193  1.0000
  H   H1469     1.0  0.64659  0.30206  0.02681  1.0000
  H   H1470     1.0  0.51926  0.46739  0.07762  1.0000
  H   H1471     1.0  0.49194  0.38228  0.35126  1.0000
  H   H1472     1.0  0.61252  0.44093  0.04325  1.0000
  H   H1473     1.0  0.61737  0.46258  0.59318  1.0000
  H   H1474     1.0  0.64242  0.46778  0.45439  1.0000
  H   H1475     1.0  0.53005  0.46219  0.91511  1.0000
  S   S332      1.0  0.65456  0.45509  0.50741  1.0000
  C   C1236     1.0  0.63390  0.32188  0.97198  1.0000
  H   H1476     1.0  0.61922  0.37387  0.78249  1.0000
  H   H1477     1.0  0.54256  0.34562  0.94504  1.0000
  C   C1237     1.0  0.53913  0.37870  0.34327  1.0000
  H   H1478     1.0  0.59449  0.26073  0.27615  1.0000
  H   H1479     1.0  0.52865  0.33320  0.97421  1.0000
  C   C1238     1.0  0.53227  0.35169  0.01493  1.0000
  H   H1480     1.0  0.51495  0.37017  0.97191  1.0000
  H   H1481     1.0  0.59330  0.30584  0.01812  1.0000
  C   C1239     1.0  0.59602  0.41280  0.07205  1.0000
  C   C1240     1.0  0.65413  0.46737  0.01644  1.0000
  H   H1482     1.0  0.53695  0.35353  0.07016  1.0000
  H   H1483     1.0  0.63815  0.43468  0.03385  1.0000
  C   C1241     1.0  0.51954  0.36615  0.99364  1.0000
  C   C1242     1.0  0.59858  0.31236  0.03019  1.0000
  H   H1484     1.0  0.51248  0.46023  0.03042  1.0000
  C   C1243     1.0  0.65680  0.46058  0.98796  1.0000
  C   C1244     1.0  0.61329  0.25670  0.17559  1.0000
  C   C1245     1.0  0.57642  0.46136  0.27223  1.0000
  C   C1246     1.0  0.52303  0.45790  0.54651  1.0000
  H   H1485     1.0  0.62954  0.43388  0.99729  1.0000
  C   C1247     1.0  0.50571  0.46646  0.57778  1.0000
  H   H1486     1.0  0.55225  0.45261  0.27579  1.0000
  H   H1487     1.0  0.65106  0.42077  0.80974  1.0000
  H   H1488     1.0  0.58042  0.45606  0.25154  1.0000
  H   H1489     1.0  0.51033  0.45654  0.49278  1.0000
  Fe  Fe166     1.0  0.60543  0.49642  0.11880  1.0000
  C   C1248     1.0  0.64566  0.39688  0.85448  1.0000
  C   C1249     1.0  0.51975  0.36434  0.41113  1.0000
  H   H1490     1.0  0.49772  0.46249  0.51411  1.0000
  H   H1491     1.0  0.57105  0.45428  0.30128  1.0000
  H   H1492     1.0  0.57958  0.47278  0.19466  1.0000
  C   C1250     1.0  0.64606  0.28613  0.45614  1.0000
  C   C1251     1.0  0.63480  0.29096  0.91749  1.0000
  C   C1252     1.0  0.64622  0.33663  0.90932  1.0000
  C   C1253     1.0  0.60063  0.40500  0.00192  1.0000
  C   C1254     1.0  0.65115  0.29707  0.00742  1.0000
  C   C1255     1.0  0.51002  0.48143  0.61728  1.0000
  H   H1493     1.0  0.54672  0.38438  0.31721  1.0000
  H   H1494     1.0  0.58964  0.28254  0.14727  1.0000
  H   H1495     1.0  0.58448  0.46739  0.27777  1.0000
  C   C1256     1.0  0.60947  0.31786  0.07778  1.0000
  C   C1257     1.0  0.63080  0.42841  0.02570  1.0000
  H   H1496     1.0  0.63764  0.32023  0.49581  1.0000
  H   H1497     1.0  0.61262  0.41250  0.11992  1.0000
  H   H1498     1.0  0.62617  0.32741  0.88376  1.0000
  H   H1499     1.0  0.64839  0.39955  0.88036  1.0000
  S   S333      1.0  0.49583  0.40672  0.43844  1.0000
  S   S334      1.0  0.64582  0.26109  0.99655  1.0000
  S   S335      1.0  0.65345  0.43495  0.62042  1.0000
  H   H1500     1.0  0.59379  0.41529  0.10005  1.0000
  C   C1258     1.0  0.50769  0.46267  0.51248  1.0000
  H   H1501     1.0  0.50101  0.46062  0.00385  1.0000
  C   C1259     1.0  0.52838  0.47158  0.91259  1.0000
  C   C1260     1.0  0.60799  0.33440  0.02304  1.0000
  H   H1502     1.0  0.49721  0.41238  0.18669  1.0000
  H   H1503     1.0  0.61980  0.41381  0.99138  1.0000
  H   H1504     1.0  0.55139  0.37047  0.37389  1.0000
  C   C1261     1.0  0.64830  0.35720  0.51013  1.0000
  H   H1505     1.0  0.63485  0.42048  0.01960  1.0000
  C   C1262     1.0  0.64659  0.29230  0.89209  1.0000
  S   S336      1.0  0.62360  0.25228  0.38639  1.0000
  H   H1506     1.0  0.62480  0.38006  0.83904  1.0000
  N   N84       1.0  0.63646  0.32445  0.92780  1.0000
  H   H1507     1.0  0.54504  0.47840  0.92710  1.0000
  C   C1263     1.0  0.51413  0.47382  0.59327  1.0000
  H   H1508     1.0  0.51660  0.48711  0.62845  1.0000
  C   C1264     1.0  0.64016  0.31355  0.91531  1.0000
  H   H1509     1.0  0.62666  0.33809  0.56625  1.0000
  H   H1510     1.0  0.62886  0.42091  0.10281  1.0000
  H   H1511     1.0  0.63094  0.35262  0.45957  1.0000
  C   C1265     1.0  0.60671  0.48878  0.29332  1.0000
  C   C1266     1.0  0.65195  0.27747  0.98886  1.0000
  H   H1512     1.0  0.64181  0.38642  0.86402  1.0000
  C   C1267     1.0  0.49831  0.37651  0.41901  1.0000
  N   N85       1.0  0.50964  0.45817  0.55262  1.0000
  Fe  Fe167     1.0  0.59871  0.48426  0.48627  1.0000
  H   H1513     1.0  0.52516  0.45445  0.57554  1.0000
  C   C1268     1.0  0.53699  0.48107  0.91946  1.0000
  H   H1514     1.0  0.54486  0.49620  0.43701  1.0000
  H   H1515     1.0  0.50884  0.49315  0.41564  1.0000
  H   H1516     1.0  0.49446  0.48807  0.64454  1.0000
  H   H1517     1.0  0.51327  0.47260  0.49715  1.0000
  C   C1269     1.0  0.54617  0.48125  0.32740  1.0000
  C   C1270     1.0  0.50761  0.46670  0.01511  1.0000
  H   H1518     1.0  0.65666  0.27128  0.51734  1.0000
  C   C1271     1.0  0.56755  0.49165  0.32085  1.0000
  H   H1519     1.0  0.55148  0.49487  0.35887  1.0000
  H   H1520     1.0  0.65438  0.39910  0.82953  1.0000
  H   H1521     1.0  0.50289  0.44132  0.60259  1.0000
  H   H1522     1.0  0.52941  0.46744  0.53019  1.0000
  C   C1272     1.0  0.60936  0.48764  0.22404  1.0000
  H   H1523     1.0  0.53446  0.49682  0.98971  1.0000
  C   C1273     1.0  0.51530  0.48600  0.90089  1.0000
  H   H1524     1.0  0.50721  0.39164  0.34419  1.0000
  H   H1525     1.0  0.65441  0.36248  0.68834  1.0000
  H   H1526     1.0  0.65220  0.36262  0.60229  1.0000
  H   H1527     1.0  0.52560  0.45138  0.52813  1.0000
  H   H1528     1.0  0.49910  0.48718  0.99219  1.0000
  Fe  Fe168     1.0  0.60077  0.25129  0.08332  1.0000
  H   H1529     1.0  0.65075  0.25895  0.56455  1.0000
  C   C1274     1.0  0.50204  0.44491  0.57173  1.0000
  C   C1275     1.0  0.51073  0.49512  0.04825  1.0000
  H   H1530     1.0  0.58185  0.48657  0.28232  1.0000
  H   H1531     1.0  0.50493  0.43833  0.55399  1.0000
  S   S337      1.0  0.58363  0.49469  0.49879  1.0000
  C   C1276     1.0  0.52713  0.49370  0.42483  1.0000
  H   H1532     1.0  0.55364  0.49185  0.95733  1.0000
  H   H1533     1.0  0.65113  0.27522  0.56265  1.0000
  S   S338      1.0  0.49261  0.43431  0.49157  1.0000
  H   H1534     1.0  0.49759  0.45748  0.09427  1.0000
  C   C1277     1.0  0.53494  0.49339  0.91739  1.0000
  H   H1535     1.0  0.49100  0.43865  0.96936  1.0000
  C   C1278     1.0  0.49254  0.46370  0.07849  1.0000
  H   H1536     1.0  0.65677  0.33139  0.48558  1.0000
  Fe  Fe169     1.0  0.52364  0.55809  0.59166  1.0000
  S   S339      1.0  0.51696  0.53930  0.63819  1.0000
  S   S340      1.0  0.50578  0.56381  0.58431  1.0000
  Fe  Fe170     1.0  0.55040  0.55447  0.57368  1.0000
  S   S341      1.0  0.54530  0.53547  0.61871  1.0000
  S   S342      1.0  0.57002  0.56185  0.53227  1.0000
  Fe  Fe171     1.0  0.52881  0.53202  0.59419  1.0000
  S   S343      1.0  0.52103  0.51412  0.58004  1.0000
  Fe  Fe172     1.0  0.53395  0.54465  0.65904  1.0000
  S   S344      1.0  0.53004  0.53762  0.72660  1.0000
  S   S345      1.0  0.53469  0.55033  0.54596  1.0000
  S   S346      1.0  0.54007  0.56420  0.61571  1.0000
  H   H1537     1.0  0.59854  0.55608  0.54114  1.0000
  C   C1279     1.0  0.51968  0.50303  0.05947  1.0000
  H   H1538     1.0  0.49633  0.56880  0.86991  1.0000
  H   H1539     1.0  0.53876  0.51966  0.89186  1.0000
  H   H1540     1.0  0.51466  0.63222  0.07007  1.0000
  S   S347      1.0  0.49619  0.61828  0.52161  1.0000
  Fe  Fe173     1.0  0.59471  0.50885  0.44054  1.0000
  C   C1280     1.0  0.49931  0.62932  0.16761  1.0000
  S   S348      1.0  0.59894  0.52999  0.43300  1.0000
  H   H1541     1.0  0.53528  0.50435  0.08501  1.0000
  C   C1281     1.0  0.53599  0.51110  0.45040  1.0000
  N   N86       1.0  0.50766  0.61234  0.14201  1.0000
  H   H1542     1.0  0.49380  0.53964  0.53272  1.0000
  C   C1282     1.0  0.50523  0.58940  0.43261  1.0000
  C   C1283     1.0  0.49386  0.56290  0.46034  1.0000
  H   H1543     1.0  0.52543  0.61716  0.09696  1.0000
  C   C1284     1.0  0.51321  0.60938  0.17608  1.0000
  H   H1544     1.0  0.60296  0.53123  0.13684  1.0000
  H   H1545     1.0  0.52323  0.52349  0.46051  1.0000
  C   C1285     1.0  0.49346  0.60299  0.03905  1.0000
  N   N87       1.0  0.54351  0.50348  0.92644  1.0000
  C   C1286     1.0  0.54691  0.51552  0.89387  1.0000
  Fe  Fe174     1.0  0.53139  0.55920  0.91305  1.0000
  S   S349      1.0  0.53198  0.56583  0.96870  1.0000
  S   S350      1.0  0.54070  0.56989  0.84771  1.0000
  Fe  Fe175     1.0  0.51396  0.53388  0.95979  1.0000
  S   S351      1.0  0.51271  0.53805  0.01883  1.0000
  S   S352      1.0  0.50475  0.51456  0.95682  1.0000
  Fe  Fe176     1.0  0.51103  0.55744  0.98902  1.0000
  H   H1546     1.0  0.55395  0.51315  0.51501  1.0000
  Fe  Fe177     1.0  0.53354  0.54591  0.99486  1.0000
  S   S353      1.0  0.54400  0.53904  0.03938  1.0000
  S   S354      1.0  0.51044  0.55250  0.93156  1.0000
  S   S355      1.0  0.53482  0.54021  0.93788  1.0000
  C   C1287     1.0  0.51644  0.60670  0.37297  1.0000
  C   C1288     1.0  0.50156  0.65011  0.12395  1.0000
  C   C1289     1.0  0.55539  0.50025  0.93117  1.0000
  H   H1547     1.0  0.63129  0.51327  0.54294  1.0000
  S   S356      1.0  0.59028  0.51498  0.99755  1.0000
  H   H1548     1.0  0.52121  0.61700  0.36061  1.0000
  S   S357      1.0  0.61034  0.50785  0.16100  1.0000
  C   C1290     1.0  0.49525  0.58380  0.41884  1.0000
  H   H1549     1.0  0.49135  0.72740  0.83418  1.0000
  H   H1550     1.0  0.51027  0.53558  0.56521  1.0000
  C   C1291     1.0  0.55590  0.53117  0.02684  1.0000
  C   C1292     1.0  0.55955  0.52393  0.05786  1.0000
  C   C1293     1.0  0.56976  0.51852  0.04919  1.0000
  C   C1294     1.0  0.57659  0.52051  0.00936  1.0000
  C   C1295     1.0  0.57277  0.52752  0.97824  1.0000
  C   C1296     1.0  0.56238  0.53275  0.98689  1.0000
  H   H1551     1.0  0.55462  0.52274  0.08881  1.0000
  H   H1552     1.0  0.57253  0.51311  0.07341  1.0000
  H   H1553     1.0  0.57807  0.52918  0.94736  1.0000
  H   H1554     1.0  0.55978  0.53848  0.96278  1.0000
  H   H1555     1.0  0.49087  0.60514  0.12684  1.0000
  H   H1556     1.0  0.51221  0.51026  0.68686  1.0000
  H   H1557     1.0  0.61025  0.53297  0.03050  1.0000
  C   C1297     1.0  0.57381  0.55318  0.05772  1.0000
  C   C1298     1.0  0.58892  0.53881  0.58720  1.0000
  H   H1558     1.0  0.52197  0.61674  0.17134  1.0000
  H   H1559     1.0  0.61190  0.55865  0.08079  1.0000
  C   C1299     1.0  0.50347  0.56810  0.47502  1.0000
  C   C1300     1.0  0.49865  0.60306  0.53944  1.0000
  Fe  Fe178     1.0  0.59512  0.50135  0.04610  1.0000
  H   H1560     1.0  0.56615  0.52610  0.44200  1.0000
  S   S358      1.0  0.61469  0.50208  0.05169  1.0000
  C   C1301     1.0  0.49747  0.54364  0.73677  1.0000
  N   N88       1.0  0.49975  0.55763  0.72795  1.0000
  C   C1302     1.0  0.50478  0.58900  0.00999  1.0000
  C   C1303     1.0  0.50435  0.60107  0.01548  1.0000
  H   H1561     1.0  0.49631  0.60704  0.45876  1.0000
  H   H1562     1.0  0.52340  0.60119  0.36465  1.0000
  H   H1563     1.0  0.51318  0.58768  0.99141  1.0000
  H   H1564     1.0  0.51248  0.60898  0.00106  1.0000
  C   C1304     1.0  0.53710  0.50566  0.96457  1.0000
  C   C1305     1.0  0.51003  0.63441  0.09682  1.0000
  H   H1565     1.0  0.60437  0.50662  0.30340  1.0000
  C   C1306     1.0  0.50585  0.62541  0.13529  1.0000
  H   H1566     1.0  0.49372  0.72228  0.89928  1.0000
  C   C1307     1.0  0.60683  0.50705  0.24082  1.0000
  C   C1308     1.0  0.49532  0.60320  0.15180  1.0000
  C   C1309     1.0  0.50911  0.58114  0.46150  1.0000
  C   C1310     1.0  0.60865  0.50024  0.21197  1.0000
  C   C1311     1.0  0.61024  0.51064  0.51854  1.0000
  H   H1567     1.0  0.61705  0.50607  0.50287  1.0000
  H   H1568     1.0  0.57122  0.56119  0.00019  1.0000
  N   N89       1.0  0.61661  0.52183  0.52889  1.0000
  H   H1569     1.0  0.52906  0.60294  0.42833  1.0000
  C   C1312     1.0  0.53377  0.54686  0.75885  1.0000
  C   C1313     1.0  0.52983  0.54109  0.80037  1.0000
  C   C1314     1.0  0.53224  0.54806  0.82742  1.0000
  C   C1315     1.0  0.53843  0.56093  0.81340  1.0000
  C   C1316     1.0  0.54258  0.56671  0.77177  1.0000
  C   C1317     1.0  0.54029  0.55968  0.74449  1.0000
  H   H1570     1.0  0.52482  0.53118  0.81175  1.0000
  H   H1571     1.0  0.52931  0.54347  0.85921  1.0000
  H   H1572     1.0  0.54749  0.57665  0.76065  1.0000
  H   H1573     1.0  0.54351  0.56420  0.71250  1.0000
  C   C1318     1.0  0.57703  0.55227  0.50505  1.0000
  C   C1319     1.0  0.58748  0.55834  0.47208  1.0000
  C   C1320     1.0  0.59390  0.55130  0.45053  1.0000
  C   C1321     1.0  0.59009  0.53804  0.46174  1.0000
  C   C1322     1.0  0.57966  0.53180  0.49497  1.0000
  C   C1323     1.0  0.57303  0.53893  0.51641  1.0000
  H   H1574     1.0  0.59069  0.56859  0.46323  1.0000
  H   H1575     1.0  0.60195  0.55621  0.42505  1.0000
  H   H1576     1.0  0.57683  0.52155  0.50437  1.0000
  H   H1577     1.0  0.56513  0.53414  0.54238  1.0000
  C   C1324     1.0  0.50348  0.57909  0.56646  1.0000
  H   H1578     1.0  0.50672  0.60882  0.20532  1.0000
  H   H1579     1.0  0.49548  0.62293  0.19748  1.0000
  H   H1580     1.0  0.55795  0.52617  0.40420  1.0000
  C   C1325     1.0  0.50977  0.60211  0.55014  1.0000
  C   C1326     1.0  0.51226  0.59018  0.56314  1.0000
  H   H1581     1.0  0.63236  0.52557  0.47666  1.0000
  C   C1327     1.0  0.60468  0.52993  0.06252  1.0000
  H   H1582     1.0  0.51653  0.61067  0.54810  1.0000
  H   H1583     1.0  0.52087  0.58958  0.57121  1.0000
  H   H1584     1.0  0.55088  0.51406  0.86408  1.0000
  C   C1328     1.0  0.62563  0.53045  0.49114  1.0000
  C   C1329     1.0  0.49429  0.57872  0.02807  1.0000
  C   C1330     1.0  0.50951  0.51703  0.55593  1.0000
  C   C1331     1.0  0.50364  0.50786  0.54039  1.0000
  H   H1585     1.0  0.61787  0.51015  0.58451  1.0000
  H   H1586     1.0  0.51970  0.55952  0.70768  1.0000
  C   C1332     1.0  0.51529  0.50897  0.43751  1.0000
  S   S359      1.0  0.58455  0.49969  0.40257  1.0000
  C   C1333     1.0  0.59642  0.53561  0.12231  1.0000
  H   H1587     1.0  0.56149  0.51188  0.42893  1.0000
  C   C1334     1.0  0.59841  0.54620  0.55319  1.0000
  S   S360      1.0  0.61050  0.49913  0.42984  1.0000
  H   H1588     1.0  0.53594  0.52764  0.49946  1.0000
  C   C1335     1.0  0.57749  0.55741  0.01596  1.0000
  C   C1336     1.0  0.59750  0.52062  0.58354  1.0000
  H   H1589     1.0  0.51999  0.51307  0.05470  1.0000
  H   H1590     1.0  0.55241  0.53403  0.48378  1.0000
  H   H1591     1.0  0.56064  0.49830  0.90365  1.0000
  H   H1592     1.0  0.49429  0.60901  0.40947  1.0000
  H   H1593     1.0  0.62021  0.54632  0.08595  1.0000
  H   H1594     1.0  0.51087  0.65315  0.06168  1.0000
  C   C1337     1.0  0.51216  0.56339  0.69785  1.0000
  C   C1338     1.0  0.51608  0.61031  0.10659  1.0000
  C   C1339     1.0  0.62389  0.51756  0.55695  1.0000
  N   N90       1.0  0.54622  0.51737  0.46466  1.0000
  C   C1340     1.0  0.50243  0.50997  0.69947  1.0000
  H   H1595     1.0  0.58103  0.52032  0.62881  1.0000
  H   H1596     1.0  0.50015  0.70886  0.89476  1.0000
  C   C1341     1.0  0.50167  0.52800  0.88702  1.0000
  H   H1597     1.0  0.57795  0.54441  0.11062  1.0000
  H   H1598     1.0  0.50686  0.51235  0.43792  1.0000
  C   C1342     1.0  0.49665  0.53085  0.53419  1.0000
  C   C1343     1.0  0.53679  0.50006  0.43728  1.0000
  C   C1344     1.0  0.49459  0.51159  0.67435  1.0000
  C   C1345     1.0  0.49918  0.51610  0.91427  1.0000
  H   H1599     1.0  0.59590  0.52308  0.06461  1.0000
  H   H1600     1.0  0.58762  0.52800  0.13016  1.0000
  H   H1601     1.0  0.52536  0.61806  0.42291  1.0000
  H   H1602     1.0  0.61416  0.54708  0.50675  1.0000
  C   C1346     1.0  0.52125  0.60762  0.43485  1.0000
  H   H1603     1.0  0.54957  0.49989  0.49614  1.0000
  H   H1604     1.0  0.53770  0.50546  0.52500  1.0000
  H   H1605     1.0  0.59679  0.51070  0.59660  1.0000
  H   H1606     1.0  0.49160  0.58953  0.39755  1.0000
  H   H1607     1.0  0.52840  0.50879  0.96286  1.0000
  C   C1347     1.0  0.55842  0.52048  0.43359  1.0000
  H   H1608     1.0  0.56464  0.55369  0.07400  1.0000
  H   H1609     1.0  0.61879  0.55382  0.03777  1.0000
  C   C1348     1.0  0.50788  0.64656  0.09146  1.0000
  C   C1349     1.0  0.61369  0.55029  0.07027  1.0000
  H   H1610     1.0  0.59165  0.55931  0.96198  1.0000
  C   C1350     1.0  0.58847  0.52604  0.60241  1.0000
  C   C1351     1.0  0.49788  0.50843  0.74044  1.0000
  C   C1352     1.0  0.58155  0.54774  0.07836  1.0000
  H   H1611     1.0  0.56175  0.50812  0.93709  1.0000
  C   C1353     1.0  0.50863  0.56978  0.81310  1.0000
  C   C1354     1.0  0.50603  0.52853  0.55260  1.0000
  C   C1355     1.0  0.60718  0.52783  0.54833  1.0000
  H   H1612     1.0  0.49872  0.51318  0.64261  1.0000
  C   C1356     1.0  0.59333  0.54641  0.05739  1.0000
  C   C1357     1.0  0.52488  0.51536  0.45026  1.0000
  H   H1613     1.0  0.63133  0.53881  0.49667  1.0000
  N   N91       1.0  0.60179  0.54066  0.07805  1.0000
  C   C1358     1.0  0.60572  0.50130  0.28145  1.0000
  H   H1614     1.0  0.49875  0.71530  0.82211  1.0000
  C   C1359     1.0  0.49731  0.64151  0.16194  1.0000
  H   H1615     1.0  0.58179  0.54298  0.60129  1.0000
  C   C1360     1.0  0.50139  0.61029  0.42631  1.0000
  S   S361      1.0  0.49343  0.61831  0.04555  1.0000
  H   H1616     1.0  0.51766  0.60579  0.46794  1.0000
  H   H1617     1.0  0.49618  0.59322  0.15673  1.0000
  H   H1618     1.0  0.50649  0.56204  0.49751  1.0000
  C   C1361     1.0  0.50963  0.56709  0.77606  1.0000
  H   H1619     1.0  0.50433  0.49956  0.03520  1.0000
  C   C1362     1.0  0.60737  0.54084  0.53368  1.0000
  H   H1620     1.0  0.50427  0.54012  0.75209  1.0000
  H   H1621     1.0  0.61018  0.52470  0.07965  1.0000
  H   H1622     1.0  0.49968  0.65943  0.11959  1.0000
  H   H1623     1.0  0.55396  0.52304  0.89870  1.0000
  H   H1624     1.0  0.51633  0.58450  0.47484  1.0000
  C   C1363     1.0  0.49420  0.51017  0.52205  1.0000
  H   H1625     1.0  0.60556  0.55012  0.99677  1.0000
  C   C1364     1.0  0.58897  0.55629  0.99453  1.0000
  H   H1626     1.0  0.51558  0.60000  0.17987  1.0000
  C   C1365     1.0  0.54691  0.50859  0.50171  1.0000
  H   H1627     1.0  0.60406  0.50302  0.54525  1.0000
  H   H1628     1.0  0.62066  0.53383  0.46854  1.0000
  C   C1366     1.0  0.59682  0.55093  0.01481  1.0000
  H   H1629     1.0  0.51475  0.57391  0.69177  1.0000
  H   H1630     1.0  0.51201  0.61125  0.08065  1.0000
  H   H1631     1.0  0.60633  0.51682  0.23171  1.0000
  H   H1632     1.0  0.62853  0.52563  0.56650  1.0000
  H   H1633     1.0  0.59453  0.54323  0.13662  1.0000
  N   N92       1.0  0.51106  0.60323  0.41717  1.0000
  H   H1634     1.0  0.49622  0.53941  0.83988  1.0000
  C   C1367     1.0  0.49127  0.71190  0.90218  1.0000
  H   H1635     1.0  0.54374  0.53637  0.44754  1.0000
  C   C1368     1.0  0.54444  0.52936  0.47411  1.0000
  C   C1369     1.0  0.49231  0.58003  0.55615  1.0000
  H   H1636     1.0  0.50841  0.53585  0.88869  1.0000
  H   H1637     1.0  0.50548  0.62071  0.41875  1.0000
  H   H1638     1.0  0.60442  0.51351  0.49838  1.0000
  C   C1370     1.0  0.49061  0.52161  0.51931  1.0000
  H   H1639     1.0  0.54318  0.51315  0.97290  1.0000
  C   C1371     1.0  0.49487  0.52998  0.85884  1.0000
  C   C1372     1.0  0.49891  0.56118  0.76609  1.0000
  H   H1640     1.0  0.51897  0.56956  0.75604  1.0000
  H   H1641     1.0  0.50912  0.60491  0.35711  1.0000
  H   H1642     1.0  0.51701  0.57406  0.82027  1.0000
  H   H1643     1.0  0.49837  0.54043  0.70902  1.0000
  H   H1644     1.0  0.49217  0.64425  0.18700  1.0000
  H   H1645     1.0  0.50406  0.50749  0.75973  1.0000
  C   C1373     1.0  0.49112  0.50572  0.90976  1.0000
  H   H1646     1.0  0.50643  0.49902  0.54221  1.0000
  S   S362      1.0  0.49412  0.56346  0.02070  1.0000
  H   H1647     1.0  0.51760  0.60056  0.11283  1.0000
  H   H1648     1.0  0.52147  0.50455  0.90637  1.0000
  C   C1374     1.0  0.49698  0.56676  0.84118  1.0000
  H   H1649     1.0  0.51226  0.56136  0.66851  1.0000
  C   C1375     1.0  0.51638  0.49814  0.42499  1.0000
  C   C1376     1.0  0.52834  0.49815  0.07657  1.0000
  H   H1650     1.0  0.49131  0.56011  0.67858  1.0000
  H   H1651     1.0  0.49099  0.57211  0.70487  1.0000
  H   H1652     1.0  0.57426  0.49818  0.32903  1.0000
  Fe  Fe179     1.0  0.53293  0.94917  0.58690  1.0000
  S   S363      1.0  0.53183  0.92962  0.62315  1.0000
  S   S364      1.0  0.51485  0.95492  0.59245  1.0000
  Fe  Fe180     1.0  0.56090  0.95599  0.55375  1.0000
  S   S365      1.0  0.56203  0.93660  0.58652  1.0000
  S   S366      1.0  0.57851  0.97081  0.51321  1.0000
  Fe  Fe181     1.0  0.54512  0.92840  0.56751  1.0000
  S   S367      1.0  0.54284  0.90906  0.55283  1.0000
  Fe  Fe182     1.0  0.54850  0.93930  0.63909  1.0000
  S   S368      1.0  0.55015  0.93311  0.70255  1.0000
  S   S369      1.0  0.54524  0.94765  0.52990  1.0000
  S   S370      1.0  0.54838  0.95904  0.60761  1.0000
  C   C1377     1.0  0.49455  0.85519  0.25189  1.0000
  H   H1653     1.0  0.53792  0.88308  0.54962  1.0000
  H   H1654     1.0  0.58107  0.95100  0.61996  1.0000
  C   C1378     1.0  0.51639  0.89886  0.49516  1.0000
  N   N93       1.0  0.50530  0.93687  0.72229  1.0000
  Fe  Fe183     1.0  0.52509  0.95277  0.97483  1.0000
  S   S371      1.0  0.53838  0.94932  0.01151  1.0000
  S   S372      1.0  0.50506  0.95225  0.00254  1.0000
  Fe  Fe184     1.0  0.54480  0.95809  0.89469  1.0000
  S   S373      1.0  0.55979  0.95480  0.92586  1.0000
  S   S374      1.0  0.54568  0.96575  0.82866  1.0000
  Fe  Fe185     1.0  0.54441  0.93790  0.96895  1.0000
  S   S375      1.0  0.54476  0.91756  0.99802  1.0000
  Fe  Fe186     1.0  0.55235  0.96651  0.96640  1.0000
  S   S376      1.0  0.56089  0.98541  0.97878  1.0000
  S   S377      1.0  0.53030  0.94070  0.93449  1.0000
  S   S378      1.0  0.53824  0.97051  0.93247  1.0000
  H   H1655     1.0  0.57575  0.96439  0.73525  1.0000
  H   H1656     1.0  0.53808  0.95993  0.09021  1.0000
  H   H1657     1.0  0.60560  0.97106  0.65080  1.0000
  H   H1658     1.0  0.52097  0.97978  0.53250  1.0000
  H   H1659     1.0  0.51591  0.79588  0.18188  1.0000
  H   H1660     1.0  0.51041  0.90337  0.47989  1.0000
  H   H1661     1.0  0.49573  0.80635  0.11944  1.0000
  H   H1662     1.0  0.50168  0.97896  0.00686  1.0000
  H   H1663     1.0  0.53881  0.83665  0.02426  1.0000
  C   C1379     1.0  0.53088  0.99575  0.99929  1.0000
  C   C1380     1.0  0.57783  0.98807  0.02535  1.0000
  N   N94       1.0  0.51818  0.98758  0.02222  1.0000
  H   H1664     1.0  0.50953  0.89436  0.96025  1.0000
  S   S379      1.0  0.49319  0.85833  0.32713  1.0000
  H   H1665     1.0  0.57760  0.97815  0.02848  1.0000
  S   S380      1.0  0.50152  0.83352  0.07967  1.0000
  C   C1381     1.0  0.57364  0.98315  0.72331  1.0000
  N   N95       1.0  0.50981  0.98606  0.49347  1.0000
  C   C1382     1.0  0.58221  0.97374  0.67017  1.0000
  C   C1383     1.0  0.50468  0.87834  0.65198  1.0000
  C   C1384     1.0  0.52447  0.90476  0.97788  1.0000
  C   C1385     1.0  0.53229  0.90427  0.00338  1.0000
  C   C1386     1.0  0.52455  0.90607  0.51147  1.0000
  H   H1666     1.0  0.50360  0.88686  0.57899  1.0000
  H   H1667     1.0  0.52495  0.91602  0.50817  1.0000
  H   H1668     1.0  0.52581  0.91338  0.95470  1.0000
  C   C1387     1.0  0.52153  0.82078  0.13680  1.0000
  H   H1669     1.0  0.50508  0.91886  0.53822  1.0000
  C   C1388     1.0  0.52707  0.81948  0.06819  1.0000
  C   C1389     1.0  0.53053  0.89277  0.03268  1.0000
  H   H1670     1.0  0.52940  0.98993  0.46031  1.0000
  H   H1671     1.0  0.49668  0.95238  0.72612  1.0000
  C   C1390     1.0  0.51833  0.97588  0.05143  1.0000
  C   C1391     1.0  0.54851  0.94224  0.73738  1.0000
  C   C1392     1.0  0.54885  0.93695  0.77677  1.0000
  C   C1393     1.0  0.54780  0.94397  0.80525  1.0000
  C   C1394     1.0  0.54643  0.95636  0.79450  1.0000
  C   C1395     1.0  0.54590  0.96159  0.75525  1.0000
  C   C1396     1.0  0.54702  0.95461  0.72668  1.0000
  H   H1672     1.0  0.54999  0.92739  0.78534  1.0000
  H   H1673     1.0  0.54821  0.93983  0.83539  1.0000
  H   H1674     1.0  0.54489  0.97121  0.74666  1.0000
  H   H1675     1.0  0.54686  0.95885  0.69639  1.0000
  C   C1397     1.0  0.58600  0.98503  0.52182  1.0000
  C   C1398     1.0  0.49381  0.83643  0.30285  1.0000
  H   H1676     1.0  0.51932  0.93510  0.55548  1.0000
  H   H1677     1.0  0.51128  0.99304  0.97057  1.0000
  H   H1678     1.0  0.55207  0.86888  0.36249  1.0000
  C   C1399     1.0  0.59818  0.98622  0.52586  1.0000
  C   C1400     1.0  0.50137  0.92535  0.55319  1.0000
  H   H1679     1.0  0.52120  0.89101  0.34336  1.0000
  H   H1680     1.0  0.51637  0.97852  0.97580  1.0000
  H   H1681     1.0  0.60220  0.97809  0.52796  1.0000
  Fe  Fe187     1.0  0.49848  0.85806  0.46511  1.0000
  C   C1401     1.0  0.52370  0.88031  0.51829  1.0000
  C   C1402     1.0  0.57720  0.97290  0.71142  1.0000
  H   H1682     1.0  0.51628  0.95435  0.86591  1.0000
  C   C1403     1.0  0.49390  0.84930  0.29187  1.0000
  H   H1683     1.0  0.51965  0.85549  0.29631  1.0000
  C   C1404     1.0  0.53189  0.88754  0.53449  1.0000
  C   C1405     1.0  0.53239  0.90047  0.53127  1.0000
  C   C1406     1.0  0.49931  0.80036  0.14152  1.0000
  C   C1407     1.0  0.49866  0.92927  0.98664  1.0000
  H   H1684     1.0  0.50722  0.92747  0.99279  1.0000
  C   C1408     1.0  0.51521  0.89389  0.98109  1.0000
  H   H1685     1.0  0.54120  0.98965  0.09805  1.0000
  H   H1686     1.0  0.53656  0.89223  0.05240  1.0000
  C   C1409     1.0  0.55003  0.99625  0.09667  1.0000
  C   C1410     1.0  0.49868  0.94925  0.47362  1.0000
  H   H1687     1.0  0.52350  0.87040  0.52107  1.0000
  H   H1688     1.0  0.49701  0.92158  0.88342  1.0000
  N   N96       1.0  0.58621  0.96316  0.65634  1.0000
  C   C1411     1.0  0.49392  0.96827  0.90474  1.0000
  C   C1412     1.0  0.51190  0.97260  0.76087  1.0000
  N   N97       1.0  0.50500  0.96782  0.87379  1.0000
  C   C1413     1.0  0.51577  0.97779  0.87359  1.0000
  H   H1689     1.0  0.49421  0.81955  0.28285  1.0000
  H   H1690     1.0  0.51782  0.87221  0.32862  1.0000
  C   C1414     1.0  0.50766  0.95523  0.88633  1.0000
  Fe  Fe188     1.0  0.49345  0.82977  0.46416  1.0000
  C   C1415     1.0  0.51342  0.88241  0.01033  1.0000
  C   C1416     1.0  0.51589  0.88593  0.49839  1.0000
  H   H1691     1.0  0.58684  0.98671  0.60995  1.0000
  Fe  Fe189     1.0  0.49321  0.84985  0.05900  1.0000
  H   H1692     1.0  0.60127  0.97512  0.60490  1.0000
  H   H1693     1.0  0.49332  0.91945  0.72149  1.0000
  H   H1694     1.0  0.58787  0.94399  0.67828  1.0000
  H   H1695     1.0  0.51845  0.93257  0.84026  1.0000
  C   C1417     1.0  0.50468  0.94325  0.58116  1.0000
  C   C1418     1.0  0.58326  0.98538  0.64187  1.0000
  C   C1419     1.0  0.50322  0.96985  0.83303  1.0000
  C   C1420     1.0  0.51076  0.93100  0.82677  1.0000
  C   C1421     1.0  0.58532  0.99515  0.04395  1.0000
  N   N98       1.0  0.53389  0.88225  0.37086  1.0000
  C   C1422     1.0  0.54447  0.89346  0.34870  1.0000
  C   C1423     1.0  0.52205  0.88643  0.37350  1.0000
  C   C1424     1.0  0.53476  0.87779  0.41256  1.0000
  C   C1425     1.0  0.58483  0.95178  0.68964  1.0000
  C   C1426     1.0  0.54830  0.98540  0.16506  1.0000
  C   C1427     1.0  0.51162  0.98437  0.99261  1.0000
  H   H1696     1.0  0.54855  0.98630  0.19548  1.0000
  S   S381      1.0  0.50190  0.86892  0.01145  1.0000
  C   C1428     1.0  0.52667  0.85849  0.31102  1.0000
  H   H1697     1.0  0.55372  0.89127  0.34804  1.0000
  H   H1698     1.0  0.54430  0.89696  0.31695  1.0000
  H   H1699     1.0  0.54412  0.90144  0.36274  1.0000
  N   N99       1.0  0.51247  0.80027  0.12343  1.0000
  C   C1429     1.0  0.49472  0.83533  0.23425  1.0000
  H   H1700     1.0  0.51370  0.87830  0.38908  1.0000
  H   H1701     1.0  0.53370  0.88507  0.42923  1.0000
  H   H1702     1.0  0.52724  0.86906  0.42988  1.0000
  H   H1703     1.0  0.54390  0.87570  0.41391  1.0000
  S   S382      1.0  0.49524  0.82621  0.19921  1.0000
  C   C1430     1.0  0.49135  0.92076  0.97207  1.0000
  S   S383      1.0  0.50553  0.87744  0.47633  1.0000
  C   C1431     1.0  0.51320  0.97031  0.79987  1.0000
  H   H1704     1.0  0.49288  0.79069  0.15139  1.0000
  C   C1432     1.0  0.50586  0.97356  0.48606  1.0000
  C   C1433     1.0  0.50942  0.93457  0.56297  1.0000
  C   C1434     1.0  0.51303  0.93504  0.78508  1.0000
  C   C1435     1.0  0.54472  0.86613  0.34891  1.0000
  C   C1436     1.0  0.52848  0.83343  0.12407  1.0000
  C   C1437     1.0  0.50678  0.95597  0.10315  1.0000
  C   C1438     1.0  0.54555  0.85646  0.32995  1.0000
  C   C1439     1.0  0.52105  0.88193  0.03648  1.0000
  H   H1705     1.0  0.51987  0.87316  0.05897  1.0000
  H   H1706     1.0  0.55773  0.99219  0.08352  1.0000
  C   C1440     1.0  0.52957  0.97308  0.05821  1.0000
  H   H1707     1.0  0.53990  0.84899  0.07373  1.0000
  H   H1708     1.0  0.52674  0.81478  0.04482  1.0000
  H   H1709     1.0  0.52214  0.96900  0.80394  1.0000
  H   H1710     1.0  0.49473  0.86517  0.24302  1.0000
  H   H1711     1.0  0.49339  0.83179  0.33347  1.0000
  H   H1712     1.0  0.56971  0.98222  0.75499  1.0000
  H   H1713     1.0  0.49794  0.94914  0.11960  1.0000
  C   C1441     1.0  0.52573  0.86815  0.32995  1.0000
  H   H1714     1.0  0.51832  0.90062  0.60586  1.0000
  H   H1715     1.0  0.49969  0.94744  0.88753  1.0000
  H   H1716     1.0  0.57972  0.96683  0.60284  1.0000
  H   H1717     1.0  0.60305  0.95955  0.62309  1.0000
  S   S384      1.0  0.50744  0.84783  0.42232  1.0000
  H   H1718     1.0  0.52140  0.89351  0.39117  1.0000
  H   H1719     1.0  0.51149  0.78240  0.16439  1.0000
  H   H1720     1.0  0.51786  0.94468  0.12957  1.0000
  C   C1442     1.0  0.53463  0.87211  0.35024  1.0000
  C   C1443     1.0  0.50318  0.93299  0.76644  1.0000
  H   H1721     1.0  0.51535  0.99323  0.54029  1.0000
  C   C1444     1.0  0.50690  0.96706  0.07522  1.0000
  C   C1445     1.0  0.49871  0.92479  0.85112  1.0000
  H   H1722     1.0  0.52872  0.83893  0.14564  1.0000
  C   C1446     1.0  0.51286  0.98413  0.53251  1.0000
  C   C1447     1.0  0.53473  0.83910  0.08363  1.0000
  H   H1723     1.0  0.52197  0.79303  0.07683  1.0000
  H   H1724     1.0  0.59054  0.95402  0.71012  1.0000
  C   C1448     1.0  0.51824  0.94458  0.70022  1.0000
  H   H1725     1.0  0.55549  0.98029  0.15512  1.0000
  H   H1726     1.0  0.50457  0.92800  0.67453  1.0000
  H   H1727     1.0  0.55324  0.85190  0.32982  1.0000
  H   H1728     1.0  0.49957  0.97614  0.72362  1.0000
  C   C1449     1.0  0.51243  0.79386  0.09096  1.0000
  C   C1450     1.0  0.53649  0.85260  0.31125  1.0000
  C   C1451     1.0  0.52045  0.81344  0.10924  1.0000
  H   H1729     1.0  0.52058  0.95328  0.71024  1.0000
  H   H1730     1.0  0.51263  0.87782  0.62775  1.0000
  H   H1731     1.0  0.51947  0.94778  0.66735  1.0000
  H   H1732     1.0  0.49565  0.96697  0.93489  1.0000
  H   H1733     1.0  0.49798  0.96847  0.07145  1.0000
  H   H1734     1.0  0.52534  0.93903  0.70401  1.0000
  H   H1735     1.0  0.49582  0.93986  0.46975  1.0000
  H   H1736     1.0  0.51665  0.81693  0.16839  1.0000
  C   C1452     1.0  0.51436  0.96571  0.48196  1.0000
  H   H1737     1.0  0.49352  0.89702  0.58641  1.0000
  N   N100      1.0  0.49961  0.88945  0.63866  1.0000
  H   H1738     1.0  0.52260  0.93963  0.76823  1.0000
  H   H1739     1.0  0.52374  0.96858  0.48471  1.0000
  C   C1453     1.0  0.49589  0.88834  0.60179  1.0000
  H   H1740     1.0  0.51936  0.99530  0.43107  1.0000
  C   C1454     1.0  0.51082  0.95379  0.47553  1.0000
  C   C1455     1.0  0.57855  0.95914  0.63035  1.0000
  H   H1741     1.0  0.53900  0.97920  0.16815  1.0000
  H   H1742     1.0  0.57486  0.94770  0.70758  1.0000
  H   H1743     1.0  0.50879  0.79903  0.06720  1.0000
  C   C1456     1.0  0.53409  0.83212  0.05581  1.0000
  H   H1744     1.0  0.53707  0.84504  0.29682  1.0000
  C   C1457     1.0  0.49493  0.94013  0.99286  1.0000
  H   H1745     1.0  0.53646  0.99068  0.98128  1.0000
  C   C1458     1.0  0.51136  0.99520  0.04404  1.0000
  H   H1746     1.0  0.53871  0.97910  0.04125  1.0000
  C   C1459     1.0  0.59960  0.96741  0.63281  1.0000
  H   H1747     1.0  0.56842  0.95610  0.64697  1.0000
  H   H1748     1.0  0.52486  0.97711  0.85525  1.0000
  C   C1460     1.0  0.50059  0.97431  0.75385  1.0000
  C   C1461     1.0  0.51798  0.95346  0.10877  1.0000
  H   H1749     1.0  0.51740  0.94787  0.47324  1.0000
  H   H1750     1.0  0.50131  0.99026  0.05860  1.0000
  H   H1751     1.0  0.59077  0.99052  0.06127  1.0000
  H   H1752     1.0  0.49867  0.94871  0.67852  1.0000
  H   H1753     1.0  0.50723  0.90976  0.61517  1.0000
  H   H1754     1.0  0.57192  0.99518  0.51276  1.0000
  C   C1462     1.0  0.51693  0.79251  0.15439  1.0000
  C   C1463     1.0  0.50992  0.90103  0.62837  1.0000
  S   S385      1.0  0.49666  0.81023  0.48769  1.0000
  H   H1755     1.0  0.50853  0.87895  0.67794  1.0000
  H   H1756     1.0  0.52700  0.79278  0.14265  1.0000
  H   H1757     1.0  0.49442  0.91253  0.96641  1.0000
  H   H1758     1.0  0.50922  0.95348  0.91665  1.0000
  H   H1759     1.0  0.49541  0.85287  0.19250  1.0000
  H   H1760     1.0  0.50955  0.91939  0.71504  1.0000
  C   C1464     1.0  0.49491  0.84823  0.22319  1.0000
  C   C1465     1.0  0.57078  0.99388  0.00244  1.0000
  H   H1761     1.0  0.50615  0.78409  0.10232  1.0000
  Fe  Fe190     1.0  0.49195  0.84968  0.39253  1.0000
  H   H1762     1.0  0.51975  0.97314  0.73605  1.0000
  C   C1466     1.0  0.49429  0.82951  0.27408  1.0000
  H   H1763     1.0  0.49740  0.86926  0.66007  1.0000
  H   H1764     1.0  0.50479  0.97760  0.55724  1.0000
  H   H1765     1.0  0.51453  0.98745  0.86164  1.0000
  C   C1467     1.0  0.50308  0.92540  0.70773  1.0000
  C   C1468     1.0  0.49648  0.94453  0.71160  1.0000
  H   H1766     1.0  0.51683  0.97701  0.90436  1.0000
  C   C1469     1.0  0.52113  0.99402  0.46116  1.0000
  C   C1470     1.0  0.49353  0.96862  0.48403  1.0000
  C   C1471     1.0  0.52934  0.96207  0.08667  1.0000
  H   H1767     1.0  0.51292  0.90232  0.65529  1.0000
  H   H1768     1.0  0.49457  0.78356  0.52267  1.0000
  H   H1769     1.0  0.49143  0.98836  0.51980  1.0000
  C   C1472     1.0  0.49176  0.97147  0.82486  1.0000
  H   H1770     1.0  0.49750  0.99529  0.46605  1.0000
  C   C1473     1.0  0.50007  0.99339  0.49485  1.0000
  C   C1474     1.0  0.49103  0.92659  0.79221  1.0000
  H   H1771     1.0  0.49825  0.80417  0.16815  1.0000
  C   C1475     1.0  0.57491  0.99447  0.69475  1.0000
  H   H1772     1.0  0.49148  0.97757  0.89743  1.0000
  C   C1476     1.0  0.49180  0.94238  0.59095  1.0000
  H   H1773     1.0  0.51568  0.99750  0.06762  1.0000
  H   H1774     1.0  0.52532  0.99129  0.14385  1.0000
  C   C1477     1.0  0.57971  0.99558  0.65409  1.0000
  C   C1478     1.0  0.58116  0.99586  0.51724  1.0000
  C   C1479     1.0  0.49051  0.97361  0.78582  1.0000
  C   C1480     1.0  0.69628  0.14862  0.03921  1.0000
  H   H1775     1.0  0.75981  0.24444  0.32066  1.0000
  H   H1776     1.0  0.68489  0.22181  0.99739  1.0000
  Fe  Fe191     1.0  0.66783  0.15262  0.65072  1.0000
  S   S386      1.0  0.68108  0.15299  0.59225  1.0000
  S   S387      1.0  0.67099  0.14562  0.71212  1.0000
  Fe  Fe192     1.0  0.67656  0.17158  0.56689  1.0000
  S   S388      1.0  0.68664  0.19185  0.52839  1.0000
  H   H1777     1.0  0.65892  0.09943  0.54804  1.0000
  C   C1481     1.0  0.70688  0.16518  0.76617  1.0000
  S   S389      1.0  0.66435  0.17155  0.62648  1.0000
  H   H1778     1.0  0.72730  0.17570  0.62282  1.0000
  C   C1482     1.0  0.68548  0.13699  0.10739  1.0000
  Fe  Fe193     1.0  0.67707  0.16952  0.90455  1.0000
  S   S390      1.0  0.68640  0.16369  0.95385  1.0000
  S   S391      1.0  0.68413  0.17546  0.83623  1.0000
  Fe  Fe194     1.0  0.75166  0.24577  0.45614  1.0000
  S   S392      1.0  0.66092  0.16563  0.01548  1.0000
  C   C1483     1.0  0.70914  0.17600  0.68382  1.0000
  Fe  Fe195     1.0  0.67966  0.17895  0.97898  1.0000
  S   S393      1.0  0.68830  0.19152  0.01498  1.0000
  Fe  Fe196     1.0  0.66719  0.15070  0.98826  1.0000
  H   H1779     1.0  0.67834  0.13117  0.09706  1.0000
  S   S394      1.0  0.67176  0.18565  0.92739  1.0000
  C   C1484     1.0  0.66175  0.19711  0.48097  1.0000
  Fe  Fe197     1.0  0.66371  0.14307  0.57816  1.0000
  H   H1780     1.0  0.68282  0.16503  0.05382  1.0000
  H   H1781     1.0  0.67057  0.13709  0.79478  1.0000
  H   H1782     1.0  0.70346  0.17481  0.04108  1.0000
  S   S395      1.0  0.73796  0.22997  0.02033  1.0000
  S   S396      1.0  0.66276  0.13110  0.03281  1.0000
  C   C1485     1.0  0.71304  0.16206  0.13737  1.0000
  H   H1783     1.0  0.71659  0.19893  0.59321  1.0000
  C   C1486     1.0  0.66842  0.22885  0.01285  1.0000
  H   H1784     1.0  0.67618  0.24105  0.48238  1.0000
  S   S397      1.0  0.66197  0.12469  0.55789  1.0000
  H   H1785     1.0  0.68066  0.13724  0.13806  1.0000
  S   S398      1.0  0.74320  0.22454  0.48665  1.0000
  H   H1786     1.0  0.67425  0.20475  0.97396  1.0000
  H   H1787     1.0  0.79117  0.24004  0.11378  1.0000
  H   H1788     1.0  0.66524  0.18849  0.49011  1.0000
  C   C1487     1.0  0.66901  0.21098  0.98550  1.0000
  H   H1789     1.0  0.69712  0.24156  0.49360  1.0000
  C   C1488     1.0  0.69747  0.17889  0.63448  1.0000
  H   H1790     1.0  0.68933  0.14249  0.02915  1.0000
  H   H1791     1.0  0.66169  0.19827  0.44910  1.0000
  H   H1792     1.0  0.70560  0.16111  0.79794  1.0000
  H   H1793     1.0  0.69264  0.16861  0.64452  1.0000
  H   H1794     1.0  0.78409  0.24178  0.17549  1.0000
  H   H1795     1.0  0.70990  0.20063  0.64128  1.0000
  H   H1796     1.0  0.69782  0.18239  0.60225  1.0000
  H   H1797     1.0  0.72002  0.17963  0.58332  1.0000
  N   N101      1.0  0.69069  0.14998  0.07953  1.0000
  C   C1489     1.0  0.67506  0.22070  0.99841  1.0000
  S   S399      1.0  0.66057  0.16170  0.54756  1.0000
  S   S400      1.0  0.65878  0.15525  0.93719  1.0000
  H   H1798     1.0  0.66891  0.20513  0.48295  1.0000
  H   H1799     1.0  0.75145  0.23460  0.27264  1.0000
  H   H1800     1.0  0.70193  0.15624  0.68509  1.0000
  C   C1490     1.0  0.71808  0.17511  0.61603  1.0000
  H   H1801     1.0  0.67316  0.23644  0.02276  1.0000
  H   H1802     1.0  0.69967  0.15788  0.01580  1.0000
  H   H1803     1.0  0.80803  0.24424  0.10130  1.0000
  C   C1491     1.0  0.70220  0.20238  0.01520  1.0000
  C   C1492     1.0  0.70166  0.20849  0.04612  1.0000
  C   C1493     1.0  0.71240  0.21694  0.04824  1.0000
  C   C1494     1.0  0.72395  0.21939  0.01953  1.0000
  C   C1495     1.0  0.72447  0.21329  0.98862  1.0000
  C   C1496     1.0  0.71372  0.20491  0.98632  1.0000
  H   H1804     1.0  0.69287  0.20663  0.06880  1.0000
  H   H1805     1.0  0.71175  0.22149  0.07227  1.0000
  H   H1806     1.0  0.73329  0.21507  0.96612  1.0000
  H   H1807     1.0  0.71439  0.20035  0.96232  1.0000
  C   C1497     1.0  0.70592  0.17090  0.06811  1.0000
  H   H1808     1.0  0.71514  0.19391  0.69863  1.0000
  H   H1809     1.0  0.71584  0.15869  0.16430  1.0000
  H   H1810     1.0  0.71884  0.18868  0.06084  1.0000
  H   H1811     1.0  0.71275  0.18429  0.76902  1.0000
  C   C1498     1.0  0.71477  0.17893  0.07914  1.0000
  H   H1812     1.0  0.71357  0.16493  0.62091  1.0000
  H   H1813     1.0  0.70441  0.14432  0.03917  1.0000
  H   H1814     1.0  0.69290  0.13174  0.10921  1.0000
  C   C1499     1.0  0.70488  0.16268  0.70181  1.0000
  H   H1815     1.0  0.67615  0.15797  0.10665  1.0000
  H   H1816     1.0  0.69138  0.18377  0.65156  1.0000
  H   H1817     1.0  0.70037  0.14443  0.14646  1.0000
  S   S401      1.0  0.75479  0.24293  0.18787  1.0000
  C   C1500     1.0  0.70412  0.15394  0.12668  1.0000
  H   H1818     1.0  0.67228  0.14970  0.07125  1.0000
  C   C1501     1.0  0.71208  0.18369  0.70914  1.0000
  C   C1502     1.0  0.70246  0.20071  0.51654  1.0000
  C   C1503     1.0  0.70527  0.21404  0.50257  1.0000
  C   C1504     1.0  0.71768  0.22149  0.49282  1.0000
  C   C1505     1.0  0.72746  0.21566  0.49676  1.0000
  C   C1506     1.0  0.72467  0.20231  0.51014  1.0000
  C   C1507     1.0  0.71226  0.19487  0.51984  1.0000
  H   H1819     1.0  0.69778  0.21863  0.49944  1.0000
  H   H1820     1.0  0.71968  0.23173  0.48249  1.0000
  H   H1821     1.0  0.73220  0.19771  0.51268  1.0000
  H   H1822     1.0  0.71030  0.18463  0.52910  1.0000
  C   C1508     1.0  0.67266  0.15408  0.74824  1.0000
  C   C1509     1.0  0.67495  0.16732  0.73871  1.0000
  C   C1510     1.0  0.67792  0.17376  0.76663  1.0000
  C   C1511     1.0  0.67809  0.16702  0.80495  1.0000
  C   C1512     1.0  0.67489  0.15375  0.81548  1.0000
  C   C1513     1.0  0.67237  0.14733  0.78703  1.0000
  H   H1823     1.0  0.67493  0.17260  0.70935  1.0000
  H   H1824     1.0  0.68045  0.18403  0.75816  1.0000
  H   H1825     1.0  0.67511  0.14844  0.84467  1.0000
  H   H1826     1.0  0.66032  0.21920  0.44690  1.0000
  C   C1514     1.0  0.71832  0.17453  0.11371  1.0000
  C   C1515     1.0  0.70026  0.15816  0.09161  1.0000
  C   C1516     1.0  0.70389  0.15740  0.74226  1.0000
  N   N102      1.0  0.71015  0.18132  0.64080  1.0000
  H   H1827     1.0  0.72517  0.18083  0.12217  1.0000
  C   C1517     1.0  0.71578  0.19525  0.62573  1.0000
  H   H1828     1.0  0.71502  0.23852  0.97411  1.0000
  C   C1518     1.0  0.71090  0.17829  0.74972  1.0000
  H   H1829     1.0  0.72542  0.19774  0.62921  1.0000
  C   C1519     1.0  0.68005  0.15592  0.07776  1.0000
  C   C1520     1.0  0.71016  0.24558  0.98146  1.0000
  H   H1830     1.0  0.70028  0.14723  0.75554  1.0000
  H   H1831     1.0  0.78414  0.23970  0.24498  1.0000
  Fe  Fe198     1.0  0.74556  0.24451  0.05225  1.0000
  C   C1521     1.0  0.69136  0.24723  0.50634  1.0000
  H   H1832     1.0  0.69975  0.24464  0.93811  1.0000
  S   S402      1.0  0.76359  0.24509  0.07082  1.0000
  C   C1522     1.0  0.75748  0.24412  0.26201  1.0000
  C   C1523     1.0  0.67957  0.24696  0.50009  1.0000
  C   C1524     1.0  0.79128  0.24709  0.22128  1.0000
  S   S403      1.0  0.73316  0.28457  0.07553  1.0000
  N   N103      1.0  0.73564  0.27538  0.29673  1.0000
  C   C1525     1.0  0.76600  0.31892  0.95449  1.0000
  Fe  Fe199     1.0  0.67325  0.44013  0.62479  1.0000
  S   S404      1.0  0.68143  0.45032  0.55900  1.0000
  C   C1526     1.0  0.67765  0.26880  0.02336  1.0000
  H   H1833     1.0  0.80957  0.27048  0.04610  1.0000
  H   H1834     1.0  0.71940  0.30195  0.44015  1.0000
  Fe  Fe200     1.0  0.68427  0.43141  0.55269  1.0000
  S   S405      1.0  0.70024  0.42874  0.50694  1.0000
  C   C1527     1.0  0.68604  0.37043  0.81440  1.0000
  S   S406      1.0  0.67770  0.42168  0.61878  1.0000
  Fe  Fe201     1.0  0.67363  0.42278  0.89898  1.0000
  S   S407      1.0  0.68811  0.43510  0.91773  1.0000
  S   S408      1.0  0.67505  0.41642  0.84234  1.0000
  C   C1528     1.0  0.80316  0.28657  0.52388  1.0000
  S   S409      1.0  0.67057  0.42154  0.01169  1.0000
  H   H1835     1.0  0.72724  0.30828  0.04619  1.0000
  Fe  Fe202     1.0  0.67148  0.43805  0.96047  1.0000
  S   S410      1.0  0.67131  0.45645  0.97739  1.0000
  Fe  Fe203     1.0  0.68611  0.41781  0.96738  1.0000
  S   S411      1.0  0.70320  0.41041  0.97221  1.0000
  C   C1529     1.0  0.77205  0.32606  0.50154  1.0000
  S   S412      1.0  0.67267  0.40536  0.94627  1.0000
  H   H1836     1.0  0.81600  0.27467  0.13862  1.0000
  Fe  Fe204     1.0  0.75389  0.41518  0.08424  1.0000
  S   S413      1.0  0.74970  0.39530  0.12395  1.0000
  S   S414      1.0  0.73783  0.42466  0.08211  1.0000
  Fe  Fe205     1.0  0.78198  0.41685  0.05608  1.0000
  S   S415      1.0  0.77959  0.39691  0.09244  1.0000
  S   S416      1.0  0.80034  0.43020  0.01422  1.0000
  Fe  Fe206     1.0  0.76237  0.39189  0.07095  1.0000
  S   S417      1.0  0.75683  0.37380  0.05200  1.0000
  Fe  Fe207     1.0  0.76710  0.40220  0.14214  1.0000
  S   S418      1.0  0.76906  0.39544  0.20582  1.0000
  S   S419      1.0  0.76578  0.41148  0.03048  1.0000
  S   S420      1.0  0.77031  0.42246  0.10649  1.0000
  Fe  Fe208     1.0  0.68842  0.32860  0.93349  1.0000
  S   S421      1.0  0.69481  0.34933  0.90006  1.0000
  S   S422      1.0  0.66823  0.31991  0.96991  1.0000
  Fe  Fe209     1.0  0.71429  0.32466  0.90786  1.0000
  S   S423      1.0  0.72286  0.34492  0.87176  1.0000
  N   N104      1.0  0.80325  0.43536  0.14993  1.0000
  Fe  Fe210     1.0  0.71158  0.34953  0.92490  1.0000
  S   S424      1.0  0.71873  0.36679  0.94569  1.0000
  Fe  Fe211     1.0  0.70554  0.34302  0.84988  1.0000
  S   S425      1.0  0.70728  0.35128  0.78368  1.0000
  S   S426      1.0  0.70414  0.32927  0.96273  1.0000
  S   S427      1.0  0.69796  0.32230  0.88163  1.0000
  S   S428      1.0  0.67239  0.30241  0.62106  1.0000
  Fe  Fe212     1.0  0.76963  0.39209  0.47305  1.0000
  S   S429      1.0  0.78749  0.40183  0.42402  1.0000
  S   S430      1.0  0.76173  0.37077  0.49695  1.0000
  Fe  Fe213     1.0  0.76548  0.41673  0.48957  1.0000
  S   S431      1.0  0.78291  0.42862  0.44123  1.0000
  S   S432      1.0  0.75246  0.42293  0.53579  1.0000
  Fe  Fe214     1.0  0.77676  0.41593  0.40362  1.0000
  S   S433      1.0  0.77698  0.42445  0.33850  1.0000
  Fe  Fe215     1.0  0.79235  0.41366  0.46538  1.0000
  H   H1837     1.0  0.77210  0.29038  0.94411  1.0000
  S   S434      1.0  0.75858  0.40544  0.45048  1.0000
  S   S435      1.0  0.77527  0.40257  0.51583  1.0000
  Fe  Fe216     1.0  0.69223  0.30693  0.58275  1.0000
  H   H1838     1.0  0.70343  0.38687  0.05026  1.0000
  Fe  Fe217     1.0  0.69304  0.33427  0.54894  1.0000
  S   S436      1.0  0.67314  0.33204  0.58332  1.0000
  S   S437      1.0  0.70404  0.35341  0.50749  1.0000
  Fe  Fe218     1.0  0.67831  0.32092  0.63537  1.0000
  S   S438      1.0  0.67135  0.32341  0.69757  1.0000
  Fe  Fe219     1.0  0.66882  0.31384  0.56601  1.0000
  H   H1839     1.0  0.81090  0.44861  0.26004  1.0000
  S   S439      1.0  0.69850  0.32434  0.60215  1.0000
  S   S440      1.0  0.68830  0.31714  0.52659  1.0000
  C   C1530     1.0  0.74593  0.36551  0.49755  1.0000
  C   C1531     1.0  0.73852  0.35403  0.52481  1.0000
  C   C1532     1.0  0.72574  0.35005  0.52731  1.0000
  C   C1533     1.0  0.72023  0.35762  0.50297  1.0000
  C   C1534     1.0  0.72771  0.36895  0.47514  1.0000
  C   C1535     1.0  0.74053  0.37281  0.47212  1.0000
  H   H1840     1.0  0.74257  0.34834  0.54480  1.0000
  H   H1841     1.0  0.72015  0.34124  0.54854  1.0000
  H   H1842     1.0  0.72359  0.37477  0.45567  1.0000
  H   H1843     1.0  0.74622  0.38140  0.44983  1.0000
  H   H1844     1.0  0.69861  0.35703  0.07136  1.0000
  H   H1845     1.0  0.72222  0.40376  0.14898  1.0000
  H   H1846     1.0  0.68742  0.36774  0.15892  1.0000
  H   H1847     1.0  0.71073  0.37638  0.02680  1.0000
  H   H1848     1.0  0.69320  0.27324  0.06798  1.0000
  H   H1849     1.0  0.75069  0.29185  0.28575  1.0000
  C   C1536     1.0  0.66920  0.34762  0.48873  1.0000
  H   H1850     1.0  0.80497  0.41735  0.13923  1.0000
  C   C1537     1.0  0.73875  0.27696  0.22316  1.0000
  H   H1851     1.0  0.76592  0.34645  0.98310  1.0000
  C   C1538     1.0  0.81843  0.42374  0.05111  1.0000
  H   H1852     1.0  0.66861  0.30520  0.48186  1.0000
  S   S441      1.0  0.74689  0.25674  0.40276  1.0000
  H   H1853     1.0  0.72402  0.25659  0.30797  1.0000
  C   C1539     1.0  0.75766  0.32040  0.93012  1.0000
  C   C1540     1.0  0.69753  0.34287  0.76048  1.0000
  C   C1541     1.0  0.70131  0.34483  0.71867  1.0000
  C   C1542     1.0  0.69354  0.33866  0.69914  1.0000
  C   C1543     1.0  0.68177  0.33066  0.72127  1.0000
  C   C1544     1.0  0.67792  0.32882  0.76304  1.0000
  C   C1545     1.0  0.68581  0.33477  0.78266  1.0000
  H   H1854     1.0  0.71039  0.35096  0.70141  1.0000
  H   H1855     1.0  0.69660  0.34018  0.66699  1.0000
  H   H1856     1.0  0.74608  0.33179  0.90680  1.0000
  H   H1857     1.0  0.68277  0.33323  0.81485  1.0000
  C   C1546     1.0  0.72614  0.30912  0.98583  1.0000
  H   H1858     1.0  0.70142  0.37850  0.51521  1.0000
  C   C1547     1.0  0.76981  0.29988  0.52191  1.0000
  H   H1859     1.0  0.72417  0.31836  0.98062  1.0000
  H   H1860     1.0  0.77348  0.33623  0.49464  1.0000
  C   C1548     1.0  0.77032  0.40354  0.24335  1.0000
  C   C1549     1.0  0.77038  0.41639  0.23713  1.0000
  C   C1550     1.0  0.77223  0.42259  0.26675  1.0000
  C   C1551     1.0  0.77376  0.41598  0.30335  1.0000
  C   C1552     1.0  0.77331  0.40303  0.31005  1.0000
  C   C1553     1.0  0.77170  0.39689  0.28010  1.0000
  H   H1861     1.0  0.76901  0.42152  0.20951  1.0000
  H   H1862     1.0  0.77251  0.43259  0.26130  1.0000
  H   H1863     1.0  0.77448  0.39780  0.33793  1.0000
  H   H1864     1.0  0.77161  0.38694  0.28536  1.0000
  C   C1554     1.0  0.74707  0.37216  0.01962  1.0000
  C   C1555     1.0  0.74324  0.38246  0.00007  1.0000
  C   C1556     1.0  0.73495  0.38068  0.97635  1.0000
  C   C1557     1.0  0.73022  0.36859  0.97233  1.0000
  C   C1558     1.0  0.73417  0.35829  0.99138  1.0000
  C   C1559     1.0  0.74263  0.36009  0.01469  1.0000
  H   H1865     1.0  0.74661  0.39180  0.00343  1.0000
  H   H1866     1.0  0.73199  0.38871  0.96156  1.0000
  H   H1867     1.0  0.73054  0.34890  0.98882  1.0000
  H   H1868     1.0  0.74549  0.35205  0.02983  1.0000
  H   H1869     1.0  0.68117  0.40580  0.54205  1.0000
  C   C1560     1.0  0.68254  0.39629  0.54991  1.0000
  H   H1870     1.0  0.74565  0.27143  0.22365  1.0000
  H   H1871     1.0  0.81136  0.41528  0.06965  1.0000
  H   H1872     1.0  0.71991  0.38808  0.04223  1.0000
  C   C1561     1.0  0.76052  0.25073  0.22111  1.0000
  C   C1562     1.0  0.66827  0.29687  0.95300  1.0000
  H   H1873     1.0  0.70080  0.46232  0.94815  1.0000
  H   H1874     1.0  0.71198  0.47551  0.95191  1.0000
  S   S442      1.0  0.78647  0.27407  0.49052  1.0000
  C   C1563     1.0  0.72740  0.45594  0.00902  1.0000
  H   H1875     1.0  0.67673  0.30177  0.92926  1.0000
  H   H1876     1.0  0.72780  0.37373  0.08562  1.0000
  S   S443      1.0  0.75262  0.26503  0.01548  1.0000
  C   C1564     1.0  0.73371  0.26137  0.30692  1.0000
  C   C1565     1.0  0.71258  0.41456  0.00317  1.0000
  C   C1566     1.0  0.70830  0.41976  0.03443  1.0000
  C   C1567     1.0  0.71608  0.42280  0.05866  1.0000
  C   C1568     1.0  0.72807  0.42043  0.05220  1.0000
  C   C1569     1.0  0.73221  0.41503  0.02135  1.0000
  C   C1570     1.0  0.72455  0.41225  0.99668  1.0000
  H   H1877     1.0  0.69898  0.42130  0.04010  1.0000
  H   H1878     1.0  0.71280  0.42691  0.08264  1.0000
  H   H1879     1.0  0.74143  0.41324  0.01589  1.0000
  H   H1880     1.0  0.72794  0.40829  0.97243  1.0000
  C   C1571     1.0  0.71060  0.38125  0.05101  1.0000
  C   C1572     1.0  0.76839  0.26301  0.20777  1.0000
  H   H1881     1.0  0.67249  0.27601  0.03011  1.0000
  H   H1882     1.0  0.78971  0.31830  0.96279  1.0000
  C   C1573     1.0  0.70653  0.26051  0.02034  1.0000
  C   C1574     1.0  0.72798  0.30345  0.02280  1.0000
  C   C1575     1.0  0.81582  0.30846  0.49633  1.0000
  C   C1576     1.0  0.76768  0.29854  0.93892  1.0000
  C   C1577     1.0  0.71431  0.42622  0.51675  1.0000
  C   C1578     1.0  0.72385  0.42538  0.48530  1.0000
  C   C1579     1.0  0.73552  0.42420  0.49108  1.0000
  C   C1580     1.0  0.73773  0.42392  0.52836  1.0000
  C   C1581     1.0  0.72806  0.42439  0.56026  1.0000
  C   C1582     1.0  0.71632  0.42545  0.55452  1.0000
  H   H1883     1.0  0.72233  0.42595  0.45600  1.0000
  H   H1884     1.0  0.74291  0.42389  0.46628  1.0000
  H   H1885     1.0  0.72969  0.42403  0.58928  1.0000
  H   H1886     1.0  0.70890  0.42586  0.57893  1.0000
  C   C1583     1.0  0.67729  0.44080  0.71787  1.0000
  C   C1584     1.0  0.67567  0.42767  0.72563  1.0000
  C   C1585     1.0  0.67532  0.42040  0.76374  1.0000
  C   C1586     1.0  0.67631  0.42616  0.79461  1.0000
  C   C1587     1.0  0.67778  0.43927  0.78712  1.0000
  C   C1588     1.0  0.67840  0.44659  0.74863  1.0000
  H   H1887     1.0  0.67477  0.42311  0.70223  1.0000
  H   H1888     1.0  0.68725  0.36223  0.57351  1.0000
  H   H1889     1.0  0.67850  0.44377  0.81082  1.0000
  C   C1589     1.0  0.81674  0.36067  0.49425  1.0000
  S   S444      1.0  0.73565  0.28564  0.42600  1.0000
  H   H1890     1.0  0.66075  0.37848  0.86384  1.0000
  H   H1891     1.0  0.72461  0.39262  0.09720  1.0000
  C   C1590     1.0  0.79139  0.24833  0.18119  1.0000
  H   H1892     1.0  0.80731  0.34218  0.43692  1.0000
  H   H1893     1.0  0.66664  0.36651  0.81473  1.0000
  H   H1894     1.0  0.71747  0.35987  0.12218  1.0000
  H   H1895     1.0  0.72035  0.36106  0.06939  1.0000
  N   N105      1.0  0.70134  0.38925  0.87664  1.0000
  C   C1591     1.0  0.69713  0.38404  0.92102  1.0000
  C   C1592     1.0  0.71407  0.38729  0.86255  1.0000
  C   C1593     1.0  0.70251  0.40314  0.86655  1.0000
  C   C1594     1.0  0.69206  0.38315  0.85864  1.0000
  C   C1595     1.0  0.69516  0.37632  0.82991  1.0000
  C   C1596     1.0  0.67938  0.38385  0.87000  1.0000
  C   C1597     1.0  0.72650  0.28715  0.47084  1.0000
  H   H1896     1.0  0.79024  0.30463  0.94510  1.0000
  S   S445      1.0  0.72520  0.30977  0.90868  1.0000
  H   H1897     1.0  0.69559  0.37353  0.92993  1.0000
  H   H1898     1.0  0.70421  0.38795  0.93546  1.0000
  H   H1899     1.0  0.68832  0.38635  0.93484  1.0000
  H   H1900     1.0  0.71817  0.39158  0.82966  1.0000
  H   H1901     1.0  0.71390  0.37700  0.86982  1.0000
  H   H1902     1.0  0.72072  0.39163  0.87760  1.0000
  H   H1903     1.0  0.69355  0.40550  0.87868  1.0000
  H   H1904     1.0  0.70949  0.40805  0.87947  1.0000
  H   H1905     1.0  0.70536  0.40744  0.83346  1.0000
  C   C1598     1.0  0.72733  0.30300  0.95532  1.0000
  H   H1906     1.0  0.67636  0.38904  0.89110  1.0000
  C   C1599     1.0  0.80872  0.44072  0.24750  1.0000
  H   H1907     1.0  0.71895  0.29038  0.27888  1.0000
  C   C1600     1.0  0.71936  0.29616  0.46901  1.0000
  H   H1908     1.0  0.80427  0.43133  0.52877  1.0000
  C   C1601     1.0  0.65801  0.35687  0.61611  1.0000
  C   C1602     1.0  0.73023  0.29119  0.96193  1.0000
  C   C1603     1.0  0.73269  0.27996  0.25825  1.0000
  H   H1909     1.0  0.69046  0.29296  0.97588  1.0000
  C   C1604     1.0  0.80736  0.34931  0.45329  1.0000
  C   C1605     1.0  0.72132  0.29153  0.21730  1.0000
  C   C1606     1.0  0.69405  0.28467  0.97042  1.0000
  H   H1910     1.0  0.79678  0.30042  0.43792  1.0000
  C   C1607     1.0  0.67600  0.37465  0.59518  1.0000
  H   H1911     1.0  0.72733  0.46006  0.03380  1.0000
  H   H1912     1.0  0.66611  0.29303  0.43215  1.0000
  H   H1913     1.0  0.70288  0.39730  0.20518  1.0000
  C   C1608     1.0  0.77351  0.26839  0.23481  1.0000
  H   H1914     1.0  0.66173  0.27420  0.61234  1.0000
  N   N106      1.0  0.66921  0.27074  0.55527  1.0000
  C   C1609     1.0  0.66787  0.26859  0.59898  1.0000
  C   C1610     1.0  0.67601  0.28413  0.53451  1.0000
  H   H1915     1.0  0.77942  0.25588  0.12436  1.0000
  H   H1916     1.0  0.70901  0.26458  0.04327  1.0000
  H   H1917     1.0  0.81591  0.41089  0.98581  1.0000
  Fe  Fe220     1.0  0.75423  0.25137  0.12374  1.0000
  H   H1918     1.0  0.79112  0.37056  0.47546  1.0000
  H   H1919     1.0  0.80744  0.37852  0.57955  1.0000
  H   H1920     1.0  0.68972  0.28155  0.94795  1.0000
  C   C1611     1.0  0.80171  0.28095  0.37603  1.0000
  C   C1612     1.0  0.69545  0.25830  0.97023  1.0000
  H   H1921     1.0  0.79830  0.38948  0.48826  1.0000
  H   H1922     1.0  0.68536  0.28656  0.53989  1.0000
  H   H1923     1.0  0.67074  0.29081  0.54511  1.0000
  H   H1924     1.0  0.67757  0.28610  0.50142  1.0000
  H   H1925     1.0  0.79854  0.39142  0.53632  1.0000
  H   H1926     1.0  0.79947  0.41184  0.20718  1.0000
  S   S446      1.0  0.67832  0.45020  0.66977  1.0000
  C   C1613     1.0  0.82239  0.27964  0.43742  1.0000
  N   N107      1.0  0.69139  0.27437  0.00806  1.0000
  H   H1927     1.0  0.80057  0.27765  0.54698  1.0000
  H   H1928     1.0  0.81529  0.36726  0.56450  1.0000
  H   H1929     1.0  0.69659  0.44176  0.04937  1.0000
  H   H1930     1.0  0.75519  0.34105  0.49349  1.0000
  H   H1931     1.0  0.78694  0.26449  0.07312  1.0000
  C   C1614     1.0  0.78104  0.32107  0.51685  1.0000
  H   H1932     1.0  0.71914  0.27545  0.57246  1.0000
  C   C1615     1.0  0.69534  0.28030  0.03827  1.0000
  H   H1933     1.0  0.75547  0.27924  0.26801  1.0000
  H   H1934     1.0  0.67371  0.26489  0.00132  1.0000
  C   C1616     1.0  0.79984  0.25572  0.23111  1.0000
  H   H1935     1.0  0.81322  0.41169  0.93746  1.0000
  H   H1936     1.0  0.73162  0.46867  0.62261  1.0000
  H   H1937     1.0  0.79624  0.28223  0.40444  1.0000
  H   H1938     1.0  0.69047  0.28785  0.04336  1.0000
  Fe  Fe221     1.0  0.76762  0.26441  0.37563  1.0000
  C   C1617     1.0  0.67398  0.35640  0.65142  1.0000
  C   C1618     1.0  0.73964  0.31807  0.51249  1.0000
  C   C1619     1.0  0.80443  0.43275  0.19149  1.0000
  H   H1939     1.0  0.80492  0.29039  0.35355  1.0000
  H   H1940     1.0  0.73098  0.28635  0.93858  1.0000
  C   C1620     1.0  0.81216  0.29688  0.52619  1.0000
  H   H1941     1.0  0.70770  0.46082  0.06244  1.0000
  Fe  Fe222     1.0  0.76971  0.26601  0.03814  1.0000
  C   C1621     1.0  0.81571  0.44200  0.12131  1.0000
  H   H1942     1.0  0.76327  0.34123  0.44336  1.0000
  C   C1622     1.0  0.80027  0.25821  0.14948  1.0000
  N   N108      1.0  0.71669  0.45717  0.60796  1.0000
  C   C1623     1.0  0.72430  0.45955  0.63594  1.0000
  C   C1624     1.0  0.70939  0.46697  0.60431  1.0000
  C   C1625     1.0  0.70783  0.44451  0.62642  1.0000
  C   C1626     1.0  0.72435  0.45739  0.56793  1.0000
  C   C1627     1.0  0.71888  0.45745  0.53560  1.0000
  C   C1628     1.0  0.73706  0.45659  0.56057  1.0000
  C   C1629     1.0  0.72575  0.45707  0.49811  1.0000
  C   C1630     1.0  0.74382  0.45609  0.52301  1.0000
  C   C1631     1.0  0.73819  0.45637  0.49185  1.0000
  C   C1632     1.0  0.80873  0.26549  0.20079  1.0000
  H   H1943     1.0  0.71839  0.46013  0.66486  1.0000
  H   H1944     1.0  0.72886  0.45171  0.64429  1.0000
  H   H1945     1.0  0.71558  0.47651  0.58693  1.0000
  H   H1946     1.0  0.70432  0.46764  0.63424  1.0000
  H   H1947     1.0  0.70186  0.46479  0.58959  1.0000
  H   H1948     1.0  0.71289  0.43684  0.62889  1.0000
  H   H1949     1.0  0.70206  0.44372  0.65714  1.0000
  H   H1950     1.0  0.70116  0.44255  0.60847  1.0000
  H   H1951     1.0  0.70911  0.45731  0.53925  1.0000
  H   H1952     1.0  0.74194  0.45599  0.58349  1.0000
  H   H1953     1.0  0.81528  0.44169  0.57094  1.0000
  H   H1954     1.0  0.75335  0.45500  0.51837  1.0000
  N   N109      1.0  0.75173  0.32287  0.48062  1.0000
  C   C1633     1.0  0.78561  0.31262  0.94464  1.0000
  C   C1634     1.0  0.81550  0.43239  0.02170  1.0000
  C   C1635     1.0  0.82011  0.41527  0.95292  1.0000
  H   H1955     1.0  0.77520  0.32823  0.99206  1.0000
  H   H1956     1.0  0.67415  0.41024  0.76941  1.0000
  H   H1957     1.0  0.71764  0.27414  0.33640  1.0000
  C   C1636     1.0  0.73092  0.29164  0.02931  1.0000
  H   H1958     1.0  0.81244  0.28893  0.93495  1.0000
  C   C1637     1.0  0.74892  0.28133  0.29257  1.0000
  H   H1959     1.0  0.70555  0.28495  0.02810  1.0000
  H   H1960     1.0  0.74333  0.45555  0.46323  1.0000
  C   C1638     1.0  0.71219  0.29776  0.50441  1.0000
  H   H1961     1.0  0.70677  0.30474  0.50259  1.0000
  H   H1962     1.0  0.78525  0.43935  0.16804  1.0000
  S   S447      1.0  0.81230  0.41639  0.47333  1.0000
  H   H1963     1.0  0.75736  0.29442  0.94983  1.0000
  C   C1639     1.0  0.65942  0.29979  0.48346  1.0000
  H   H1964     1.0  0.73360  0.27615  0.00425  1.0000
  C   C1640     1.0  0.69395  0.38095  0.53482  1.0000
  C   C1641     1.0  0.80729  0.37152  0.56154  1.0000
  C   C1642     1.0  0.76367  0.33916  0.96824  1.0000
  H   H1965     1.0  0.68563  0.37929  0.20939  1.0000
  C   C1643     1.0  0.67648  0.26233  0.53916  1.0000
  H   H1966     1.0  0.67756  0.35006  0.63403  1.0000
  H   H1967     1.0  0.77035  0.30281  0.90584  1.0000
  S   S448      1.0  0.76898  0.28119  0.40147  1.0000
  H   H1968     1.0  0.74316  0.32216  0.43221  1.0000
  C   C1644     1.0  0.80337  0.41816  0.25585  1.0000
  N   N110      1.0  0.73097  0.38274  0.59229  1.0000
  C   C1645     1.0  0.73362  0.38795  0.54815  1.0000
  C   C1646     1.0  0.74163  0.38909  0.60465  1.0000
  C   C1647     1.0  0.73050  0.36899  0.60018  1.0000
  C   C1648     1.0  0.71918  0.38466  0.61552  1.0000
  C   C1649     1.0  0.71206  0.39233  0.59769  1.0000
  C   C1650     1.0  0.71480  0.37927  0.65781  1.0000
  C   C1651     1.0  0.70125  0.39437  0.62090  1.0000
  C   C1652     1.0  0.70384  0.38114  0.68061  1.0000
  C   C1653     1.0  0.69710  0.38873  0.66219  1.0000
  H   H1969     1.0  0.73514  0.39844  0.53922  1.0000
  H   H1970     1.0  0.74242  0.38612  0.53163  1.0000
  H   H1971     1.0  0.72594  0.38363  0.53671  1.0000
  H   H1972     1.0  0.74210  0.39942  0.60004  1.0000
  H   H1973     1.0  0.75078  0.38834  0.58678  1.0000
  H   H1974     1.0  0.74090  0.38496  0.63681  1.0000
  H   H1975     1.0  0.72240  0.36382  0.59214  1.0000
  H   H1976     1.0  0.73920  0.36735  0.58229  1.0000
  H   H1977     1.0  0.72972  0.36436  0.63200  1.0000
  H   H1978     1.0  0.71475  0.39708  0.56591  1.0000
  H   H1979     1.0  0.71993  0.37370  0.67381  1.0000
  H   H1980     1.0  0.69617  0.40051  0.60666  1.0000
  H   H1981     1.0  0.70072  0.37680  0.71284  1.0000
  H   H1982     1.0  0.68876  0.39040  0.68000  1.0000
  C   C1654     1.0  0.75554  0.34031  0.94413  1.0000
  H   H1983     1.0  0.75152  0.34845  0.94018  1.0000
  N   N111      1.0  0.70802  0.37219  0.09110  1.0000
  C   C1655     1.0  0.69695  0.36183  0.09578  1.0000
  C   C1656     1.0  0.71884  0.36646  0.09215  1.0000
  C   C1657     1.0  0.70630  0.37899  0.12250  1.0000
  C   C1658     1.0  0.71594  0.38940  0.12114  1.0000
  C   C1659     1.0  0.69527  0.37551  0.15523  1.0000
  C   C1660     1.0  0.71467  0.39587  0.15069  1.0000
  C   C1661     1.0  0.69409  0.38210  0.18460  1.0000
  C   C1662     1.0  0.70378  0.39224  0.18234  1.0000
  S   S449      1.0  0.70260  0.29148  0.58665  1.0000
  C   C1663     1.0  0.75255  0.33096  0.92514  1.0000
  C   C1664     1.0  0.68583  0.37171  0.56878  1.0000
  C   C1665     1.0  0.80059  0.28896  0.99170  1.0000
  H   H1984     1.0  0.69481  0.35431  0.12455  1.0000
  H   H1985     1.0  0.68854  0.36556  0.09427  1.0000
  H   H1986     1.0  0.78845  0.31864  0.91303  1.0000
  C   C1666     1.0  0.72779  0.27836  0.33134  1.0000
  H   H1987     1.0  0.70450  0.37513  0.81944  1.0000
  H   H1988     1.0  0.69858  0.40041  0.49902  1.0000
  C   C1667     1.0  0.71203  0.29025  0.54179  1.0000
  H   H1989     1.0  0.79511  0.27481  0.36486  1.0000
  C   C1668     1.0  0.66311  0.28389  0.95878  1.0000
  H   H1990     1.0  0.79130  0.35473  0.43866  1.0000
  H   H1991     1.0  0.75805  0.29805  0.01645  1.0000
  H   H1992     1.0  0.81010  0.27942  0.08143  1.0000
  C   C1669     1.0  0.67450  0.38721  0.58430  1.0000
  N   N112      1.0  0.77176  0.30798  0.96007  1.0000
  H   H1993     1.0  0.75476  0.31348  0.91487  1.0000
  H   H1994     1.0  0.72121  0.45670  0.47434  1.0000
  C   C1670     1.0  0.79846  0.42370  0.13870  1.0000
  C   C1671     1.0  0.76842  0.30121  0.00341  1.0000
  H   H1995     1.0  0.67528  0.26093  0.05139  1.0000
  H   H1996     1.0  0.74029  0.25832  0.28492  1.0000
  C   C1672     1.0  0.76888  0.32866  0.97329  1.0000
  C   C1673     1.0  0.79752  0.28766  0.49205  1.0000
  H   H1997     1.0  0.77220  0.29263  0.00847  1.0000
  H   H1998     1.0  0.68890  0.26072  0.95358  1.0000
  C   C1674     1.0  0.69233  0.39323  0.52547  1.0000
  C   C1675     1.0  0.72649  0.27977  0.50820  1.0000
  H   H1999     1.0  0.67698  0.27162  0.60557  1.0000
  H   H2000     1.0  0.77222  0.30717  0.02128  1.0000
  Fe  Fe223     1.0  0.66194  0.44368  0.55405  1.0000
  H   H2001     1.0  0.66881  0.32268  0.78032  1.0000
  C   C1676     1.0  0.79936  0.29511  0.02215  1.0000
  C   C1677     1.0  0.75443  0.33697  0.46805  1.0000
  C   C1678     1.0  0.71923  0.28129  0.54360  1.0000
  H   H2002     1.0  0.82264  0.43618  0.12426  1.0000
  C   C1679     1.0  0.70357  0.46762  0.96916  1.0000
  H   H2003     1.0  0.78897  0.32732  0.52091  1.0000
  H   H2004     1.0  0.75932  0.32136  0.42110  1.0000
  H   H2005     1.0  0.76907  0.28973  0.52955  1.0000
  C   C1680     1.0  0.73783  0.45127  0.99631  1.0000
  C   C1681     1.0  0.77989  0.30803  0.52715  1.0000
  H   H2006     1.0  0.81419  0.25745  0.41608  1.0000
  C   C1682     1.0  0.81139  0.29358  0.95876  1.0000
  Fe  Fe224     1.0  0.74853  0.27258  0.43230  1.0000
  C   C1683     1.0  0.76159  0.31800  0.49598  1.0000
  H   H2007     1.0  0.79109  0.29176  0.04753  1.0000
  H   H2008     1.0  0.73194  0.27280  0.50994  1.0000
  H   H2009     1.0  0.81643  0.29579  0.55074  1.0000
  S   S450      1.0  0.75178  0.26115  0.48803  1.0000
  C   C1684     1.0  0.81356  0.43030  0.52960  1.0000
  C   C1685     1.0  0.80101  0.29932  0.46252  1.0000
  C   C1686     1.0  0.80766  0.36793  0.49643  1.0000
  H   H2010     1.0  0.71458  0.29722  0.21475  1.0000
  S   S451      1.0  0.76142  0.27216  0.09206  1.0000
  C   C1687     1.0  0.80893  0.30560  0.01987  1.0000
  C   C1688     1.0  0.67071  0.35943  0.49654  1.0000
  Fe  Fe225     1.0  0.74385  0.26956  0.07208  1.0000
  C   C1689     1.0  0.73190  0.28548  0.99896  1.0000
  C   C1690     1.0  0.81939  0.42333  0.50624  1.0000
  C   C1691     1.0  0.82017  0.38743  0.50105  1.0000
  C   C1692     1.0  0.78785  0.26326  0.10414  1.0000
  H   H2011     1.0  0.75298  0.29797  0.50408  1.0000
  C   C1693     1.0  0.80234  0.42023  0.21656  1.0000
  C   C1694     1.0  0.70694  0.46676  0.03382  1.0000
  H   H2012     1.0  0.74709  0.30791  0.45249  1.0000
  H   H2013     1.0  0.73655  0.30752  0.52181  1.0000
  H   H2014     1.0  0.66146  0.37336  0.51371  1.0000
  H   H2015     1.0  0.68001  0.36482  0.49430  1.0000
  H   H2016     1.0  0.66765  0.27886  0.93946  1.0000
  C   C1695     1.0  0.72731  0.28824  0.18370  1.0000
  H   H2017     1.0  0.81961  0.45127  0.12613  1.0000
  H   H2018     1.0  0.69843  0.47037  0.04210  1.0000
  H   H2019     1.0  0.80124  0.40855  0.27498  1.0000
  C   C1696     1.0  0.81010  0.30959  0.46464  1.0000
  H   H2020     1.0  0.71514  0.47516  0.02160  1.0000
  S   S452      1.0  0.78891  0.27563  0.99295  1.0000
  C   C1697     1.0  0.69782  0.26441  0.99982  1.0000
  H   H2021     1.0  0.73529  0.25747  0.33653  1.0000
  H   H2022     1.0  0.66713  0.39027  0.60174  1.0000
  H   H2023     1.0  0.71096  0.44700  0.94564  1.0000
  H   H2024     1.0  0.68631  0.45117  0.03364  1.0000
  H   H2025     1.0  0.77988  0.27774  0.22394  1.0000
  H   H2026     1.0  0.82091  0.42564  0.94761  1.0000
  C   C1698     1.0  0.81019  0.26981  0.07740  1.0000
  Fe  Fe226     1.0  0.77238  0.26876  0.45506  1.0000
  S   S453      1.0  0.77725  0.26881  0.30866  1.0000
  C   C1699     1.0  0.71738  0.45487  0.99079  1.0000
  H   H2027     1.0  0.67735  0.34387  0.48101  1.0000
  H   H2028     1.0  0.79734  0.42596  0.10776  1.0000
  C   C1700     1.0  0.71260  0.25124  0.01103  1.0000
  C   C1701     1.0  0.68852  0.26233  0.54490  1.0000
  C   C1702     1.0  0.79444  0.44358  0.14494  1.0000
  C   C1703     1.0  0.73862  0.44544  0.96535  1.0000
  S   S454      1.0  0.77260  0.25243  0.42692  1.0000
  C   C1704     1.0  0.67367  0.37118  0.82665  1.0000
  H   H2029     1.0  0.72933  0.43911  0.92418  1.0000
  H   H2030     1.0  0.66377  0.25838  0.61544  1.0000
  H   H2031     1.0  0.79263  0.44491  0.11489  1.0000
  H   H2032     1.0  0.74681  0.34034  0.45691  1.0000
  C   C1705     1.0  0.77040  0.26180  0.27577  1.0000
  C   C1706     1.0  0.80901  0.26677  0.16048  1.0000
  C   C1707     1.0  0.76073  0.30474  0.50685  1.0000
  H   H2033     1.0  0.72524  0.29132  0.15520  1.0000
  H   H2034     1.0  0.66450  0.30503  0.85895  1.0000
  H   H2035     1.0  0.68203  0.36208  0.65823  1.0000
  H   H2036     1.0  0.78908  0.41825  0.15920  1.0000
  H   H2037     1.0  0.77079  0.26823  0.17649  1.0000
  C   C1708     1.0  0.75029  0.31840  0.44514  1.0000
  H   H2038     1.0  0.80983  0.45269  0.19059  1.0000
  H   H2039     1.0  0.80082  0.25621  0.39673  1.0000
  C   C1709     1.0  0.71843  0.44870  0.95969  1.0000
  H   H2040     1.0  0.67964  0.45676  0.74277  1.0000
  C   C1710     1.0  0.66226  0.30353  0.97714  1.0000
  H   H2041     1.0  0.81529  0.27226  0.20863  1.0000
  H   H2042     1.0  0.66108  0.47021  0.03147  1.0000
  C   C1711     1.0  0.69511  0.44825  0.02308  1.0000
  H   H2043     1.0  0.78743  0.27233  0.11199  1.0000
  N   N113      1.0  0.80814  0.37759  0.51907  1.0000
  C   C1712     1.0  0.67036  0.37790  0.85434  1.0000
  H   H2044     1.0  0.73192  0.32155  0.50242  1.0000
  N   N114      1.0  0.66721  0.36471  0.63037  1.0000
  N   N115      1.0  0.79966  0.25978  0.10751  1.0000
  C   C1713     1.0  0.81976  0.31023  0.98691  1.0000
  H   H2045     1.0  0.68857  0.36507  0.79317  1.0000
  H   H2046     1.0  0.79806  0.45325  0.14746  1.0000
  H   H2047     1.0  0.78844  0.37743  0.53312  1.0000
  H   H2048     1.0  0.81526  0.44402  0.08956  1.0000
  H   H2049     1.0  0.69335  0.44262  0.00180  1.0000
  C   C1714     1.0  0.80790  0.44293  0.20797  1.0000
  H   H2050     1.0  0.74034  0.32111  0.53988  1.0000
  S   S455      1.0  0.66546  0.42554  0.54248  1.0000
  N   N116      1.0  0.70602  0.45936  0.00413  1.0000
  H   H2051     1.0  0.81370  0.26765  0.33175  1.0000
  H   H2052     1.0  0.74515  0.45172  0.01162  1.0000
  H   H2053     1.0  0.78686  0.30421  0.53909  1.0000
  N   N117      1.0  0.81225  0.27536  0.38275  1.0000
  H   H2054     1.0  0.72938  0.28878  0.32728  1.0000
  H   H2055     1.0  0.80655  0.42665  0.30257  1.0000
  C   C1715     1.0  0.79840  0.36548  0.47583  1.0000
  H   H2056     1.0  0.80797  0.31022  0.04376  1.0000
  H   H2057     1.0  0.69560  0.47188  0.97854  1.0000
  H   H2058     1.0  0.79853  0.36382  0.57582  1.0000
  C   C1716     1.0  0.72893  0.44414  0.94711  1.0000
  C   C1717     1.0  0.80678  0.26229  0.40988  1.0000
  C   C1718     1.0  0.72393  0.28749  0.25414  1.0000
  H   H2059     1.0  0.75168  0.27787  0.32049  1.0000
  C   C1719     1.0  0.79785  0.38417  0.51923  1.0000
  H   H2060     1.0  0.74654  0.44148  0.95659  1.0000
  H   H2061     1.0  0.80056  0.26232  0.43902  1.0000
  H   H2062     1.0  0.73012  0.27454  0.35985  1.0000
  H   H2063     1.0  0.70431  0.28821  0.95586  1.0000
  C   C1720     1.0  0.80639  0.42836  0.27145  1.0000
  C   C1721     1.0  0.81655  0.35152  0.47304  1.0000
  H   H2064     1.0  0.81284  0.31846  0.44127  1.0000
  H   H2065     1.0  0.81768  0.27038  0.45790  1.0000
  H   H2066     1.0  0.74062  0.27845  0.16033  1.0000
  H   H2067     1.0  0.66777  0.34973  0.68033  1.0000
  H   H2068     1.0  0.82090  0.33261  0.71794  1.0000
  C   C1722     1.0  0.73601  0.28099  0.18663  1.0000
  C   C1723     1.0  0.79834  0.35632  0.45453  1.0000
  C   C1724     1.0  0.81986  0.43620  0.55346  1.0000
  H   H2069     1.0  0.79937  0.25498  0.26239  1.0000
  H   H2070     1.0  0.69248  0.26826  0.56153  1.0000
  H   H2071     1.0  0.82285  0.44963  0.97322  1.0000
  H   H2072     1.0  0.82108  0.39239  0.46927  1.0000
  H   H2073     1.0  0.66654  0.37703  0.66943  1.0000
  C   C1725     1.0  0.82046  0.28368  0.39886  1.0000
  C   C1726     1.0  0.65729  0.34059  0.49116  1.0000
  Fe  Fe227     1.0  0.65735  0.41064  0.98534  1.0000
  H   H2074     1.0  0.82094  0.39479  0.51762  1.0000
  C   C1727     1.0  0.81950  0.27424  0.34388  1.0000
  H   H2075     1.0  0.81943  0.26788  0.07866  1.0000
  H   H2076     1.0  0.66274  0.35284  0.59273  1.0000
  H   H2077     1.0  0.79994  0.24886  0.06422  1.0000
  C   C1728     1.0  0.82088  0.30420  0.95621  1.0000
  C   C1729     1.0  0.76222  0.24969  0.28933  1.0000
  S   S456      1.0  0.73578  0.24918  0.10789  1.0000
  H   H2078     1.0  0.82288  0.28347  0.32030  1.0000
  H   H2079     1.0  0.65949  0.32327  0.87882  1.0000
  C   C1730     1.0  0.69583  0.25491  0.52865  1.0000
  H   H2080     1.0  0.71936  0.24849  0.02654  1.0000
  C   C1731     1.0  0.66012  0.37001  0.66056  1.0000
  H   H2081     1.0  0.70509  0.25526  0.53303  1.0000
  C   C1732     1.0  0.70157  0.24906  0.96119  1.0000
  C   C1733     1.0  0.67221  0.25443  0.51602  1.0000
  C   C1734     1.0  0.65797  0.29299  0.45509  1.0000
  H   H2082     1.0  0.66328  0.25394  0.50935  1.0000
  Fe  Fe228     1.0  0.65858  0.41729  0.60901  1.0000
  S   S457      1.0  0.65716  0.42731  0.93700  1.0000
  C   C1735     1.0  0.66027  0.36419  0.50742  1.0000
  H   H2083     1.0  0.82364  0.34614  0.47182  1.0000
  H   H2084     1.0  0.82314  0.39378  0.93686  1.0000
  C   C1736     1.0  0.79972  0.24771  0.09639  1.0000
  Fe  Fe229     1.0  0.87392  0.44201  0.65870  1.0000
  S   S458      1.0  0.89172  0.44242  0.61406  1.0000
  S   S459      1.0  0.87392  0.43714  0.72448  1.0000
  Fe  Fe230     1.0  0.85884  0.44270  0.59541  1.0000
  S   S460      1.0  0.87569  0.44333  0.54687  1.0000
  S   S461      1.0  0.83973  0.44335  0.58388  1.0000
  Fe  Fe231     1.0  0.87931  0.42857  0.59375  1.0000
  S   S462      1.0  0.88517  0.41160  0.57952  1.0000
  Fe  Fe232     1.0  0.88656  0.45733  0.57152  1.0000
  S   S463      1.0  0.90030  0.47450  0.52456  1.0000
  S   S464      1.0  0.86184  0.42687  0.64114  1.0000
  S   S465      1.0  0.86939  0.45794  0.61733  1.0000
  Fe  Fe233     1.0  0.84044  0.32932  0.53293  1.0000
  S   S466      1.0  0.83344  0.33596  0.58751  1.0000
  C   C1737     1.0  0.88761  0.37503  0.05310  1.0000
  Fe  Fe234     1.0  0.86817  0.34280  0.52477  1.0000
  S   S467      1.0  0.86295  0.35028  0.57814  1.0000
  S   S468      1.0  0.88816  0.34694  0.48479  1.0000
  Fe  Fe235     1.0  0.84994  0.33106  0.60791  1.0000
  S   S469      1.0  0.84812  0.32175  0.67370  1.0000
  Fe  Fe236     1.0  0.84711  0.35465  0.55386  1.0000
  S   S470      1.0  0.84153  0.37296  0.55403  1.0000
  S   S471      1.0  0.85609  0.32288  0.55582  1.0000
  S   S472      1.0  0.85318  0.34869  0.49810  1.0000
  H   H2085     1.0  0.98591  0.47301  0.39056  1.0000
  C   C1738     1.0  0.84051  0.45305  0.45130  1.0000
  H   H2086     1.0  0.95499  0.39388  0.30171  1.0000
  H   H2087     1.0  0.93234  0.48359  0.59581  1.0000
  H   H2088     1.0  0.94827  0.46757  0.32510  1.0000
  H   H2089     1.0  0.84641  0.38805  0.65376  1.0000
  Fe  Fe237     1.0  0.87241  0.44966  0.98940  1.0000
  S   S473      1.0  0.88243  0.47017  0.95573  1.0000
  S   S474      1.0  0.85482  0.43995  0.04116  1.0000
  Fe  Fe238     1.0  0.89138  0.43953  0.93947  1.0000
  S   S475      1.0  0.90292  0.45880  0.90234  1.0000
  S   S476      1.0  0.89660  0.42157  0.93189  1.0000
  Fe  Fe239     1.0  0.90043  0.46442  0.96056  1.0000
  S   S477      1.0  0.91934  0.47501  0.96642  1.0000
  Fe  Fe240     1.0  0.88438  0.46300  0.90028  1.0000
  S   S478      1.0  0.88163  0.47244  0.84014  1.0000
  S   S479      1.0  0.89024  0.44446  0.99765  1.0000
  S   S480      1.0  0.87301  0.44326  0.93394  1.0000
  H   H2090     1.0  0.97918  0.43794  0.44422  1.0000
  C   C1739     1.0  0.83055  0.42609  0.05661  1.0000
  H   H2091     1.0  0.93457  0.49148  0.75879  1.0000
  C   C1740     1.0  0.83201  0.43514  0.55471  1.0000
  C   C1741     1.0  0.93021  0.48521  0.56717  1.0000
  C   C1742     1.0  0.84852  0.47943  0.51768  1.0000
  H   H2092     1.0  0.88302  0.38933  0.83005  1.0000
  C   C1743     1.0  0.95096  0.42891  0.21252  1.0000
  Fe  Fe241     1.0  0.84925  0.33628  0.93810  1.0000
  S   S481      1.0  0.84871  0.34921  0.88011  1.0000
  S   S482      1.0  0.83164  0.32329  0.98646  1.0000
  Fe  Fe242     1.0  0.87712  0.34971  0.92828  1.0000
  S   S483      1.0  0.87842  0.36300  0.86918  1.0000
  S   S484      1.0  0.89298  0.35016  0.95999  1.0000
  Fe  Fe243     1.0  0.85943  0.36482  0.89880  1.0000
  S   S485      1.0  0.85573  0.38428  0.88827  1.0000
  Fe  Fe244     1.0  0.86771  0.34639  0.85389  1.0000
  S   S486      1.0  0.87454  0.34789  0.78680  1.0000
  S   S487      1.0  0.85850  0.35245  0.95876  1.0000
  S   S488      1.0  0.86791  0.33251  0.91108  1.0000
  C   C1744     1.0  0.90396  0.36265  0.96783  1.0000
  C   C1745     1.0  0.90507  0.37552  0.95059  1.0000
  C   C1746     1.0  0.91355  0.38503  0.95873  1.0000
  C   C1747     1.0  0.92113  0.38191  0.98423  1.0000
  C   C1748     1.0  0.92015  0.36902  0.00108  1.0000
  C   C1749     1.0  0.91168  0.35951  0.99282  1.0000
  H   H2093     1.0  0.89942  0.37809  0.93072  1.0000
  H   H2094     1.0  0.91431  0.39491  0.94481  1.0000
  H   H2095     1.0  0.92588  0.36635  0.02060  1.0000
  H   H2096     1.0  0.91103  0.34961  0.00620  1.0000
  C   C1750     1.0  0.84152  0.35522  0.73757  1.0000
  C   C1751     1.0  0.96754  0.46549  0.04649  1.0000
  C   C1752     1.0  0.97585  0.47312  0.06057  1.0000
  H   H2097     1.0  0.95925  0.46834  0.04130  1.0000
  H   H2098     1.0  0.97394  0.48182  0.06576  1.0000
  C   C1753     1.0  0.92644  0.48156  0.00036  1.0000
  S   S489      1.0  0.98258  0.42579  0.37479  1.0000
  H   H2099     1.0  0.85735  0.36654  0.02027  1.0000
  H   H2100     1.0  0.87311  0.38657  0.64930  1.0000
  C   C1754     1.0  0.94576  0.49038  0.01675  1.0000
  C   C1755     1.0  0.93964  0.48489  0.99166  1.0000
  C   C1756     1.0  0.86712  0.47230  0.51917  1.0000
  H   H2101     1.0  0.84227  0.36882  0.64045  1.0000
  C   C1757     1.0  0.86030  0.37779  0.72595  1.0000
  H   H2102     1.0  0.94522  0.48333  0.96503  1.0000
  C   C1758     1.0  0.88511  0.41125  0.92007  1.0000
  C   C1759     1.0  0.88425  0.39820  0.93041  1.0000
  C   C1760     1.0  0.87508  0.38982  0.92143  1.0000
  C   C1761     1.0  0.86673  0.39451  0.90196  1.0000
  C   C1762     1.0  0.86760  0.40756  0.89159  1.0000
  C   C1763     1.0  0.87681  0.41591  0.90042  1.0000
  H   H2103     1.0  0.89062  0.39452  0.94557  1.0000
  H   H2104     1.0  0.87455  0.37976  0.92943  1.0000
  H   H2105     1.0  0.86141  0.41132  0.87572  1.0000
  H   H2106     1.0  0.87770  0.42597  0.89093  1.0000
  C   C1764     1.0  0.95351  0.44545  0.32713  1.0000
  C   C1765     1.0  0.93894  0.49412  0.53328  1.0000
  C   C1766     1.0  0.86240  0.45355  0.42835  1.0000
  H   H2107     1.0  0.86948  0.47907  0.53676  1.0000
  H   H2108     1.0  0.89364  0.37000  0.72870  1.0000
  H   H2109     1.0  0.84370  0.41212  0.80281  1.0000
  H   H2110     1.0  0.90211  0.41312  0.02008  1.0000
  H   H2111     1.0  0.90613  0.41848  0.75242  1.0000
  H   H2112     1.0  0.95460  0.46284  0.45654  1.0000
  C   C1767     1.0  0.85496  0.32961  0.70505  1.0000
  C   C1768     1.0  0.85084  0.32435  0.74701  1.0000
  C   C1769     1.0  0.85636  0.33008  0.77272  1.0000
  C   C1770     1.0  0.86640  0.34088  0.75655  1.0000
  C   C1771     1.0  0.87062  0.34602  0.71462  1.0000
  C   C1772     1.0  0.86478  0.34060  0.68908  1.0000
  H   H2113     1.0  0.84330  0.31580  0.75973  1.0000
  H   H2114     1.0  0.85310  0.32591  0.80490  1.0000
  H   H2115     1.0  0.87859  0.35415  0.70181  1.0000
  H   H2116     1.0  0.86816  0.34470  0.65700  1.0000
  C   C1773     1.0  0.90146  0.35824  0.48534  1.0000
  C   C1774     1.0  0.90191  0.36266  0.51900  1.0000
  C   C1775     1.0  0.91315  0.37038  0.52023  1.0000
  C   C1776     1.0  0.92388  0.37435  0.48705  1.0000
  C   C1777     1.0  0.92328  0.37037  0.45273  1.0000
  C   C1778     1.0  0.91219  0.36217  0.45222  1.0000
  H   H2117     1.0  0.89373  0.35979  0.54458  1.0000
  H   H2118     1.0  0.91356  0.37316  0.54726  1.0000
  H   H2119     1.0  0.93148  0.37321  0.42715  1.0000
  H   H2120     1.0  0.91198  0.35876  0.42608  1.0000
  C   C1779     1.0  0.87639  0.44749  0.75487  1.0000
  C   C1780     1.0  0.87605  0.46026  0.74372  1.0000
  C   C1781     1.0  0.87742  0.46783  0.77026  1.0000
  C   C1782     1.0  0.87940  0.46276  0.80767  1.0000
  C   C1783     1.0  0.87992  0.45009  0.81831  1.0000
  C   C1784     1.0  0.87823  0.44248  0.79241  1.0000
  H   H2121     1.0  0.87447  0.46421  0.71511  1.0000
  H   H2122     1.0  0.87690  0.47761  0.76184  1.0000
  H   H2123     1.0  0.88157  0.44615  0.84669  1.0000
  H   H2124     1.0  0.87823  0.43260  0.80186  1.0000
  C   C1785     1.0  0.91542  0.48123  0.52824  1.0000
  H   H2125     1.0  0.88209  0.41605  0.04040  1.0000
  H   H2126     1.0  0.90387  0.47370  0.75487  1.0000
  N   N118      1.0  0.88580  0.39740  0.04907  1.0000
  H   H2127     1.0  0.87786  0.40769  0.00624  1.0000
  H   H2128     1.0  0.98472  0.42677  0.52932  1.0000
  H   H2129     1.0  0.87013  0.36949  0.66338  1.0000
  H   H2130     1.0  0.84212  0.42773  0.95724  1.0000
  H   H2131     1.0  0.87634  0.39210  0.11211  1.0000
  H   H2132     1.0  0.84012  0.43804  0.89951  1.0000
  C   C1786     1.0  0.87343  0.40206  0.56652  1.0000
  C   C1787     1.0  0.87597  0.39186  0.55204  1.0000
  C   C1788     1.0  0.86631  0.38335  0.54559  1.0000
  C   C1789     1.0  0.85406  0.38483  0.55457  1.0000
  C   C1790     1.0  0.85167  0.39543  0.56692  1.0000
  C   C1791     1.0  0.86137  0.40408  0.57273  1.0000
  H   H2133     1.0  0.88531  0.39033  0.54664  1.0000
  H   H2134     1.0  0.86835  0.37556  0.53404  1.0000
  H   H2135     1.0  0.84224  0.39677  0.57313  1.0000
  H   H2136     1.0  0.85940  0.41210  0.58306  1.0000
  S   S490      1.0  0.94308  0.40787  0.07507  1.0000
  Fe  Fe245     1.0  0.98857  0.49509  0.09709  1.0000
  H   H2137     1.0  0.87524  0.46609  0.44628  1.0000
  H   H2138     1.0  0.87398  0.31431  0.74669  1.0000
  C   C1792     1.0  0.97096  0.40617  0.18666  1.0000
  C   C1793     1.0  0.83777  0.42798  0.53191  1.0000
  H   H2139     1.0  0.90322  0.49409  0.80314  1.0000
  H   H2140     1.0  0.94226  0.42730  0.23702  1.0000
  H   H2141     1.0  0.84712  0.42710  0.53229  1.0000
  C   C1794     1.0  0.93944  0.46249  0.12197  1.0000
  C   C1795     1.0  0.96972  0.45407  0.04027  1.0000
  H   H2142     1.0  0.94687  0.44634  0.35418  1.0000
  C   C1796     1.0  0.86574  0.36892  0.02985  1.0000
  C   C1797     1.0  0.84540  0.43801  0.83834  1.0000
  S   S491      1.0  0.93124  0.39449  0.99478  1.0000
  C   C1798     1.0  0.83995  0.43685  0.03186  1.0000
  H   H2143     1.0  0.90568  0.39800  0.03329  1.0000
  H   H2144     1.0  0.86963  0.49632  0.47679  1.0000
  C   C1799     1.0  0.83836  0.41151  0.86558  1.0000
  H   H2145     1.0  0.84430  0.45351  0.98210  1.0000
  C   C1800     1.0  0.96979  0.45652  0.26504  1.0000
  H   H2146     1.0  0.84754  0.44159  0.41468  1.0000
  C   C1801     1.0  0.95946  0.39737  0.26973  1.0000
  N   N119      1.0  0.96209  0.45790  0.30273  1.0000
  C   C1802     1.0  0.98649  0.46944  0.06795  1.0000
  C   C1803     1.0  0.94274  0.45089  0.12915  1.0000
  H   H2147     1.0  0.98850  0.47927  0.96903  1.0000
  H   H2148     1.0  0.82550  0.30019  0.34666  1.0000
  S   S492      1.0  0.96036  0.38864  0.05242  1.0000
  H   H2149     1.0  0.96491  0.42669  0.14720  1.0000
  H   H2150     1.0  0.90073  0.48808  0.70304  1.0000
  C   C1804     1.0  0.96095  0.43509  0.14170  1.0000
  H   H2151     1.0  0.97550  0.40964  0.15477  1.0000
  H   H2152     1.0  0.98930  0.43836  0.23284  1.0000
  N   N120      1.0  0.91604  0.49154  0.75203  1.0000
  H   H2153     1.0  0.95590  0.49298  0.00920  1.0000
  H   H2154     1.0  0.95967  0.43633  0.11117  1.0000
  C   C1805     1.0  0.87815  0.40641  0.03796  1.0000
  C   C1806     1.0  0.91940  0.49606  0.70761  1.0000
  H   H2155     1.0  0.97848  0.46859  0.16234  1.0000
  H   H2156     1.0  0.86432  0.38771  0.02620  1.0000
  H   H2157     1.0  0.94557  0.44911  0.22408  1.0000
  H   H2158     1.0  0.95357  0.41967  0.21652  1.0000
  H   H2159     1.0  0.93968  0.46920  0.21020  1.0000
  H   H2160     1.0  0.94788  0.44113  0.30934  1.0000
  C   C1807     1.0  0.89880  0.40286  0.02271  1.0000
  C   C1808     1.0  0.97652  0.41103  0.21369  1.0000
  C   C1809     1.0  0.84549  0.36467  0.69998  1.0000
  Fe  Fe246     1.0  0.95976  0.42375  0.03878  1.0000
  S   S493      1.0  0.95821  0.44391  0.02822  1.0000
  H   H2161     1.0  0.85287  0.37758  0.75279  1.0000
  C   C1810     1.0  0.97674  0.44589  0.45391  1.0000
  Fe  Fe247     1.0  0.95525  0.39654  0.44174  1.0000
  H   H2162     1.0  0.93576  0.47800  0.14548  1.0000
  H   H2163     1.0  0.88870  0.35583  0.05452  1.0000
  H   H2164     1.0  0.89139  0.31218  0.57437  1.0000
  S   S494      1.0  0.97387  0.39454  0.40619  1.0000
  H   H2165     1.0  0.93809  0.46669  0.09309  1.0000
  H   H2166     1.0  0.98532  0.41820  0.20226  1.0000
  C   C1811     1.0  0.98457  0.45327  0.19372  1.0000
  C   C1812     1.0  0.89219  0.32714  0.72985  1.0000
  C   C1813     1.0  0.95421  0.46704  0.29619  1.0000
  H   H2167     1.0  0.90932  0.48118  0.04241  1.0000
  H   H2168     1.0  0.90915  0.47369  0.79837  1.0000
  C   C1814     1.0  0.94506  0.44546  0.16607  1.0000
  C   C1815     1.0  0.88225  0.31954  0.72220  1.0000
  H   H2169     1.0  0.93812  0.42524  0.13683  1.0000
  N   N121      1.0  0.94899  0.43338  0.17228  1.0000
  H   H2170     1.0  0.86751  0.38688  0.71854  1.0000
  N   N122      1.0  0.93493  0.44013  0.95767  1.0000
  C   C1816     1.0  0.94059  0.45376  0.93609  1.0000
  C   C1817     1.0  0.94487  0.43329  0.94929  1.0000
  C   C1818     1.0  0.92478  0.43543  0.94052  1.0000
  C   C1819     1.0  0.92965  0.43780  0.00154  1.0000
  C   C1820     1.0  0.92503  0.42523  0.02713  1.0000
  C   C1821     1.0  0.92818  0.44776  0.01977  1.0000
  C   C1822     1.0  0.91930  0.42279  0.06820  1.0000
  C   C1823     1.0  0.92231  0.44525  0.06071  1.0000
  C   C1824     1.0  0.91791  0.43280  0.08494  1.0000
  H   H2171     1.0  0.94796  0.45795  0.94904  1.0000
  H   H2172     1.0  0.94506  0.45521  0.90364  1.0000
  H   H2173     1.0  0.93340  0.45936  0.93731  1.0000
  H   H2174     1.0  0.94926  0.43525  0.91652  1.0000
  H   H2175     1.0  0.94130  0.42281  0.96064  1.0000
  H   H2176     1.0  0.95245  0.43624  0.96308  1.0000
  H   H2177     1.0  0.91688  0.43999  0.94745  1.0000
  H   H2178     1.0  0.92807  0.43742  0.90730  1.0000
  H   H2179     1.0  0.92089  0.42497  0.95263  1.0000
  H   H2180     1.0  0.92576  0.41716  0.01544  1.0000
  H   H2181     1.0  0.93154  0.45761  0.00304  1.0000
  H   H2182     1.0  0.91601  0.41309  0.08705  1.0000
  H   H2183     1.0  0.92116  0.45309  0.07342  1.0000
  H   H2184     1.0  0.91342  0.43093  0.11668  1.0000
  H   H2185     1.0  0.85659  0.39685  0.67508  1.0000
  H   H2186     1.0  0.92357  0.49201  0.80269  1.0000
  H   H2187     1.0  0.85141  0.48638  0.53413  1.0000
  H   H2188     1.0  0.86950  0.35051  0.03340  1.0000
  C   C1825     1.0  0.85603  0.46700  0.47147  1.0000
  C   C1826     1.0  0.86706  0.48870  0.46228  1.0000
  H   H2189     1.0  0.84828  0.44830  0.82761  1.0000
  C   C1827     1.0  0.83716  0.44518  0.00132  1.0000
  C   C1828     1.0  0.92431  0.48979  0.49405  1.0000
  C   C1829     1.0  0.84963  0.38763  0.68127  1.0000
  H   H2190     1.0  0.96006  0.47687  0.28103  1.0000
  C   C1830     1.0  0.86574  0.37756  0.65706  1.0000
  H   H2191     1.0  0.86495  0.37001  0.73452  1.0000
  N   N123      1.0  0.85512  0.37665  0.69161  1.0000
  H   H2192     1.0  0.83130  0.28464  0.48147  1.0000
  H   H2193     1.0  0.83601  0.40125  0.87392  1.0000
  H   H2194     1.0  0.89222  0.39066  0.10096  1.0000
  H   H2195     1.0  0.83554  0.46445  0.48928  1.0000
  H   H2196     1.0  0.97936  0.39010  0.14065  1.0000
  H   H2197     1.0  0.83622  0.41693  0.48964  1.0000
  H   H2198     1.0  0.87627  0.47122  0.50261  1.0000
  C   C1831     1.0  0.83152  0.42219  0.50775  1.0000
  H   H2199     1.0  0.86972  0.45014  0.41172  1.0000
  H   H2200     1.0  0.95876  0.43568  0.21700  1.0000
  C   C1832     1.0  0.83732  0.41855  0.89451  1.0000
  H   H2201     1.0  0.86192  0.46299  0.54091  1.0000
  S   S495      1.0  0.96932  0.49045  0.13874  1.0000
  C   C1833     1.0  0.84088  0.43201  0.87953  1.0000
  C   C1834     1.0  0.83098  0.35073  0.67642  1.0000
  C   C1835     1.0  0.84627  0.43083  0.81086  1.0000
  C   C1836     1.0  0.97680  0.44717  0.26623  1.0000
  H   H2202     1.0  0.86838  0.40323  0.05788  1.0000
  H   H2203     1.0  0.82994  0.33669  0.77246  1.0000
  C   C1837     1.0  0.83023  0.28777  0.45153  1.0000
  C   C1838     1.0  0.97792  0.46260  0.19151  1.0000
  H   H2204     1.0  0.86182  0.49214  0.44075  1.0000
  H   H2205     1.0  0.84140  0.38718  0.70606  1.0000
  Fe  Fe248     1.0  0.97201  0.40995  0.35578  1.0000
  C   C1839     1.0  0.83622  0.30012  0.42817  1.0000
  H   H2206     1.0  0.97705  0.47174  0.30857  1.0000
  C   C1840     1.0  0.84115  0.41747  0.95981  1.0000
  Fe  Fe249     1.0  0.97599  0.40638  0.01858  1.0000
  H   H2207     1.0  0.91180  0.47218  0.59126  1.0000
  H   H2208     1.0  0.82701  0.39416  0.98248  1.0000
  H   H2209     1.0  0.89942  0.40204  0.99181  1.0000
  S   S496      1.0  0.82775  0.32164  0.49593  1.0000
  H   H2210     1.0  0.89771  0.38233  0.65786  1.0000
  C   C1841     1.0  0.89565  0.38683  0.68180  1.0000
  C   C1842     1.0  0.91021  0.49350  0.68695  1.0000
  C   C1843     1.0  0.86544  0.46261  0.44855  1.0000
  H   H2211     1.0  0.93008  0.42186  0.18918  1.0000
  C   C1844     1.0  0.96299  0.45999  0.46057  1.0000
  C   C1845     1.0  0.84284  0.41763  0.82442  1.0000
  C   C1846     1.0  0.93823  0.46896  0.15135  1.0000
  H   H2212     1.0  0.83267  0.41954  0.08010  1.0000
  H   H2213     1.0  0.89161  0.41503  0.69517  1.0000
  H   H2214     1.0  0.82847  0.38346  0.50127  1.0000
  C   C1847     1.0  0.88591  0.39651  0.09123  1.0000
  H   H2215     1.0  0.94784  0.46439  0.27803  1.0000
  C   C1848     1.0  0.98405  0.44559  0.23104  1.0000
  C   C1849     1.0  0.88102  0.38455  0.04519  1.0000
  H   H2216     1.0  0.90444  0.33309  0.54672  1.0000
  C   C1850     1.0  0.91854  0.47874  0.56468  1.0000
  H   H2217     1.0  0.89969  0.39642  0.80920  1.0000
  S   S497      1.0  0.93792  0.38365  0.49109  1.0000
  H   H2218     1.0  0.88964  0.40400  0.83699  1.0000
  S   S498      1.0  0.95688  0.44201  0.42228  1.0000
  C   C1851     1.0  0.89024  0.39840  0.81461  1.0000
  H   H2219     1.0  0.89536  0.42270  0.78968  1.0000
  H   H2220     1.0  0.89337  0.42486  0.74109  1.0000
  H   H2221     1.0  0.90711  0.40405  0.47324  1.0000
  C   C1852     1.0  0.89609  0.41831  0.76427  1.0000
  H   H2222     1.0  0.96818  0.47426  0.48993  1.0000
  Fe  Fe250     1.0  0.94732  0.39870  0.02467  1.0000
  H   H2223     1.0  0.91505  0.39532  0.52828  1.0000
  H   H2224     1.0  0.89971  0.41245  0.50432  1.0000
  N   N124      1.0  0.88803  0.40513  0.77669  1.0000
  H   H2225     1.0  0.87251  0.41077  0.75805  1.0000
  C   C1853     1.0  0.89087  0.38573  0.75261  1.0000
  H   H2226     1.0  0.83081  0.44912  0.45283  1.0000
  H   H2227     1.0  0.83894  0.31413  0.37279  1.0000
  H   H2228     1.0  0.88921  0.40606  0.09544  1.0000
  C   C1854     1.0  0.98054  0.45054  0.04650  1.0000
  C   C1855     1.0  0.90854  0.41315  0.48171  1.0000
  H   H2229     1.0  0.90930  0.40504  0.55876  1.0000
  H   H2230     1.0  0.87225  0.41053  0.80871  1.0000
  C   C1856     1.0  0.83038  0.39841  0.94934  1.0000
  S   S499      1.0  0.97823  0.41336  0.28765  1.0000
  H   H2231     1.0  0.86276  0.37737  0.62949  1.0000
  C   C1857     1.0  0.91729  0.40470  0.53446  1.0000
  H   H2232     1.0  0.90964  0.42094  0.45450  1.0000
  C   C1858     1.0  0.83257  0.34392  0.74398  1.0000
  H   H2233     1.0  0.94448  0.44603  0.53676  1.0000
  H   H2234     1.0  0.93321  0.42287  0.44016  1.0000
  S   S500      1.0  0.95301  0.41087  0.38990  1.0000
  Fe  Fe251     1.0  0.95699  0.39907  0.10030  1.0000
  C   C1859     1.0  0.96608  0.44974  0.44759  1.0000
  S   S501      1.0  0.96344  0.41540  0.98709  1.0000
  C   C1860     1.0  0.87471  0.40560  0.78521  1.0000
  N   N125      1.0  0.91958  0.41523  0.49788  1.0000
  C   C1861     1.0  0.93050  0.41452  0.46699  1.0000
  H   H2235     1.0  0.92565  0.40503  0.54622  1.0000
  C   C1862     1.0  0.89238  0.40533  0.70370  1.0000
  C   C1863     1.0  0.97079  0.46662  0.47878  1.0000
  H   H2236     1.0  0.91308  0.32970  0.58276  1.0000
  H   H2237     1.0  0.93888  0.41417  0.47822  1.0000
  H   H2238     1.0  0.86832  0.39588  0.79627  1.0000
  C   C1864     1.0  0.88263  0.31909  0.68296  1.0000
  H   H2239     1.0  0.94379  0.44638  0.10502  1.0000
  H   H2240     1.0  0.84970  0.43554  0.77893  1.0000
  C   C1865     1.0  0.91206  0.47746  0.76498  1.0000
  H   H2241     1.0  0.90480  0.43299  0.50209  1.0000
  C   C1866     1.0  0.89068  0.39877  0.74443  1.0000
  C   C1867     1.0  0.88275  0.33117  0.59834  1.0000
  C   C1868     1.0  0.94044  0.46393  0.18792  1.0000
  C   C1869     1.0  0.88334  0.36286  0.04947  1.0000
  C   C1870     1.0  0.93323  0.43153  0.51923  1.0000
  C   C1871     1.0  0.97076  0.46439  0.22647  1.0000
  H   H2242     1.0  0.95861  0.43854  0.33903  1.0000
  S   S502      1.0  0.97323  0.41581  0.06833  1.0000
  H   H2243     1.0  0.92854  0.40574  0.45701  1.0000
  N   N126      1.0  0.89307  0.32587  0.60858  1.0000
  C   C1872     1.0  0.90490  0.33337  0.57760  1.0000
  H   H2244     1.0  0.82785  0.27061  0.34736  1.0000
  C   C1873     1.0  0.93605  0.49613  0.49645  1.0000
  C   C1874     1.0  0.92215  0.42747  0.50802  1.0000
  C   C1875     1.0  0.91369  0.43546  0.50856  1.0000
  H   H2245     1.0  0.88258  0.33158  0.56686  1.0000
  S   S503      1.0  0.96510  0.41113  0.46673  1.0000
  H   H2246     1.0  0.89661  0.40481  0.64198  1.0000
  H   H2247     1.0  0.90680  0.34360  0.57672  1.0000
  H   H2248     1.0  0.88378  0.34098  0.60153  1.0000
  H   H2249     1.0  0.94003  0.42590  0.52025  1.0000
  H   H2250     1.0  0.87335  0.32545  0.61797  1.0000
  C   C1876     1.0  0.97081  0.40668  0.25536  1.0000
  H   H2251     1.0  0.94195  0.41390  0.17293  1.0000
  C   C1877     1.0  0.95961  0.39686  0.20096  1.0000
  H   H2252     1.0  0.91039  0.34003  0.70456  1.0000
  C   C1878     1.0  0.82671  0.29635  0.37585  1.0000
  H   H2253     1.0  0.94521  0.38517  0.25409  1.0000
  C   C1879     1.0  0.89096  0.31260  0.60570  1.0000
  H   H2254     1.0  0.87441  0.31347  0.67855  1.0000
  H   H2255     1.0  0.89814  0.30801  0.61539  1.0000
  H   H2256     1.0  0.82915  0.30759  0.93077  1.0000
  H   H2257     1.0  0.96503  0.46383  0.35446  1.0000
  C   C1880     1.0  0.89315  0.32613  0.65004  1.0000
  C   C1881     1.0  0.90269  0.33411  0.69835  1.0000
  C   C1882     1.0  0.89505  0.39948  0.67292  1.0000
  H   H2258     1.0  0.88157  0.30664  0.62453  1.0000
  H   H2259     1.0  0.88905  0.37976  0.78277  1.0000
  C   C1883     1.0  0.93935  0.42319  0.16763  1.0000
  H   H2260     1.0  0.83926  0.39565  0.93863  1.0000
  N   N127      1.0  0.83235  0.41244  0.93829  1.0000
  H   H2261     1.0  0.83792  0.41268  0.99265  1.0000
  C   C1884     1.0  0.91647  0.44699  0.51805  1.0000
  C   C1885     1.0  0.94383  0.45236  0.19539  1.0000
  S   S504      1.0  0.95222  0.39050  0.16798  1.0000
  H   H2262     1.0  0.90997  0.45301  0.51785  1.0000
  H   H2263     1.0  0.96813  0.44356  0.14083  1.0000
  H   H2264     1.0  0.92971  0.45983  0.53496  1.0000
  H   H2265     1.0  0.85069  0.41620  0.94797  1.0000
  H   H2266     1.0  0.89162  0.32778  0.76021  1.0000
  C   C1886     1.0  0.90326  0.33363  0.65896  1.0000
  C   C1887     1.0  0.93586  0.44304  0.52897  1.0000
  C   C1888     1.0  0.92756  0.45082  0.52797  1.0000
  H   H2267     1.0  0.91165  0.33933  0.63605  1.0000
  C   C1889     1.0  0.89342  0.37994  0.72160  1.0000
  Fe  Fe252     1.0  0.96375  0.42508  0.41328  1.0000
  C   C1890     1.0  0.95394  0.39244  0.24263  1.0000
  H   H2268     1.0  0.84539  0.35613  0.76228  1.0000
  C   C1891     1.0  0.83980  0.36212  0.66978  1.0000
  N   N128      1.0  0.85951  0.47668  0.49239  1.0000
  C   C1892     1.0  0.91945  0.48364  0.03511  1.0000
  Fe  Fe253     1.0  0.98342  0.41068  0.42702  1.0000
  C   C1893     1.0  0.92558  0.48936  0.05976  1.0000
  H   H2269     1.0  0.84191  0.30651  0.43997  1.0000
  H   H2270     1.0  0.92201  0.49180  0.46573  1.0000
  H   H2271     1.0  0.91974  0.47325  0.75260  1.0000
  C   C1894     1.0  0.97044  0.46245  0.32610  1.0000
  C   C1895     1.0  0.84995  0.44877  0.42978  1.0000
  H   H2272     1.0  0.89630  0.37699  0.06122  1.0000
  H   H2273     1.0  0.84249  0.47064  0.54099  1.0000
  C   C1896     1.0  0.98891  0.45820  0.06052  1.0000
  H   H2274     1.0  0.98626  0.39381  0.06586  1.0000
  H   H2275     1.0  0.97605  0.45563  0.33491  1.0000
  H   H2276     1.0  0.96617  0.47208  0.22240  1.0000
  C   C1897     1.0  0.86988  0.38111  0.03351  1.0000
  C   C1898     1.0  0.84341  0.46195  0.47216  1.0000
  C   C1899     1.0  0.92650  0.49547  0.76922  1.0000
  C   C1900     1.0  0.87250  0.35984  0.03753  1.0000
  C   C1901     1.0  0.98458  0.45266  0.47160  1.0000
  C   C1902     1.0  0.83445  0.30441  0.39042  1.0000
  H   H2277     1.0  0.97682  0.44100  0.29441  1.0000
  C   C1903     1.0  0.98191  0.46332  0.48251  1.0000
  H   H2278     1.0  0.98257  0.44202  0.04013  1.0000
  H   H2279     1.0  0.84272  0.48358  0.49935  1.0000
  H   H2280     1.0  0.89668  0.49273  0.76299  1.0000
  H   H2281     1.0  0.87603  0.48757  0.44449  1.0000
  H   H2282     1.0  0.90598  0.49565  0.62981  1.0000
  H   H2283     1.0  0.97731  0.37348  0.14828  1.0000
  C   C1904     1.0  0.93878  0.49289  0.05070  1.0000
  C   C1905     1.0  0.82744  0.34160  0.71333  1.0000
  C   C1906     1.0  0.82498  0.44298  0.99644  1.0000
  H   H2284     1.0  0.92002  0.49124  0.08582  1.0000
  C   C1907     1.0  0.98442  0.38244  0.14375  1.0000
  H   H2285     1.0  0.82701  0.34891  0.65254  1.0000
  H   H2286     1.0  0.98744  0.38149  0.17180  1.0000
  H   H2287     1.0  0.98219  0.37677  0.07824  1.0000
  H   H2288     1.0  0.98958  0.48975  0.36656  1.0000
  H   H2289     1.0  0.82415  0.36206  0.50881  1.0000
  C   C1908     1.0  0.90552  0.49663  0.76970  1.0000
  H   H2290     1.0  0.96391  0.49750  0.31748  1.0000
  C   C1909     1.0  0.98997  0.38526  0.07281  1.0000
  H   H2291     1.0  0.99024  0.45212  0.16636  1.0000
  H   H2292     1.0  0.99027  0.46007  0.94649  1.0000
  S   S505      1.0  0.97225  0.52064  0.12021  1.0000
  S   S506      1.0  0.98479  0.50915  0.04803  1.0000
  Fe  Fe254     1.0  0.97208  0.50862  0.49873  1.0000
  C   C1910     1.0  0.97901  0.50874  0.33231  1.0000
  H   H2293     1.0  0.90779  0.50716  0.75841  1.0000
  S   S507      1.0  0.97704  0.49920  0.44991  1.0000
  H   H2294     1.0  0.97416  0.50620  0.36396  1.0000
  C   C1911     1.0  0.92515  0.50477  0.62263  1.0000
  C   C1912     1.0  0.97918  0.50728  0.26440  1.0000
  S   S508      1.0  0.97118  0.50122  0.23228  1.0000
  C   C1913     1.0  0.93445  0.50721  0.64176  1.0000
  Fe  Fe255     1.0  0.97735  0.50588  0.16386  1.0000
  C   C1914     1.0  0.97321  0.50381  0.30583  1.0000
  S   S509      1.0  0.95214  0.50418  0.53953  1.0000
  Fe  Fe256     1.0  0.96570  0.50526  0.09160  1.0000
  H   H2295     1.0  0.96318  0.52858  0.24751  1.0000
  C   C1915     1.0  0.91308  0.49781  0.64510  1.0000
  S   S510      1.0  0.98655  0.52723  0.46516  1.0000
  C   C1916     1.0  0.98059  0.53993  0.20501  1.0000
  H   H2296     1.0  0.93939  0.50526  0.69630  1.0000
  H   H2297     1.0  0.94391  0.51231  0.62368  1.0000
  H   H2298     1.0  0.96838  0.53499  0.30541  1.0000
  S   S511      1.0  0.94592  0.50065  0.08221  1.0000
  C   C1917     1.0  0.97197  0.53535  0.24304  1.0000
  H   H2299     1.0  0.97808  0.53643  0.18113  1.0000
  C   C1918     1.0  0.93169  0.50299  0.68364  1.0000
  H   H2300     1.0  0.92980  0.50600  0.76131  1.0000
  C   C1919     1.0  0.97489  0.53892  0.27568  1.0000
  H   H2301     1.0  0.98828  0.55068  0.12259  1.0000
  S   S512      1.0  0.98521  0.50155  0.53210  1.0000
  H   H2302     1.0  0.92741  0.50804  0.59012  1.0000
  H   H2303     1.0  0.94257  0.50309  0.47026  1.0000
  H   H2304     1.0  0.98880  0.54951  0.29624  1.0000
  C   C1920     1.0  0.98642  0.54714  0.27038  1.0000
