data_image0
_chemical_formula_structural       SHFeSFeSCFeS2FeSFeS3FeS2FeS2FeSFeHS3FeSC3H2C2H3C6HCH2C6H4CHC7H4FeH6C3H2CH2CH3CHSH3CH2C2S3H2CH6CH2CHNC5HNH13CH2NC10H3CH2CH3CNH2CHC2HCHC2H6S2CHC3FeSC2SFeS2FeS2FeHFeS3FeSHFeSCFeSFeS3C6H4C6H4C2H2NCSC7H2CHFeCNC5H2C2H2C2H7C2H2C2HNC4FeCH2CH13CHC4H2SHSHCHSCH3CHCHFeHSH2CH3CHCH3NH3CFeHC2SCH2CHCHC2H2CFeHC4HSH3CHCH5CHSH3CH4CSHCHFeS2FeS2FeSFeHS2FeS2FeS2Fe3HS3CFeSC7H4C4HCH4S2H2C10H3C3HNC2SH4C2H3C2HCHCNCH4C4H6CFeH3CH3CHCH2C4HC2H4FeH2CHCH5NSH3C2H7C4SHNC3H2CSH2NCH3CHCH2CH2CHSNCSC2HFeSCFeS2FeSFeS3FeS2FeSFeSFeS3HNFeSH2S2H3CFeH6C3H3C3H2C6H4C6H2CHSHCHC8H2CH2NHC4HCHCH2C2FeH2CH3CH2NC9H14NCH2C2H3CSHSH2CH2C2SHC2H3C3HCH2CH3C2H2C2H3CH3CH3FeSCH4FeHC4HSFeSFeS2FeS2FeSFeS3FeS2FeS2FeSFeS3C4HCH3CH2NHC6H4C3H2C6H4C6H4C6H4C2HC7H10N2C5HC3H4CH2CH2C2HC2HCH5CHCHNC6H6CH7CHNC9H14NC4H7CH2NHC3H4CH2C2H2CS2HCFeC3H5CHC2HC2SH4CHCHCHCH3CHC2HCNHNC4H3CH3SC2FeS2FeS2FeSFeS3FeS2FeS2FeSFeS3C6H2C6H4C6H4C6H4C6H4C2HCFeC4H4C3H3C2H2NC3NH4C2H2C4H2CH2CH2CHCH4NCH2CHC3HCH2CHCSCHCH2C2HCH2CSH4SHCHC2H2C4H2C2NH2CH7CHCH4C2H4CH4CH5NHC6HC2H2CH2C3H3CHCN2CHCSHCH2CHNCHC2H4CH2FeH9CH3NHC9SH4CFeSC4S2CFeH3CSFeC2H2C2H2FeCSHCHCH3SC4H2SNHC2HCH2CHCFeH3SH5SFeHCNSH3C3HCHSH3CH2C3H2CFeHC3H4CFeHCHSHSNC3HCHCH2CHCH4FeCH2CFeS2FeS2FeSFeS3FeS2FeS2FeSFeS3HFeSC6H4C7H2C6H5CH2CHC3H3C2HC5H3SC5H5C2H2C3H2NC9H14NC6H15C4HCH6SH3CHCHCNCH3CHCHC3H2CHCH6CH3CHSC6HC2NCH3C2H2NCHSHCHC2H5SC5H3C2H2NCHCHCH3CH2C2HC3H3CSCH8FeS2FeS2FeSFeS3FeS2FeS2FeSFeS3CHSH2CHSHNC6H4C6H6C6H3C6H4C6H4C6SHNC9H5CH2CH3NHFeHCH4CNH2CHFeCHNC9H14CHSHCH2CHCH3C2H4CH4C2HNHCH2CHC2H2CHCH2C3H2CHC2HCSHCHC5H3C2NCH4C2HC2SHCHCH2CHCH3CHCH2CSCHC2H4CHCH3SCHSFeSFeSCFeS2FeSFeS3FeS2FeS2FeSFeCS2HCFeCHC4HC2H2C7H2CHC6H6CNCH2C6H7C2NC6SHCH16CSH4C2SH2C2HCHSC2H2NCH2CH2SHNCH3CH8C2HCH4C3H3CH2FeCHC4HCH3C2HCH3CH5CNS2C4H4C3HCHFeSHNSHCH2FeS2FeS2FeSFeHS2FeSHFeS2FeSFeS3C7H4C5H7CHC6H4CH3SHCNSCHCFeH2CH5C2H4C2FeCH3CH2SC4HC3HSNC2H4C2H2SCNC3H2CH2CH2CH2CFeH2C2HCH3CHC2H8NH2CH2C3H2C2H3CSHCHCH2CH2CH2FeSHFeS2FeSFeS3FeS2FeS2FeCFeS3H4SHFeSHSC2NC4H6CH2C6H4CHC4HCH2C6HCH2SC3HC2H4CHC2H2CH2CH6CH2SC2HCHC2HSH4CH4C6HC2H2CH2SH2NH2CH2SH2CHCHCHC2H2NSHCHC3HCH2NFeC4NCH2C2H2CH2CFeCHSHCH3C3HFeS2FeSCFeSFeS3FeS2FeS2FeSFeCS2HC2HFeSCSH10CHC2FeHC3HC3SC4H2C6H4C6H5CH6CH3C3HC2H3CH3C5HCHC2HCN2CSHC2SH4CH4CHCH3C2H6C2H4CHC2H4CH2FeCNCH2S2C2H4C2HNCHC2H2S2CFeCH2CHNH4C
_chemical_formula_sum              "S288 H1296 Fe144 C1080 N72"
_cell_length_a       56.786
_cell_length_b       56.6064
_cell_length_c       67.6689
_cell_angle_alpha    91.1271
_cell_angle_beta     90.9158
_cell_angle_gamma    117.64

_space_group_name_H-M_alt    "P 1"
_space_group_IT_number       1

loop_
  _space_group_symop_operation_xyz
  'x, y, z'

loop_
  _atom_site_type_symbol
  _atom_site_label
  _atom_site_symmetry_multiplicity
  _atom_site_fract_x
  _atom_site_fract_y
  _atom_site_fract_z
  _atom_site_occupancy
  S   S1        1.0  0.22928  0.23433  0.01798  1.0000
  H   H1        1.0  0.10427  0.34554  0.08951  1.0000
  Fe  Fe1       1.0  0.26204  0.27383  0.00887  1.0000
  S   S2        1.0  0.28387  0.31528  0.02482  1.0000
  Fe  Fe2       1.0  0.10323  0.45629  0.14310  1.0000
  S   S3        1.0  0.06418  0.41930  0.14712  1.0000
  C   C1        1.0  0.36392  0.34746  0.06460  1.0000
  Fe  Fe3       1.0  0.13568  0.43087  0.16026  1.0000
  S   S4        1.0  0.09941  0.39241  0.16584  1.0000
  S   S5        1.0  0.17589  0.43792  0.17250  1.0000
  Fe  Fe4       1.0  0.08459  0.39599  0.13533  1.0000
  S   S6        1.0  0.06482  0.35533  0.11821  1.0000
  Fe  Fe5       1.0  0.08160  0.41788  0.17712  1.0000
  S   S7        1.0  0.05668  0.40899  0.20475  1.0000
  S   S8        1.0  0.12264  0.43309  0.12912  1.0000
  S   S9        1.0  0.11884  0.45623  0.17379  1.0000
  Fe  Fe6       1.0  0.32401  0.40532  0.12804  1.0000
  S   S10       1.0  0.33174  0.44083  0.11006  1.0000
  S   S11       1.0  0.31442  0.36447  0.11368  1.0000
  Fe  Fe7       1.0  0.33620  0.43871  0.16783  1.0000
  S   S12       1.0  0.34372  0.47592  0.15156  1.0000
  S   S13       1.0  0.34957  0.44976  0.20042  1.0000
  Fe  Fe8       1.0  0.30767  0.44884  0.13291  1.0000
  S   S14       1.0  0.27603  0.45903  0.12116  1.0000
  Fe  Fe9       1.0  0.36708  0.46445  0.13056  1.0000
  H   H2        1.0  0.20555  0.09598  0.04176  1.0000
  S   S15       1.0  0.29828  0.41226  0.15035  1.0000
  S   S16       1.0  0.36106  0.42828  0.14729  1.0000
  S   S17       1.0  0.00353  0.22616  0.01940  1.0000
  Fe  Fe10      1.0  0.99872  0.26303  0.01447  1.0000
  S   S18       1.0  0.01551  0.30278  0.03247  1.0000
  C   C2        1.0  0.33723  0.43530  0.22357  1.0000
  C   C3        1.0  0.31669  0.40927  0.22516  1.0000
  C   C4        1.0  0.17767  0.07500  0.01801  1.0000
  H   H3        1.0  0.30731  0.39737  0.21190  1.0000
  H   H4        1.0  0.35628  0.36724  0.08866  1.0000
  C   C5        1.0  0.07106  0.41023  0.22851  1.0000
  C   C6        1.0  0.09710  0.41401  0.23073  1.0000
  H   H5        1.0  0.41417  0.48333  0.21542  1.0000
  H   H6        1.0  0.10875  0.41591  0.21779  1.0000
  H   H7        1.0  0.20341  0.17421  0.02794  1.0000
  C   C7        1.0  0.05048  0.34114  0.09438  1.0000
  C   C8        1.0  0.04002  0.31337  0.09103  1.0000
  C   C9        1.0  0.02881  0.30113  0.07240  1.0000
  C   C10       1.0  0.02804  0.31658  0.05673  1.0000
  C   C11       1.0  0.03845  0.34433  0.06010  1.0000
  C   C12       1.0  0.04957  0.35653  0.07874  1.0000
  H   H8        1.0  0.04074  0.30121  0.10293  1.0000
  C   C13       1.0  0.15662  0.09879  0.00248  1.0000
  H   H9        1.0  0.03802  0.35656  0.04815  1.0000
  H   H10       1.0  0.05752  0.37787  0.08096  1.0000
  C   C14       1.0  0.20272  0.44174  0.15767  1.0000
  C   C15       1.0  0.20143  0.44273  0.13706  1.0000
  C   C16       1.0  0.22383  0.44736  0.12593  1.0000
  C   C17       1.0  0.24747  0.45062  0.13529  1.0000
  C   C18       1.0  0.24848  0.44888  0.15583  1.0000
  C   C19       1.0  0.22624  0.44467  0.16697  1.0000
  H   H11       1.0  0.18332  0.44013  0.12970  1.0000
  H   H12       1.0  0.22293  0.44860  0.11004  1.0000
  H   H13       1.0  0.26661  0.45143  0.16317  1.0000
  H   H14       1.0  0.22733  0.44382  0.18289  1.0000
  C   C20       1.0  0.42118  0.47637  0.20233  1.0000
  H   H15       1.0  0.01784  0.31799  0.13712  1.0000
  C   C21       1.0  0.38053  0.34925  0.04918  1.0000
  C   C22       1.0  0.28976  0.32779  0.04995  1.0000
  C   C23       1.0  0.29785  0.35510  0.05374  1.0000
  C   C24       1.0  0.30412  0.36637  0.07317  1.0000
  C   C25       1.0  0.30312  0.35062  0.08917  1.0000
  C   C26       1.0  0.29500  0.32330  0.08538  1.0000
  C   C27       1.0  0.28808  0.31188  0.06600  1.0000
  H   H16       1.0  0.29920  0.36768  0.04154  1.0000
  H   H17       1.0  0.31006  0.38732  0.07569  1.0000
  H   H18       1.0  0.29423  0.31085  0.09754  1.0000
  H   H19       1.0  0.28206  0.29090  0.06345  1.0000
  Fe  Fe11      1.0  0.24777  0.21444  0.99878  1.0000
  H   H20       1.0  0.07361  0.47006  0.21691  1.0000
  H   H21       1.0  0.25612  0.09391  0.01870  1.0000
  H   H22       1.0  0.26703  0.14080  0.02763  1.0000
  H   H23       1.0  0.37857  0.39638  0.11316  1.0000
  H   H24       1.0  0.05951  0.26668  0.01925  1.0000
  H   H25       1.0  0.20022  0.13588  0.03996  1.0000
  C   C28       1.0  0.99493  0.33242  0.18939  1.0000
  C   C29       1.0  0.25524  0.13139  0.01435  1.0000
  C   C30       1.0  0.17037  0.12125  0.01554  1.0000
  H   H26       1.0  0.01466  0.38253  0.17601  1.0000
  H   H27       1.0  0.00717  0.37295  0.15030  1.0000
  C   C31       1.0  0.18149  0.16658  0.02878  1.0000
  H   H28       1.0  0.37574  0.33195  0.03960  1.0000
  H   H29       1.0  0.18110  0.05769  0.01854  1.0000
  C   C32       1.0  0.03198  0.34788  0.16810  1.0000
  H   H30       1.0  0.14771  0.34731  0.09753  1.0000
  H   H31       1.0  0.17578  0.47577  0.14565  1.0000
  H   H32       1.0  0.04066  0.35728  0.15395  1.0000
  C   C33       1.0  0.98634  0.32049  0.15419  1.0000
  H   H33       1.0  0.16739  0.32776  0.07410  1.0000
  S   S19       1.0  0.41004  0.48898  0.12100  1.0000
  H   H34       1.0  0.07839  0.31172  0.00336  1.0000
  H   H35       1.0  0.39124  0.48371  0.17571  1.0000
  H   H36       1.0  0.04657  0.47824  0.24181  1.0000
  C   C34       1.0  0.24599  0.14588  0.00261  1.0000
  H   H37       1.0  0.10637  0.33950  0.01547  1.0000
  H   H38       1.0  0.99490  0.31307  0.19214  1.0000
  C   C35       1.0  0.36985  0.36965  0.07699  1.0000
  C   C36       1.0  0.00139  0.36600  0.16561  1.0000
  S   S20       1.0  0.26718  0.01846  0.99925  1.0000
  S   S21       1.0  0.16141  0.21901  0.99649  1.0000
  S   S22       1.0  0.25338  0.17916  0.01050  1.0000
  H   H39       1.0  0.03496  0.32993  0.16982  1.0000
  H   H40       1.0  0.00852  0.34729  0.20077  1.0000
  C   C37       1.0  0.24910  0.10470  0.00930  1.0000
  H   H41       1.0  0.07486  0.26318  0.04166  1.0000
  H   H42       1.0  0.42681  0.41372  0.05500  1.0000
  H   H43       1.0  0.40364  0.45773  0.19675  1.0000
  H   H44       1.0  0.33272  0.99048  0.07801  1.0000
  H   H45       1.0  0.30156  0.99239  0.99559  1.0000
  H   H46       1.0  0.12991  0.31051  0.01099  1.0000
  C   C38       1.0  0.08087  0.47520  0.23212  1.0000
  H   H47       1.0  0.11435  0.27718  0.02075  1.0000
  H   H48       1.0  0.17519  0.15926  0.04390  1.0000
  C   C39       1.0  0.18808  0.11953  0.02988  1.0000
  H   H49       1.0  0.08065  0.32495  0.05847  1.0000
  N   N1        1.0  0.39734  0.41803  0.08695  1.0000
  C   C40       1.0  0.37536  0.42483  0.08369  1.0000
  C   C41       1.0  0.39815  0.41188  0.10811  1.0000
  C   C42       1.0  0.42267  0.44215  0.08297  1.0000
  C   C43       1.0  0.39250  0.39453  0.07421  1.0000
  C   C44       1.0  0.40915  0.39571  0.05834  1.0000
  H   H50       1.0  0.05689  0.28226  0.04178  1.0000
  N   N2        1.0  0.00347  0.34124  0.16903  1.0000
  H   H51       1.0  0.43646  0.47045  0.20715  1.0000
  H   H52       1.0  0.03608  0.40488  0.24398  1.0000
  H   H53       1.0  0.37266  0.42775  0.06776  1.0000
  H   H54       1.0  0.35604  0.40891  0.08874  1.0000
  H   H55       1.0  0.37908  0.44350  0.09197  1.0000
  H   H56       1.0  0.41607  0.37454  0.03410  1.0000
  H   H57       1.0  0.40333  0.42975  0.11794  1.0000
  H   H58       1.0  0.41302  0.40464  0.11096  1.0000
  H   H59       1.0  0.42264  0.44920  0.06773  1.0000
  H   H60       1.0  0.42591  0.45926  0.09308  1.0000
  H   H61       1.0  0.44010  0.43840  0.08520  1.0000
  H   H62       1.0  0.10999  0.20050  0.01397  1.0000
  H   H63       1.0  0.17798  0.18426  0.02691  1.0000
  C   C45       1.0  0.40317  0.37328  0.04611  1.0000
  H   H64       1.0  0.07066  0.20765  0.00691  1.0000
  H   H65       1.0  0.02099  0.27982  0.07016  1.0000
  N   N3        1.0  0.09548  0.30156  0.02852  1.0000
  C   C46       1.0  0.07062  0.27740  0.03304  1.0000
  C   C47       1.0  0.08840  0.32026  0.01797  1.0000
  C   C48       1.0  0.11061  0.29334  0.01468  1.0000
  C   C49       1.0  0.11032  0.31421  0.04724  1.0000
  C   C50       1.0  0.13515  0.31519  0.05247  1.0000
  C   C51       1.0  0.09960  0.32538  0.06120  1.0000
  C   C52       1.0  0.14844  0.32713  0.07039  1.0000
  C   C53       1.0  0.11298  0.33718  0.07907  1.0000
  C   C54       1.0  0.13740  0.33813  0.08363  1.0000
  C   C55       1.0  0.11079  0.21361  0.00229  1.0000
  H   H66       1.0  0.34612  0.32884  0.06690  1.0000
  H   H67       1.0  0.07405  0.32478  0.02615  1.0000
  H   H68       1.0  0.12612  0.12508  0.00204  1.0000
  C   C56       1.0  0.19143  0.09662  0.03108  1.0000
  H   H69       1.0  0.98856  0.28559  0.11270  1.0000
  H   H70       1.0  0.14472  0.30680  0.04305  1.0000
  C   C57       1.0  0.30867  0.39844  0.24398  1.0000
  H   H71       1.0  0.09942  0.28505  0.00041  1.0000
  H   H72       1.0  0.04418  0.36250  0.18003  1.0000
  H   H73       1.0  0.42118  0.46603  0.16429  1.0000
  C   C58       1.0  0.13829  0.13854  0.01447  1.0000
  N   N4        1.0  0.16684  0.14544  0.01339  1.0000
  H   H74       1.0  0.12983  0.12859  0.02854  1.0000
  H   H75       1.0  0.11653  0.47226  0.22675  1.0000
  C   C59       1.0  0.99677  0.31100  0.13874  1.0000
  H   H76       1.0  0.30228  0.99460  0.05303  1.0000
  C   C60       1.0  0.16031  0.07609  0.00373  1.0000
  C   C61       1.0  0.43830  0.48509  0.16969  1.0000
  H   H77       1.0  0.45521  0.48104  0.17344  1.0000
  C   C62       1.0  0.34924  0.45044  0.24100  1.0000
  H   H78       1.0  0.31834  0.99679  0.01917  1.0000
  C   C63       1.0  0.08833  0.21766  0.99832  1.0000
  C   C64       1.0  0.10513  0.47646  0.23772  1.0000
  H   H79       1.0  0.13531  0.15667  0.01365  1.0000
  H   H80       1.0  0.36511  0.47058  0.23997  1.0000
  H   H81       1.0  0.35439  0.99661  0.99966  1.0000
  H   H82       1.0  0.17750  0.48252  0.10914  1.0000
  H   H83       1.0  0.12836  0.41825  0.25121  1.0000
  H   H84       1.0  0.99471  0.30428  0.38927  1.0000
  S   S23       1.0  0.27262  0.99055  0.44359  1.0000
  S   S24       1.0  0.01522  0.30336  0.46090  1.0000
  C   C65       1.0  0.06509  0.27948  0.45554  1.0000
  H   H85       1.0  0.07442  0.24417  0.41807  1.0000
  C   C66       1.0  0.06563  0.47965  0.24620  1.0000
  C   C67       1.0  0.16659  0.47863  0.38958  1.0000
  C   C68       1.0  0.15694  0.18021  0.49008  1.0000
  Fe  Fe12      1.0  0.25480  0.27455  0.47726  1.0000
  S   S25       1.0  0.27364  0.31453  0.46108  1.0000
  C   C69       1.0  0.24050  0.47747  0.39663  1.0000
  C   C70       1.0  0.20924  0.40411  0.30892  1.0000
  S   S26       1.0  0.21393  0.23917  0.47319  1.0000
  Fe  Fe13      1.0  0.09784  0.41368  0.32265  1.0000
  S   S27       1.0  0.13231  0.44678  0.33924  1.0000
  S   S28       1.0  0.10911  0.41535  0.29023  1.0000
  Fe  Fe14      1.0  0.06936  0.39077  0.36181  1.0000
  S   S29       1.0  0.10186  0.42326  0.38032  1.0000
  S   S30       1.0  0.03442  0.35409  0.37460  1.0000
  Fe  Fe15      1.0  0.10169  0.45150  0.35710  1.0000
  H   H86       1.0  0.29387  0.99372  0.40494  1.0000
  Fe  Fe16      1.0  0.12956  0.41614  0.36063  1.0000
  S   S31       1.0  0.16273  0.40920  0.37372  1.0000
  S   S32       1.0  0.06689  0.41956  0.33962  1.0000
  S   S33       1.0  0.09735  0.38250  0.34306  1.0000
  Fe  Fe17      1.0  0.36441  0.45946  0.34527  1.0000
  S   S34       1.0  0.35140  0.41618  0.33677  1.0000
  H   H87       1.0  0.16005  0.20100  0.49212  1.0000
  Fe  Fe18      1.0  0.30731  0.44987  0.34515  1.0000
  S   S35       1.0  0.29055  0.40660  0.33671  1.0000
  C   C71       1.0  0.28630  0.28568  0.26285  1.0000
  Fe  Fe19      1.0  0.31942  0.40542  0.35942  1.0000
  S   S36       1.0  0.30522  0.36514  0.37496  1.0000
  Fe  Fe20      1.0  0.32335  0.42011  0.31489  1.0000
  S   S37       1.0  0.31056  0.39873  0.28471  1.0000
  S   S38       1.0  0.33434  0.44856  0.36954  1.0000
  S   S39       1.0  0.33824  0.46363  0.32175  1.0000
  C   C72       1.0  0.19480  0.42468  0.36391  1.0000
  C   C73       1.0  0.20252  0.44621  0.35138  1.0000
  C   C74       1.0  0.22899  0.45977  0.34533  1.0000
  C   C75       1.0  0.24761  0.45135  0.35130  1.0000
  C   C76       1.0  0.23955  0.42899  0.36302  1.0000
  C   C77       1.0  0.21328  0.41591  0.36951  1.0000
  H   H88       1.0  0.18826  0.45268  0.34667  1.0000
  H   H89       1.0  0.23642  0.32600  0.48814  1.0000
  H   H90       1.0  0.25381  0.42243  0.36772  1.0000
  H   H91       1.0  0.20736  0.39918  0.37913  1.0000
  C   C78       1.0  0.28176  0.32794  0.43686  1.0000
  C   C79       1.0  0.29189  0.35568  0.43471  1.0000
  C   C80       1.0  0.29885  0.36741  0.41599  1.0000
  C   C81       1.0  0.29600  0.35158  0.39905  1.0000
  C   C82       1.0  0.28575  0.32382  0.40122  1.0000
  C   C83       1.0  0.27858  0.31206  0.41991  1.0000
  H   H92       1.0  0.29454  0.36830  0.44764  1.0000
  H   H93       1.0  0.30673  0.38874  0.41471  1.0000
  H   H94       1.0  0.28340  0.31123  0.38834  1.0000
  H   H95       1.0  0.27088  0.29075  0.42118  1.0000
  C   C84       1.0  0.12754  0.23059  0.48680  1.0000
  C   C85       1.0  0.03560  0.25706  0.42782  1.0000
  H   H96       1.0  0.02381  0.23851  0.43596  1.0000
  H   H97       1.0  0.29848  0.32456  0.25112  1.0000
  N   N5        1.0  0.06395  0.27061  0.43462  1.0000
  C   C86       1.0  0.07219  0.15263  0.48615  1.0000
  S   S40       1.0  0.40951  0.48675  0.34785  1.0000
  C   C87       1.0  0.02968  0.34023  0.39869  1.0000
  C   C88       1.0  0.00808  0.31487  0.40161  1.0000
  C   C89       1.0  0.00342  0.30313  0.42038  1.0000
  C   C90       1.0  0.02018  0.31673  0.43664  1.0000
  C   C91       1.0  0.04178  0.34207  0.43370  1.0000
  C   C92       1.0  0.04662  0.35367  0.41489  1.0000
  C   C93       1.0  0.10820  0.41538  0.24975  1.0000
  H   H98       1.0  0.05485  0.35291  0.44611  1.0000
  H   H99       1.0  0.06326  0.37317  0.41300  1.0000
  C   C94       1.0  0.21508  0.09714  0.47906  1.0000
  H   H100      1.0  0.17807  0.38883  0.33020  1.0000
  Fe  Fe21      1.0  0.23532  0.03140  0.49394  1.0000
  C   C95       1.0  0.07459  0.48533  0.26594  1.0000
  N   N6        1.0  0.24393  0.42140  0.28287  1.0000
  C   C96       1.0  0.15882  0.30883  0.48910  1.0000
  C   C97       1.0  0.10876  0.30769  0.42621  1.0000
  C   C98       1.0  0.32085  0.41355  0.26138  1.0000
  C   C99       1.0  0.34101  0.43973  0.25980  1.0000
  C   C100      1.0  0.13078  0.32946  0.48196  1.0000
  H   H101      1.0  0.35059  0.45158  0.27303  1.0000
  H   H102      1.0  0.18421  0.35481  0.45292  1.0000
  C   C101      1.0  0.09348  0.41297  0.26679  1.0000
  C   C102      1.0  0.06739  0.40918  0.26461  1.0000
  H   H103      1.0  0.14807  0.40111  0.31120  1.0000
  H   H104      1.0  0.05577  0.40720  0.27756  1.0000
  C   C103      1.0  0.07006  0.30456  0.40836  1.0000
  C   C104      1.0  0.08647  0.32696  0.39771  1.0000
  H   H105      1.0  0.03341  0.25117  0.41185  1.0000
  H   H106      1.0  0.04897  0.29623  0.40519  1.0000
  H   H107      1.0  0.07776  0.33480  0.38688  1.0000
  H   H108      1.0  0.09412  0.21503  0.46598  1.0000
  H   H109      1.0  0.08487  0.28573  0.46272  1.0000
  H   H110      1.0  0.16458  0.46135  0.38024  1.0000
  H   H111      1.0  0.23721  0.33618  0.45455  1.0000
  C   C105      1.0  0.29463  0.31299  0.26438  1.0000
  C   C106      1.0  0.17733  0.32415  0.47480  1.0000
  H   H112      1.0  0.28309  0.35284  0.31010  1.0000
  H   H113      1.0  0.22173  0.39856  0.31787  1.0000
  C   C107      1.0  0.07368  0.25037  0.43366  1.0000
  C   C108      1.0  0.08078  0.29399  0.42281  1.0000
  H   H114      1.0  0.06058  0.29660  0.45675  1.0000
  N   N7        1.0  0.29686  0.32513  0.32009  1.0000
  C   C109      1.0  0.27861  0.33718  0.32119  1.0000
  C   C110      1.0  0.29152  0.30739  0.33716  1.0000
  C   C111      1.0  0.32464  0.34670  0.32249  1.0000
  C   C112      1.0  0.29319  0.31118  0.30064  1.0000
  Fe  Fe22      1.0  0.99492  0.26434  0.47818  1.0000
  C   C113      1.0  0.28468  0.28329  0.29857  1.0000
  H   H115      1.0  0.06627  0.48867  0.34223  1.0000
  H   H116      1.0  0.06828  0.47074  0.30496  1.0000
  C   C114      1.0  0.22485  0.14436  0.48235  1.0000
  H   H117      1.0  0.25755  0.32183  0.31865  1.0000
  H   H118      1.0  0.28014  0.34705  0.33591  1.0000
  H   H119      1.0  0.27053  0.29140  0.33690  1.0000
  H   H120      1.0  0.29469  0.31860  0.35152  1.0000
  H   H121      1.0  0.30515  0.29826  0.33763  1.0000
  H   H122      1.0  0.32936  0.36281  0.31172  1.0000
  H   H123      1.0  0.32852  0.35658  0.33746  1.0000
  H   H124      1.0  0.33914  0.33880  0.32052  1.0000
  H   H125      1.0  0.30458  0.34680  0.28332  1.0000
  H   H126      1.0  0.28047  0.27059  0.31111  1.0000
  H   H127      1.0  0.28552  0.44274  0.29175  1.0000
  H   H128      1.0  0.02583  0.26987  0.43050  1.0000
  H   H129      1.0  0.22694  0.38104  0.27122  1.0000
  C   C115      1.0  0.21921  0.33898  0.45653  1.0000
  H   H130      1.0  0.20465  0.43292  0.26593  1.0000
  C   C116      1.0  0.21786  0.41667  0.29056  1.0000
  C   C117      1.0  0.21725  0.32654  0.49035  1.0000
  C   C118      1.0  0.24437  0.39551  0.28035  1.0000
  C   C119      1.0  0.11387  0.33966  0.40119  1.0000
  H   H131      1.0  0.12640  0.35716  0.39294  1.0000
  H   H132      1.0  0.24054  0.45952  0.40187  1.0000
  S   S41       1.0  0.28110  0.47011  0.34492  1.0000
  H   H133      1.0  0.11815  0.30135  0.43744  1.0000
  S   S42       1.0  0.21704  0.17049  0.47536  1.0000
  H   H134      1.0  0.18077  0.28760  0.45118  1.0000
  C   C120      1.0  0.13588  0.31139  0.49253  1.0000
  H   H135      1.0  0.20912  0.33498  0.44170  1.0000
  S   S43       1.0  0.05058  0.21869  0.48442  1.0000
  C   C121      1.0  0.12501  0.33007  0.41543  1.0000
  H   H136      1.0  0.09369  0.25756  0.44071  1.0000
  H   H137      1.0  0.34402  0.33883  0.47561  1.0000
  H   H138      1.0  0.05957  0.14459  0.47298  1.0000
  C   C122      1.0  0.25000  0.43451  0.26346  1.0000
  H   H139      1.0  0.23511  0.47698  0.33618  1.0000
  C   C123      1.0  0.29805  0.32559  0.28295  1.0000
  H   H140      1.0  0.14632  0.34024  0.41817  1.0000
  Fe  Fe23      1.0  0.25112  0.99191  0.47202  1.0000
  H   H141      1.0  0.11309  0.33159  0.48484  1.0000
  S   S44       1.0  0.27268  0.02651  0.49404  1.0000
  H   H142      1.0  0.08486  0.45088  0.30054  1.0000
  H   H143      1.0  0.26982  0.43787  0.25822  1.0000
  C   C124      1.0  0.08797  0.47103  0.30554  1.0000
  H   H144      1.0  0.14434  0.35887  0.45958  1.0000
  H   H145      1.0  0.22656  0.36033  0.46095  1.0000
  H   H146      1.0  0.26561  0.45824  0.29975  1.0000
  C   C125      1.0  0.14846  0.34481  0.46776  1.0000
  H   H147      1.0  0.14843  0.17307  0.47493  1.0000
  C   C126      1.0  0.35646  0.34604  0.48951  1.0000
  H   H148      1.0  0.25062  0.45445  0.26437  1.0000
  H   H149      1.0  0.27488  0.24960  0.27862  1.0000
  H   H150      1.0  0.29305  0.37815  0.24501  1.0000
  N   N8        1.0  0.20146  0.32095  0.47156  1.0000
  H   H151      1.0  0.26258  0.39781  0.27284  1.0000
  H   H152      1.0  0.21136  0.29031  0.46150  1.0000
  H   H153      1.0  0.05037  0.26332  0.46459  1.0000
  C   C127      1.0  0.17139  0.34224  0.46409  1.0000
  Fe  Fe24      1.0  0.01566  0.22665  0.49393  1.0000
  H   H154      1.0  0.12844  0.12746  0.48695  1.0000
  C   C128      1.0  0.10134  0.22426  0.48046  1.0000
  C   C129      1.0  0.18429  0.39846  0.31615  1.0000
  S   S45       1.0  0.27331  0.24889  0.48756  1.0000
  C   C130      1.0  0.23601  0.10149  0.49232  1.0000
  H   H155      1.0  0.19354  0.11464  0.46371  1.0000
  H   H156      1.0  0.26362  0.42968  0.31174  1.0000
  C   C131      1.0  0.19362  0.29313  0.46481  1.0000
  H   H157      1.0  0.23518  0.42199  0.25175  1.0000
  C   C132      1.0  0.08416  0.22912  0.49282  1.0000
  H   H158      1.0  0.19904  0.46156  0.39969  1.0000
  C   C133      1.0  0.26556  0.43873  0.29707  1.0000
  C   C134      1.0  0.20006  0.42347  0.28004  1.0000
  H   H159      1.0  0.06053  0.23215  0.44181  1.0000
  H   H160      1.0  0.28367  0.27597  0.24842  1.0000
  C   C135      1.0  0.09909  0.48646  0.27222  1.0000
  Fe  Fe25      1.0  0.23183  0.21410  0.48645  1.0000
  H   H161      1.0  0.14023  0.22660  0.47704  1.0000
  C   C136      1.0  0.28135  0.27087  0.27990  1.0000
  C   C137      1.0  0.16738  0.40543  0.30552  1.0000
  C   C138      1.0  0.20965  0.11839  0.47409  1.0000
  C   C139      1.0  0.17525  0.41792  0.28754  1.0000
  H   H162      1.0  0.16183  0.42308  0.27930  1.0000
  S   S46       1.0  0.98852  0.22363  0.46802  1.0000
  H   H163      1.0  0.10221  0.14384  0.47521  1.0000
  H   H164      1.0  0.18250  0.27840  0.47619  1.0000
  H   H165      1.0  0.24422  0.38627  0.29473  1.0000
  C   C140      1.0  0.21662  0.47896  0.39523  1.0000
  H   H166      1.0  0.20307  0.07739  0.47259  1.0000
  C   C141      1.0  0.09662  0.15226  0.48762  1.0000
  H   H167      1.0  0.16677  0.47372  0.40540  1.0000
  H   H168      1.0  0.09442  0.47394  0.32143  1.0000
  H   H169      1.0  0.14804  0.48040  0.38708  1.0000
  H   H170      1.0  0.37689  0.34940  0.48614  1.0000
  H   H171      1.0  0.98655  0.28379  0.42233  1.0000
  C   C142      1.0  0.11414  0.48177  0.25746  1.0000
  H   H172      1.0  0.13260  0.48137  0.26080  1.0000
  S   S47       1.0  0.21467  0.99850  0.47050  1.0000
  H   H173      1.0  0.13320  0.47313  0.29377  1.0000
  H   H174      1.0  0.17684  0.18092  0.49047  1.0000
  H   H175      1.0  0.32838  0.29393  0.48411  1.0000
  C   C143      1.0  0.05623  0.40775  0.24554  1.0000
  H   H176      1.0  0.36044  0.30096  0.49396  1.0000
  H   H177      1.0  0.39569  0.99122  0.43237  1.0000
  H   H178      1.0  0.06198  0.48843  0.27636  1.0000
  H   H179      1.0  0.35761  0.36573  0.49332  1.0000
  C   C144      1.0  0.33322  0.03787  0.74444  1.0000
  S   S48       1.0  0.21767  0.00234  0.51846  1.0000
  H   H180      1.0  0.35421  0.18886  0.55292  1.0000
  C   C145      1.0  0.11993  0.24688  0.51801  1.0000
  H   H181      1.0  0.37482  0.15992  0.55632  1.0000
  Fe  Fe26      1.0  0.42981  0.34597  0.67296  1.0000
  S   S49       1.0  0.45841  0.33121  0.66330  1.0000
  S   S50       1.0  0.44153  0.35947  0.70537  1.0000
  Fe  Fe27      1.0  0.40640  0.33834  0.62982  1.0000
  S   S51       1.0  0.43472  0.32412  0.61819  1.0000
  S   S52       1.0  0.37561  0.34208  0.60926  1.0000
  Fe  Fe28      1.0  0.42462  0.29961  0.64559  1.0000
  S   S53       1.0  0.40827  0.25513  0.64970  1.0000
  Fe  Fe29      1.0  0.46617  0.35785  0.63733  1.0000
  H   H182      1.0  0.39783  0.31919  0.55699  1.0000
  S   S54       1.0  0.39515  0.31262  0.65659  1.0000
  S   S55       1.0  0.43863  0.37370  0.64736  1.0000
  Fe  Fe30      1.0  0.40175  0.08640  0.62620  1.0000
  S   S56       1.0  0.44569  0.11129  0.62110  1.0000
  S   S57       1.0  0.37735  0.07818  0.59667  1.0000
  Fe  Fe31      1.0  0.41232  0.09443  0.67209  1.0000
  S   S58       1.0  0.45632  0.12027  0.66928  1.0000
  S   S59       1.0  0.39206  0.08939  0.70194  1.0000
  Fe  Fe32      1.0  0.44488  0.13942  0.64464  1.0000
  Fe  Fe33      1.0  0.98509  0.24684  0.52170  1.0000
  Fe  Fe34      1.0  0.45350  0.09005  0.64597  1.0000
  H   H183      1.0  0.41376  0.12836  0.57397  1.0000
  S   S60       1.0  0.40105  0.11591  0.64885  1.0000
  S   S61       1.0  0.40950  0.06270  0.64983  1.0000
  S   S62       1.0  0.22303  0.22095  0.51768  1.0000
  C   C146      1.0  0.29914  0.11770  0.58060  1.0000
  Fe  Fe35      1.0  0.26391  0.25662  0.51860  1.0000
  S   S63       1.0  0.29577  0.26101  0.54209  1.0000
  C   C147      1.0  0.38525  0.37128  0.54943  1.0000
  C   C148      1.0  0.35273  0.31868  0.59127  1.0000
  C   C149      1.0  0.33501  0.32530  0.58081  1.0000
  C   C150      1.0  0.31728  0.30794  0.56593  1.0000
  C   C151      1.0  0.31705  0.28364  0.56117  1.0000
  C   C152      1.0  0.33468  0.27697  0.57169  1.0000
  C   C153      1.0  0.35231  0.29426  0.58664  1.0000
  H   H184      1.0  0.33507  0.34407  0.58424  1.0000
  H   H185      1.0  0.30375  0.31338  0.55827  1.0000
  H   H186      1.0  0.33472  0.25826  0.56825  1.0000
  H   H187      1.0  0.36575  0.28882  0.59447  1.0000
  C   C154      1.0  0.42606  0.23667  0.64793  1.0000
  C   C155      1.0  0.41400  0.21033  0.65439  1.0000
  C   C156      1.0  0.42664  0.19423  0.65223  1.0000
  C   C157      1.0  0.45127  0.20419  0.64324  1.0000
  H   H188      1.0  0.40083  0.27763  0.68619  1.0000
  C   C158      1.0  0.45108  0.24699  0.63949  1.0000
  H   H189      1.0  0.39463  0.20222  0.66092  1.0000
  H   H190      1.0  0.41711  0.17396  0.65723  1.0000
  H   H191      1.0  0.35209  0.03282  0.71853  1.0000
  H   H192      1.0  0.41099  0.24250  0.69179  1.0000
  S   S64       1.0  0.16976  0.24977  0.51499  1.0000
  S   S65       1.0  0.02218  0.26732  0.50389  1.0000
  H   H193      1.0  0.20669  0.31157  0.50175  1.0000
  H   H194      1.0  0.45471  0.28380  0.71998  1.0000
  C   C159      1.0  0.08052  0.17490  0.51813  1.0000
  C   C160      1.0  0.27237  0.11797  0.55247  1.0000
  C   C161      1.0  0.34122  0.30041  0.49780  1.0000
  C   C162      1.0  0.25140  0.12756  0.50036  1.0000
  C   C163      1.0  0.30178  0.01738  0.56130  1.0000
  C   C164      1.0  0.32171  0.03957  0.55232  1.0000
  C   C165      1.0  0.34462  0.05769  0.56336  1.0000
  C   C166      1.0  0.34831  0.05379  0.58347  1.0000
  C   C167      1.0  0.32857  0.03136  0.59237  1.0000
  C   C168      1.0  0.30552  0.01337  0.58138  1.0000
  H   H195      1.0  0.33099  0.02796  0.60778  1.0000
  H   H196      1.0  0.15549  0.13477  0.50354  1.0000
  H   H197      1.0  0.38188  0.12642  0.57047  1.0000
  C   C169      1.0  0.40455  0.08740  0.72587  1.0000
  C   C170      1.0  0.42111  0.07552  0.72869  1.0000
  C   C171      1.0  0.39660  0.17841  0.58420  1.0000
  H   H198      1.0  0.42799  0.06884  0.71599  1.0000
  N   N9        1.0  0.13976  0.16296  0.50557  1.0000
  C   C172      1.0  0.42560  0.35063  0.72840  1.0000
  C   C173      1.0  0.39878  0.34388  0.73056  1.0000
  S   S66       1.0  0.24358  0.07533  0.49982  1.0000
  H   H199      1.0  0.38664  0.34268  0.71771  1.0000
  H   H200      1.0  0.44589  0.29043  0.69604  1.0000
  H   H201      1.0  0.27845  0.05045  0.53835  1.0000
  H   H202      1.0  0.40786  0.36314  0.57164  1.0000
  C   C174      1.0  0.37372  0.32139  0.53282  1.0000
  C   C175      1.0  0.10505  0.17475  0.51975  1.0000
  H   H203      1.0  0.39992  0.29887  0.70558  1.0000
  H   H204      1.0  0.38232  0.10438  0.74064  1.0000
  H   H205      1.0  0.37456  0.26428  0.70325  1.0000
  C   C176      1.0  0.40351  0.14074  0.57116  1.0000
  C   C177      1.0  0.44085  0.28933  0.71197  1.0000
  H   H206      1.0  0.07450  0.18442  0.52965  1.0000
  C   C178      1.0  0.37176  0.21161  0.57978  1.0000
  H   H207      1.0  0.26957  0.03914  0.57386  1.0000
  C   C179      1.0  0.28094  0.10327  0.56479  1.0000
  N   N10       1.0  0.41257  0.27014  0.71493  1.0000
  C   C180      1.0  0.39594  0.35611  0.55804  1.0000
  H   H208      1.0  0.44526  0.30978  0.71726  1.0000
  H   H209      1.0  0.12208  0.29940  0.50359  1.0000
  H   H210      1.0  0.42138  0.23671  0.71531  1.0000
  H   H211      1.0  0.44603  0.19332  0.60027  1.0000
  C   C181      1.0  0.39616  0.27808  0.70206  1.0000
  C   C182      1.0  0.36892  0.36173  0.53240  1.0000
  C   C183      1.0  0.09384  0.24085  0.51157  1.0000
  C   C184      1.0  0.27819  0.06103  0.57687  1.0000
  H   H212      1.0  0.37679  0.28427  0.73410  1.0000
  H   H213      1.0  0.25936  0.10857  0.53973  1.0000
  H   H214      1.0  0.44625  0.18966  0.57391  1.0000
  H   H215      1.0  0.27346  0.15576  0.54661  1.0000
  H   H216      1.0  0.23654  0.06533  0.54246  1.0000
  H   H217      1.0  0.40988  0.14965  0.55646  1.0000
  C   C185      1.0  0.36268  0.33649  0.52351  1.0000
  Fe  Fe36      1.0  0.20718  0.24744  0.50458  1.0000
  H   H218      1.0  0.27000  0.06377  0.59106  1.0000
  H   H219      1.0  0.15985  0.19442  0.52772  1.0000
  H   H220      1.0  0.33111  0.28448  0.50869  1.0000
  C   C186      1.0  0.28053  0.14508  0.55620  1.0000
  H   H221      1.0  0.04552  0.16482  0.50001  1.0000
  H   H222      1.0  0.30743  0.10848  0.59041  1.0000
  H   H223      1.0  0.28097  0.08106  0.52957  1.0000
  C   C187      1.0  0.46359  0.23072  0.63709  1.0000
  H   H224      1.0  0.46049  0.26724  0.63441  1.0000
  C   C188      1.0  0.13694  0.24159  0.50580  1.0000
  H   H225      1.0  0.30721  0.08162  0.54484  1.0000
  H   H226      1.0  0.23514  0.03814  0.55553  1.0000
  C   C189      1.0  0.31853  0.32404  0.51010  1.0000
  C   C190      1.0  0.40075  0.19901  0.59828  1.0000
  C   C191      1.0  0.37930  0.17508  0.56775  1.0000
  C   C192      1.0  0.39533  0.09541  0.74264  1.0000
  H   H227      1.0  0.32087  0.15546  0.59647  1.0000
  C   C193      1.0  0.40185  0.14765  0.60594  1.0000
  C   C194      1.0  0.43922  0.17847  0.58774  1.0000
  H   H228      1.0  0.40797  0.16163  0.61893  1.0000
  H   H229      1.0  0.14203  0.16118  0.53732  1.0000
  H   H230      1.0  0.36933  0.30155  0.52773  1.0000
  H   H231      1.0  0.12229  0.12149  0.51282  1.0000
  Fe  Fe37      1.0  0.25430  0.99665  0.51771  1.0000
  H   H232      1.0  0.38701  0.22797  0.71072  1.0000
  H   H233      1.0  0.31952  0.04278  0.53684  1.0000
  C   C195      1.0  0.36722  0.19160  0.56562  1.0000
  H   H234      1.0  0.37993  0.13485  0.60627  1.0000
  C   C196      1.0  0.13621  0.13548  0.50210  1.0000
  H   H235      1.0  0.29040  0.99630  0.58856  1.0000
  H   H236      1.0  0.41364  0.20276  0.61114  1.0000
  H   H237      1.0  0.35977  0.07473  0.55617  1.0000
  H   H238      1.0  0.41125  0.13451  0.60833  1.0000
  H   H239      1.0  0.44990  0.16639  0.58997  1.0000
  N   N11       1.0  0.40994  0.16155  0.58701  1.0000
  S   S67       1.0  0.27128  0.99497  0.54858  1.0000
  H   H240      1.0  0.30388  0.17945  0.57505  1.0000
  H   H241      1.0  0.08099  0.24465  0.52135  1.0000
  H   H242      1.0  0.30466  0.31637  0.49700  1.0000
  C   C197      1.0  0.40780  0.24319  0.70797  1.0000
  C   C198      1.0  0.30718  0.14485  0.58422  1.0000
  H   H243      1.0  0.30944  0.30991  0.52224  1.0000
  H   H244      1.0  0.36241  0.22440  0.57811  1.0000
  H   H245      1.0  0.12688  0.25553  0.53269  1.0000
  H   H246      1.0  0.23195  0.06437  0.56879  1.0000
  H   H247      1.0  0.39204  0.23082  0.60719  1.0000
  H   H248      1.0  0.38916  0.39024  0.55635  1.0000
  H   H249      1.0  0.29998  0.06822  0.57892  1.0000
  C   C199      1.0  0.40660  0.26978  0.73619  1.0000
  C   C200      1.0  0.39024  0.33129  0.54973  1.0000
  C   C201      1.0  0.29773  0.15845  0.57214  1.0000
  C   C202      1.0  0.11373  0.16309  0.50457  1.0000
  S   S68       1.0  0.46623  0.18356  0.63817  1.0000
  H   H250      1.0  0.32275  0.04665  0.73634  1.0000
  N   N12       1.0  0.27196  0.07455  0.56049  1.0000
  C   C203      1.0  0.24269  0.06013  0.55674  1.0000
  C   C204      1.0  0.28523  0.07180  0.54257  1.0000
  C   C205      1.0  0.38846  0.21525  0.59610  1.0000
  H   H251      1.0  0.11705  0.18452  0.53283  1.0000
  H   H252      1.0  0.25796  0.16852  0.50191  1.0000
  C   C206      1.0  0.38769  0.27739  0.74354  1.0000
  S   S69       1.0  0.24732  0.28371  0.50851  1.0000
  H   H253      1.0  0.36078  0.37407  0.52648  1.0000
  H   H254      1.0  0.37753  0.01443  0.73678  1.0000
  N   N13       1.0  0.34511  0.32675  0.50557  1.0000
  C   C207      1.0  0.15417  0.17293  0.52491  1.0000
  H   H255      1.0  0.31926  0.34328  0.51478  1.0000
  H   H256      1.0  0.26817  0.13162  0.51010  1.0000
  H   H257      1.0  0.48160  0.09863  0.73321  1.0000
  C   C208      1.0  0.06414  0.16387  0.50140  1.0000
  H   H258      1.0  0.46198  0.35800  0.74388  1.0000
  C   C209      1.0  0.34965  0.02995  0.73433  1.0000
  H   H259      1.0  0.17309  0.17150  0.52550  1.0000
  H   H260      1.0  0.47971  0.08621  0.69771  1.0000
  C   C210      1.0  0.36399  0.01958  0.74467  1.0000
  H   H261      1.0  0.16209  0.29486  0.49791  1.0000
  H   H262      1.0  0.48182  0.41366  0.68857  1.0000
  C   C211      1.0  0.24579  0.14873  0.49559  1.0000
  H   H263      1.0  0.22198  0.34656  0.49676  1.0000
  S   S70       1.0  0.48239  0.07218  0.64603  1.0000
  N   N14       1.0  0.29448  0.09094  0.95419  1.0000
  C   C212      1.0  0.27397  0.09807  0.94665  1.0000
  S   S71       1.0  0.29727  0.00214  0.95436  1.0000
  C   C213      1.0  0.13457  0.24297  0.97621  1.0000
  C   C214      1.0  0.28717  0.33535  0.96281  1.0000
  H   H264      1.0  0.22367  0.14396  0.97609  1.0000
  Fe  Fe38      1.0  0.46131  0.34771  0.84107  1.0000
  S   S72       1.0  0.42789  0.35847  0.84447  1.0000
  C   C215      1.0  0.29944  0.09808  0.97561  1.0000
  Fe  Fe39      1.0  0.42195  0.28801  0.83353  1.0000
  S   S73       1.0  0.38645  0.29523  0.83584  1.0000
  S   S74       1.0  0.40945  0.24489  0.82497  1.0000
  Fe  Fe40      1.0  0.40962  0.33113  0.81750  1.0000
  S   S75       1.0  0.38953  0.33796  0.79031  1.0000
  Fe  Fe41      1.0  0.40736  0.32098  0.86255  1.0000
  S   S76       1.0  0.38904  0.31421  0.89363  1.0000
  S   S77       1.0  0.44347  0.32198  0.81345  1.0000
  S   S78       1.0  0.44245  0.31229  0.86092  1.0000
  Fe  Fe42      1.0  0.43950  0.12945  0.85100  1.0000
  S   S79       1.0  0.40067  0.10259  0.83529  1.0000
  S   S80       1.0  0.45930  0.17370  0.85872  1.0000
  Fe  Fe43      1.0  0.45301  0.08435  0.85888  1.0000
  S   S81       1.0  0.41468  0.05342  0.84431  1.0000
  Fe  Fe44      1.0  0.42328  0.08355  0.82037  1.0000
  S   S82       1.0  0.42433  0.06931  0.78855  1.0000
  Fe  Fe45      1.0  0.39436  0.07420  0.86030  1.0000
  S   S83       1.0  0.35174  0.05398  0.87240  1.0000
  S   S84       1.0  0.46254  0.11282  0.83425  1.0000
  S   S85       1.0  0.43199  0.10266  0.87671  1.0000
  H   H265      1.0  0.27755  0.33215  0.97745  1.0000
  N   N15       1.0  0.34349  0.02360  0.79780  1.0000
  Fe  Fe46      1.0  0.25811  0.25375  0.96557  1.0000
  S   S86       1.0  0.27470  0.26591  0.93426  1.0000
  H   H266      1.0  0.32335  0.07154  0.93125  1.0000
  H   H267      1.0  0.31902  0.34432  0.89552  1.0000
  S   S87       1.0  0.22381  0.21312  0.97159  1.0000
  S   S88       1.0  0.23846  0.27494  0.98197  1.0000
  H   H268      1.0  0.38558  0.14655  0.91532  1.0000
  H   H269      1.0  0.34915  0.37162  0.98280  1.0000
  H   H270      1.0  0.47454  0.22943  0.86427  1.0000
  C   C216      1.0  0.31771  0.32023  0.97449  1.0000
  Fe  Fe47      1.0  0.22925  0.02020  0.99117  1.0000
  H   H271      1.0  0.30237  0.01573  0.79847  1.0000
  H   H272      1.0  0.37477  0.01020  0.77229  1.0000
  H   H273      1.0  0.28422  0.35128  0.95555  1.0000
  H   H274      1.0  0.36553  0.17022  0.93426  1.0000
  H   H275      1.0  0.05732  0.25012  0.91892  1.0000
  H   H276      1.0  0.31752  0.36327  0.99256  1.0000
  C   C217      1.0  0.35945  0.01192  0.80714  1.0000
  C   C218      1.0  0.41801  0.07856  0.76476  1.0000
  C   C219      1.0  0.40228  0.09136  0.76197  1.0000
  H   H277      1.0  0.35319  0.99125  0.80142  1.0000
  H   H278      1.0  0.39472  0.09735  0.77462  1.0000
  H   H279      1.0  0.27595  0.31627  0.95409  1.0000
  C   C220      1.0  0.40360  0.34214  0.76654  1.0000
  C   C221      1.0  0.36215  0.01725  0.76520  1.0000
  C   C222      1.0  0.38263  0.27684  0.76373  1.0000
  H   H280      1.0  0.36905  0.35963  0.95910  1.0000
  H   H281      1.0  0.35282  0.05068  0.82308  1.0000
  C   C223      1.0  0.35669  0.29881  0.90416  1.0000
  C   C224      1.0  0.35472  0.29427  0.92463  1.0000
  C   C225      1.0  0.32989  0.28330  0.93395  1.0000
  C   C226      1.0  0.30650  0.27732  0.92304  1.0000
  C   C227      1.0  0.30841  0.28132  0.90249  1.0000
  C   C228      1.0  0.33321  0.29170  0.89307  1.0000
  H   H282      1.0  0.37264  0.29949  0.93341  1.0000
  H   H283      1.0  0.32898  0.27977  0.94961  1.0000
  H   H284      1.0  0.29057  0.27669  0.89378  1.0000
  H   H285      1.0  0.33420  0.29501  0.87735  1.0000
  C   C229      1.0  0.42454  0.22601  0.83392  1.0000
  C   C230      1.0  0.41341  0.19893  0.82822  1.0000
  C   C231      1.0  0.42421  0.18283  0.83546  1.0000
  C   C232      1.0  0.44616  0.19372  0.84858  1.0000
  C   C233      1.0  0.45747  0.22089  0.85419  1.0000
  C   C234      1.0  0.44673  0.23705  0.84685  1.0000
  H   H286      1.0  0.39627  0.19031  0.81819  1.0000
  H   H287      1.0  0.41542  0.16198  0.83100  1.0000
  C   C235      1.0  0.00594  0.29564  0.87954  1.0000
  H   H288      1.0  0.45557  0.25798  0.85119  1.0000
  S   S89       1.0  0.22375  0.05774  0.98562  1.0000
  H   H289      1.0  0.47093  0.40041  0.77830  1.0000
  C   C236      1.0  0.41490  0.26142  0.77050  1.0000
  H   H290      1.0  0.36375  0.09723  0.91381  1.0000
  C   C237      1.0  0.23077  0.13325  0.98548  1.0000
  C   C238      1.0  0.31942  0.10578  0.94343  1.0000
  C   C239      1.0  0.31189  0.01685  0.93149  1.0000
  C   C240      1.0  0.33938  0.02602  0.92914  1.0000
  C   C241      1.0  0.35195  0.03761  0.91138  1.0000
  C   C242      1.0  0.33717  0.04000  0.89548  1.0000
  C   C243      1.0  0.30967  0.03087  0.89784  1.0000
  C   C244      1.0  0.29713  0.01944  0.91566  1.0000
  H   H291      1.0  0.35114  0.02415  0.94115  1.0000
  H   H292      1.0  0.37305  0.04442  0.90992  1.0000
  C   C245      1.0  0.08855  0.23396  0.98293  1.0000
  H   H293      1.0  0.44245  0.34972  0.77707  1.0000
  H   H294      1.0  0.14337  0.09886  0.99088  1.0000
  N   N16       1.0  0.31584  0.34264  0.96496  1.0000
  H   H295      1.0  0.26446  0.05102  0.96027  1.0000
  C   C246      1.0  0.01946  0.28784  0.89328  1.0000
  C   C247      1.0  0.37098  0.36140  0.92782  1.0000
  C   C248      1.0  0.32969  0.34797  0.94591  1.0000
  C   C249      1.0  0.35755  0.35686  0.94561  1.0000
  H   H296      1.0  0.27102  0.09469  0.93034  1.0000
  C   C250      1.0  0.35716  0.35730  0.90986  1.0000
  H   H297      1.0  0.28147  0.08610  0.98433  1.0000
  C   C251      1.0  0.36726  0.13534  0.92305  1.0000
  H   H298      1.0  0.36751  0.35995  0.89608  1.0000
  H   H299      1.0  0.25433  0.08583  0.95334  1.0000
  C   C252      1.0  0.13413  0.22611  0.99126  1.0000
  C   C253      1.0  0.00608  0.22729  0.92387  1.0000
  Fe  Fe48      1.0  0.01960  0.23201  0.98843  1.0000
  H   H300      1.0  0.17447  0.17538  0.99174  1.0000
  H   H301      1.0  0.32437  0.14523  0.95199  1.0000
  C   C254      1.0  0.11196  0.24667  0.97203  1.0000
  H   H302      1.0  0.39208  0.36727  0.92782  1.0000
  H   H303      1.0  0.29789  0.03244  0.88571  1.0000
  H   H304      1.0  0.34059  0.06024  0.80184  1.0000
  C   C255      1.0  0.35594  0.14860  0.93373  1.0000
  H   H305      1.0  0.27595  0.01225  0.91699  1.0000
  H   H306      1.0  0.31338  0.00474  0.81948  1.0000
  N   N17       1.0  0.37288  0.23008  0.88387  1.0000
  C   C256      1.0  0.36218  0.23342  0.90301  1.0000
  C   C257      1.0  0.40148  0.24995  0.88390  1.0000
  C   C258      1.0  0.35932  0.23680  0.86766  1.0000
  C   C259      1.0  0.36804  0.20212  0.88113  1.0000
  C   C260      1.0  0.38883  0.19516  0.87817  1.0000
  C   C261      1.0  0.34174  0.18077  0.88134  1.0000
  C   C262      1.0  0.38345  0.16853  0.87555  1.0000
  C   C263      1.0  0.33660  0.15420  0.87869  1.0000
  C   C264      1.0  0.35742  0.14811  0.87571  1.0000
  H   H307      1.0  0.37068  0.22706  0.91550  1.0000
  H   H308      1.0  0.36706  0.25464  0.90606  1.0000
  H   H309      1.0  0.34015  0.22196  0.90332  1.0000
  H   H310      1.0  0.41307  0.24644  0.89584  1.0000
  H   H311      1.0  0.40439  0.27067  0.88637  1.0000
  H   H312      1.0  0.41045  0.24978  0.86941  1.0000
  H   H313      1.0  0.33743  0.22412  0.86732  1.0000
  H   H314      1.0  0.36287  0.25786  0.86919  1.0000
  H   H315      1.0  0.36670  0.23436  0.85297  1.0000
  H   H316      1.0  0.40943  0.20991  0.87744  1.0000
  H   H317      1.0  0.32492  0.18454  0.88332  1.0000
  H   H318      1.0  0.39964  0.16375  0.87305  1.0000
  H   H319      1.0  0.31634  0.13824  0.87870  1.0000
  H   H320      1.0  0.35342  0.12753  0.87344  1.0000
  N   N18       1.0  0.02170  0.25472  0.91655  1.0000
  C   C265      1.0  0.02897  0.27342  0.93389  1.0000
  H   H321      1.0  0.00062  0.21196  0.91174  1.0000
  H   H322      1.0  0.03917  0.26794  0.94582  1.0000
  C   C266      1.0  0.00720  0.26211  0.90152  1.0000
  C   C267      1.0  0.43018  0.34805  0.76422  1.0000
  H   H323      1.0  0.43489  0.25596  0.74594  1.0000
  H   H324      1.0  0.01090  0.27339  0.94012  1.0000
  H   H325      1.0  0.15016  0.05941  0.99331  1.0000
  C   C268      1.0  0.32838  0.36652  0.97844  1.0000
  S   S90       1.0  0.01546  0.26930  0.98394  1.0000
  H   H326      1.0  0.27903  0.11917  0.95016  1.0000
  S   S91       1.0  0.28281  0.25419  0.99199  1.0000
  H   H327      1.0  0.30764  0.30171  0.96514  1.0000
  H   H328      1.0  0.21208  0.09686  0.96752  1.0000
  C   C269      1.0  0.04638  0.25639  0.90813  1.0000
  H   H329      1.0  0.29713  0.05444  0.95820  1.0000
  H   H330      1.0  0.33857  0.32416  0.97716  1.0000
  C   C270      1.0  0.38794  0.33998  0.74958  1.0000
  C   C271      1.0  0.33153  0.09292  0.93235  1.0000
  S   S92       1.0  0.06042  0.23919  0.97650  1.0000
  H   H331      1.0  0.31849  0.04243  0.77214  1.0000
  C   C272      1.0  0.22433  0.10645  0.98057  1.0000
  C   C273      1.0  0.31539  0.00695  0.80316  1.0000
  H   H332      1.0  0.31576  0.09434  0.98157  1.0000
  H   H333      1.0  0.36852  0.28322  0.76912  1.0000
  H   H334      1.0  0.03948  0.30230  0.89764  1.0000
  C   C274      1.0  0.28324  0.06148  0.95208  1.0000
  C   C275      1.0  0.35500  0.10757  0.92227  1.0000
  C   C276      1.0  0.32982  0.34846  0.90959  1.0000
  H   H335      1.0  0.36737  0.33547  0.75121  1.0000
  C   C277      1.0  0.39623  0.26896  0.77717  1.0000
  H   H336      1.0  0.42543  0.25537  0.78115  1.0000
  H   H337      1.0  0.29483  0.33578  0.92586  1.0000
  C   C278      1.0  0.33238  0.13411  0.94380  1.0000
  H   H338      1.0  0.01542  0.31558  0.87378  1.0000
  H   H339      1.0  0.30796  0.31585  0.98903  1.0000
  H   H340      1.0  0.06052  0.27699  0.90399  1.0000
  C   C279      1.0  0.42010  0.26181  0.75034  1.0000
  C   C280      1.0  0.23325  0.09185  0.99248  1.0000
  H   H341      1.0  0.30479  0.11932  0.97888  1.0000
  H   H342      1.0  0.37368  0.06410  0.80212  1.0000
  C   C281      1.0  0.31613  0.34366  0.92727  1.0000
  C   C282      1.0  0.34553  0.02513  0.77600  1.0000
  H   H343      1.0  0.39245  0.26893  0.79282  1.0000
  H   H344      1.0  0.15214  0.25270  0.96748  1.0000
  H   H345      1.0  0.27822  0.05443  0.93637  1.0000
  C   C283      1.0  0.33106  0.03547  0.76495  1.0000
  H   H346      1.0  0.04179  0.24329  0.89461  1.0000
  H   H347      1.0  0.01750  0.22251  0.93531  1.0000
  H   H348      1.0  0.35742  0.01099  0.82350  1.0000
  C   C284      1.0  0.35297  0.05078  0.80659  1.0000
  H   H349      1.0  0.04277  0.29430  0.93020  1.0000
  H   H350      1.0  0.11260  0.25936  0.96010  1.0000
  H   H351      1.0  0.38108  0.02426  0.80459  1.0000
  Fe  Fe49      1.0  0.20638  0.23460  0.99039  1.0000
  S   S93       1.0  0.22166  0.99525  0.96298  1.0000
  C   C285      1.0  0.44119  0.35267  0.74532  1.0000
  H   H352      1.0  0.16567  0.14305  0.98138  1.0000
  H   H353      1.0  0.32855  0.38421  0.97140  1.0000
  H   H354      1.0  0.43938  0.06064  0.74995  1.0000
  H   H355      1.0  0.19804  0.16244  0.99263  1.0000
  Fe  Fe50      1.0  0.25897  0.99275  0.97143  1.0000
  H   H356      1.0  0.98761  0.22489  0.93103  1.0000
  C   C286      1.0  0.42748  0.07084  0.74800  1.0000
  C   C287      1.0  0.17662  0.15701  0.99392  1.0000
  C   C288      1.0  0.47643  0.67871  0.14126  1.0000
  C   C289      1.0  0.26013  0.52460  0.15334  1.0000
  H   H357      1.0  0.33868  0.85295  0.23292  1.0000
  S   S94       1.0  0.00300  0.77473  0.01195  1.0000
  Fe  Fe51      1.0  0.99839  0.73387  0.01893  1.0000
  S   S95       1.0  0.00522  0.72431  0.05088  1.0000
  Fe  Fe52      1.0  0.31120  0.89378  0.16998  1.0000
  S   S96       1.0  0.31024  0.85630  0.15749  1.0000
  S   S97       1.0  0.30015  0.88522  0.20240  1.0000
  Fe  Fe53      1.0  0.31933  0.91791  0.12836  1.0000
  S   S98       1.0  0.31981  0.88197  0.11407  1.0000
  S   S99       1.0  0.32564  0.95203  0.10767  1.0000
  Fe  Fe54      1.0  0.28484  0.85857  0.13293  1.0000
  S   S100      1.0  0.24780  0.82506  0.11864  1.0000
  Fe  Fe55      1.0  0.34567  0.88295  0.14007  1.0000
  S   S101      1.0  0.37591  0.86680  0.13781  1.0000
  S   S102      1.0  0.28296  0.89423  0.14614  1.0000
  S   S103      1.0  0.34804  0.92078  0.15348  1.0000
  Fe  Fe56      1.0  0.09417  0.67660  0.17205  1.0000
  S   S104      1.0  0.12249  0.65963  0.17389  1.0000
  S   S105      1.0  0.07988  0.68963  0.19952  1.0000
  Fe  Fe57      1.0  0.09018  0.67221  0.12616  1.0000
  S   S106      1.0  0.11838  0.65390  0.12548  1.0000
  S   S107      1.0  0.07687  0.67943  0.09524  1.0000
  Fe  Fe58      1.0  0.09590  0.62908  0.15101  1.0000
  S   S108      1.0  0.08072  0.58549  0.15971  1.0000
  Fe  Fe59      1.0  0.14236  0.68572  0.14847  1.0000
  S   S109      1.0  0.18710  0.70900  0.15214  1.0000
  S   S110      1.0  0.06597  0.64500  0.15026  1.0000
  S   S111      1.0  0.11584  0.70524  0.14803  1.0000
  C   C290      1.0  0.43050  0.52380  0.12551  1.0000
  C   C291      1.0  0.42026  0.54033  0.13283  1.0000
  C   C292      1.0  0.43730  0.56767  0.13679  1.0000
  C   C293      1.0  0.46476  0.57888  0.13351  1.0000
  H   H358      1.0  0.41436  0.92391  0.22592  1.0000
  C   C294      1.0  0.45795  0.53501  0.12210  1.0000
  H   H359      1.0  0.39920  0.53207  0.13542  1.0000
  H   H360      1.0  0.42911  0.58023  0.14246  1.0000
  H   H361      1.0  0.46612  0.52246  0.11639  1.0000
  C   C295      1.0  0.08153  0.68814  0.22578  1.0000
  H   H362      1.0  0.35410  0.85181  0.18129  1.0000
  H   H363      1.0  0.05905  0.75974  0.03298  1.0000
  N   N19       1.0  0.31502  0.96333  0.00152  1.0000
  H   H364      1.0  0.11246  0.67620  0.22848  1.0000
  C   C296      1.0  0.09059  0.56139  0.15142  1.0000
  C   C297      1.0  0.10721  0.56563  0.13539  1.0000
  C   C298      1.0  0.11354  0.54544  0.12887  1.0000
  C   C299      1.0  0.10362  0.52090  0.13840  1.0000
  C   C300      1.0  0.08742  0.51685  0.15468  1.0000
  C   C301      1.0  0.08083  0.53691  0.16104  1.0000
  H   H365      1.0  0.11477  0.58426  0.12777  1.0000
  H   H366      1.0  0.12597  0.54878  0.11621  1.0000
  H   H367      1.0  0.45936  0.51094  0.22373  1.0000
  H   H368      1.0  0.06791  0.53334  0.17341  1.0000
  C   C302      1.0  0.31279  0.89921  0.22642  1.0000
  C   C303      1.0  0.33481  0.92432  0.22959  1.0000
  C   C304      1.0  0.25788  0.51183  0.11891  1.0000
  H   H369      1.0  0.34478  0.93615  0.21710  1.0000
  H   H370      1.0  0.07800  0.57994  0.23184  1.0000
  C   C305      1.0  0.46681  0.90436  0.14962  1.0000
  C   C306      1.0  0.45211  0.87783  0.14290  1.0000
  C   C307      1.0  0.42440  0.86680  0.13933  1.0000
  C   C308      1.0  0.41099  0.88212  0.14231  1.0000
  C   C309      1.0  0.42562  0.90862  0.14916  1.0000
  C   C310      1.0  0.45333  0.91960  0.15284  1.0000
  H   H371      1.0  0.46213  0.86583  0.14040  1.0000
  H   H372      1.0  0.41333  0.84627  0.13411  1.0000
  H   H373      1.0  0.41572  0.92075  0.15145  1.0000
  H   H374      1.0  0.46450  0.94017  0.15797  1.0000
  C   C311      1.0  0.22997  0.79405  0.12982  1.0000
  C   C312      1.0  0.20492  0.77599  0.12179  1.0000
  C   C313      1.0  0.19113  0.75015  0.12908  1.0000
  C   C314      1.0  0.20272  0.74202  0.14406  1.0000
  C   C315      1.0  0.22755  0.76021  0.15236  1.0000
  C   C316      1.0  0.24098  0.78632  0.14549  1.0000
  H   H375      1.0  0.19632  0.78185  0.10965  1.0000
  H   H376      1.0  0.17200  0.73622  0.12258  1.0000
  H   H377      1.0  0.23646  0.75404  0.16409  1.0000
  H   H378      1.0  0.26005  0.80020  0.15203  1.0000
  C   C317      1.0  0.02645  0.71310  0.06292  1.0000
  C   C318      1.0  0.02615  0.71139  0.08368  1.0000
  C   C319      1.0  0.04192  0.70194  0.09391  1.0000
  C   C320      1.0  0.05815  0.69377  0.08349  1.0000
  C   C321      1.0  0.05879  0.69596  0.06274  1.0000
  C   C322      1.0  0.04323  0.70565  0.05254  1.0000
  H   H379      1.0  0.01338  0.71714  0.09197  1.0000
  H   H380      1.0  0.04107  0.70040  0.10982  1.0000
  H   H381      1.0  0.07118  0.68970  0.05447  1.0000
  H   H382      1.0  0.04403  0.70696  0.03663  1.0000
  C   C323      1.0  0.17956  0.50278  0.11237  1.0000
  C   C324      1.0  0.07301  0.78096  0.03010  1.0000
  H   H383      1.0  0.44415  0.49838  0.15685  1.0000
  C   C325      1.0  0.00201  0.63000  0.03667  1.0000
  C   C326      1.0  0.26797  0.95886  0.06130  1.0000
  C   C327      1.0  0.25869  0.93767  0.07453  1.0000
  C   C328      1.0  0.27594  0.93526  0.08874  1.0000
  C   C329      1.0  0.30281  0.95421  0.09011  1.0000
  C   C330      1.0  0.05573  0.60239  0.23561  1.0000
  C   C331      1.0  0.46273  0.71926  0.12565  1.0000
  H   H384      1.0  0.23797  0.92291  0.07374  1.0000
  H   H385      1.0  0.26839  0.91879  0.09870  1.0000
  H   H386      1.0  0.44908  0.64307  0.11215  1.0000
  H   H387      1.0  0.39425  0.92235  0.19600  1.0000
  H   H388      1.0  0.01261  0.60441  0.21768  1.0000
  H   H389      1.0  0.33446  0.85682  0.19963  1.0000
  H   H390      1.0  0.24212  0.84025  0.21594  1.0000
  H   H391      1.0  0.14907  0.71953  0.19098  1.0000
  H   H392      1.0  0.20297  0.54886  0.15013  1.0000
  H   H393      1.0  0.22724  0.52844  0.16440  1.0000
  N   N20       1.0  0.37680  0.88096  0.20432  1.0000
  N   N21       1.0  0.08263  0.79730  0.04869  1.0000
  C   C332      1.0  0.37652  0.90284  0.19281  1.0000
  C   C333      1.0  0.21359  0.82064  0.17020  1.0000
  C   C334      1.0  0.30455  0.98162  0.00816  1.0000
  C   C335      1.0  0.22039  0.51599  0.13318  1.0000
  C   C336      1.0  0.10241  0.82488  0.04411  1.0000
  H   H394      1.0  0.27690  0.92738  0.02540  1.0000
  C   C337      1.0  0.29703  0.93184  0.02960  1.0000
  C   C338      1.0  0.11334  0.86659  0.02717  1.0000
  C   C339      1.0  0.99494  0.64061  0.07594  1.0000
  H   H395      1.0  0.22317  0.50435  0.10241  1.0000
  H   H396      1.0  0.06620  0.81100  0.07200  1.0000
  H   H397      1.0  0.35863  0.90538  0.19610  1.0000
  H   H398      1.0  0.37627  0.89878  0.17661  1.0000
  C   C340      1.0  0.29484  0.97788  0.06272  1.0000
  H   H399      1.0  0.10012  0.79440  0.07653  1.0000
  H   H400      1.0  0.45228  0.58210  0.21744  1.0000
  C   C341      1.0  0.20616  0.80360  0.20913  1.0000
  H   H401      1.0  0.04849  0.56442  0.20636  1.0000
  H   H402      1.0  0.45812  0.54210  0.16569  1.0000
  C   C342      1.0  0.22787  0.82784  0.20448  1.0000
  C   C343      1.0  0.30042  0.92007  0.04665  1.0000
  H   H403      1.0  0.02466  0.62847  0.08325  1.0000
  C   C344      1.0  0.23518  0.52371  0.15138  1.0000
  C   C345      1.0  0.47503  0.56238  0.12614  1.0000
  H   H404      1.0  0.19005  0.51615  0.10012  1.0000
  C   C346      1.0  0.48017  0.71095  0.11659  1.0000
  H   H405      1.0  0.05122  0.70060  0.22854  1.0000
  H   H406      1.0  0.45831  0.67729  0.14825  1.0000
  H   H407      1.0  0.41953  0.89778  0.20177  1.0000
  H   H408      1.0  0.40271  0.51088  0.19347  1.0000
  H   H409      1.0  0.00588  0.62610  0.02169  1.0000
  C   C347      1.0  0.12912  0.83704  0.05167  1.0000
  H   H410      1.0  0.35250  0.83828  0.20519  1.0000
  C   C348      1.0  0.23151  0.83636  0.18509  1.0000
  H   H411      1.0  0.99299  0.64554  0.09119  1.0000
  N   N22       1.0  0.16399  0.76141  0.19853  1.0000
  C   C349      1.0  0.16141  0.75501  0.21983  1.0000
  C   C350      1.0  0.13925  0.76204  0.19188  1.0000
  C   C351      1.0  0.16585  0.73935  0.18769  1.0000
  C   C352      1.0  0.18739  0.78708  0.19425  1.0000
  C   C353      1.0  0.45189  0.66376  0.11020  1.0000
  C   C354      1.0  0.46561  0.59462  0.22927  1.0000
  H   H412      1.0  0.10743  0.87805  0.01745  1.0000
  H   H413      1.0  0.26645  0.50627  0.10657  1.0000
  H   H414      1.0  0.00247  0.65976  0.00474  1.0000
  H   H415      1.0  1.00000  0.68442  0.02039  1.0000
  H   H416      1.0  0.14338  0.73576  0.22247  1.0000
  H   H417      1.0  0.15900  0.50058  0.11200  1.0000
  C   C355      1.0  0.34485  0.95629  0.02675  1.0000
  H   H418      1.0  0.12114  0.74355  0.19572  1.0000
  H   H419      1.0  0.13799  0.76349  0.17557  1.0000
  H   H420      1.0  0.36770  0.95029  0.05014  1.0000
  H   H421      1.0  0.45160  0.66699  0.09404  1.0000
  H   H422      1.0  0.18478  0.73884  0.19146  1.0000
  H   H423      1.0  0.32831  0.91868  0.06784  1.0000
  H   H424      1.0  0.40080  0.87251  0.18370  1.0000
  C   C356      1.0  0.29992  0.88433  0.24290  1.0000
  H   H425      1.0  0.10994  0.78156  0.05513  1.0000
  N   N23       1.0  0.30974  0.79991  0.10177  1.0000
  C   C357      1.0  0.30172  0.81360  0.08658  1.0000
  C   C358      1.0  0.30952  0.81163  0.12146  1.0000
  C   C359      1.0  0.33764  0.80580  0.09804  1.0000
  C   C360      1.0  0.29077  0.77105  0.10152  1.0000
  C   C361      1.0  0.26317  0.76245  0.10352  1.0000
  C   C362      1.0  0.29898  0.75084  0.10039  1.0000
  C   C363      1.0  0.24496  0.73546  0.10471  1.0000
  C   C364      1.0  0.28053  0.72381  0.10141  1.0000
  C   C365      1.0  0.25362  0.71617  0.10369  1.0000
  H   H426      1.0  0.28271  0.81383  0.08999  1.0000
  H   H427      1.0  0.31662  0.83500  0.08557  1.0000
  H   H428      1.0  0.29928  0.80385  0.07172  1.0000
  H   H429      1.0  0.28983  0.81026  0.12464  1.0000
  H   H430      1.0  0.32411  0.83313  0.12256  1.0000
  H   H431      1.0  0.31459  0.80146  0.13348  1.0000
  H   H432      1.0  0.35123  0.82774  0.09812  1.0000
  H   H433      1.0  0.34581  0.79805  0.10988  1.0000
  H   H434      1.0  0.33931  0.79745  0.08342  1.0000
  H   H435      1.0  0.25547  0.77662  0.10462  1.0000
  H   H436      1.0  0.31953  0.75538  0.09894  1.0000
  H   H437      1.0  0.22404  0.72952  0.10677  1.0000
  H   H438      1.0  0.28715  0.70868  0.10068  1.0000
  H   H439      1.0  0.23939  0.69528  0.10483  1.0000
  N   N24       1.0  0.04923  0.60209  0.21427  1.0000
  C   C366      1.0  0.07409  0.61687  0.20346  1.0000
  C   C367      1.0  0.03550  0.57425  0.20613  1.0000
  C   C368      1.0  0.03179  0.61456  0.20997  1.0000
  C   C369      1.0  0.40105  0.87859  0.19952  1.0000
  H   H440      1.0  0.16757  0.87207  0.05267  1.0000
  H   H441      1.0  0.08743  0.60745  0.20431  1.0000
  H   H442      1.0  0.43431  0.66459  0.11648  1.0000
  H   H443      1.0  0.02951  0.57349  0.19025  1.0000
  H   H444      1.0  0.01737  0.56188  0.21453  1.0000
  H   H445      1.0  0.02699  0.61368  0.19385  1.0000
  H   H446      1.0  0.07781  0.76302  0.06516  1.0000
  C   C370      1.0  0.37691  0.88697  0.22574  1.0000
  H   H447      1.0  0.41402  0.51612  0.16850  1.0000
  H   H448      1.0  0.16528  0.74128  0.17142  1.0000
  N   N25       1.0  0.19334  0.51369  0.13181  1.0000
  H   H449      1.0  0.17463  0.53920  0.13393  1.0000
  C   C371      1.0  0.31914  0.95016  0.01899  1.0000
  C   C372      1.0  0.14723  0.86313  0.04690  1.0000
  C   C373      1.0  0.09861  0.68080  0.23634  1.0000
  H   H450      1.0  0.28289  0.86490  0.24068  1.0000
  H   H451      1.0  0.07539  0.83251  0.02501  1.0000
  H   H452      1.0  0.17873  0.75278  0.22561  1.0000
  H   H453      1.0  0.20756  0.55465  0.12412  1.0000
  C   C374      1.0  0.13937  0.87783  0.03464  1.0000
  H   H454      1.0  0.40290  0.86345  0.20874  1.0000
  H   H455      1.0  0.04169  0.63616  0.21430  1.0000
  C   C375      1.0  0.09326  0.78364  0.06195  1.0000
  C   C376      1.0  0.35341  0.85580  0.19743  1.0000
  H   H456      1.0  0.27053  0.52938  0.16758  1.0000
  H   H457      1.0  0.04488  0.77747  0.06302  1.0000
  C   C377      1.0  0.09514  0.84049  0.03166  1.0000
  S   S112      1.0  0.24507  0.96024  0.04339  1.0000
  S   S113      1.0  0.11158  0.49585  0.12911  1.0000
  H   H458      1.0  0.44682  0.70604  0.13475  1.0000
  C   C378      1.0  0.46688  0.52598  0.21267  1.0000
  Fe  Fe60      1.0  0.24162  0.97992  0.01463  1.0000
  C   C379      1.0  0.19199  0.79625  0.17459  1.0000
  C   C380      1.0  0.17649  0.49566  0.14712  1.0000
  C   C381      1.0  0.32583  0.92675  0.05400  1.0000
  H   H459      1.0  0.03089  0.61888  0.04855  1.0000
  H   H460      1.0  0.13663  0.82686  0.06121  1.0000
  H   H461      1.0  0.08985  0.78153  0.02154  1.0000
  H   H462      1.0  0.06201  0.78809  0.02022  1.0000
  H   H463      1.0  0.15353  0.89793  0.03075  1.0000
  C   C382      1.0  0.05964  0.79775  0.05850  1.0000
  H   H464      1.0  0.29019  0.51805  0.13883  1.0000
  C   C383      1.0  0.45463  0.52208  0.19354  1.0000
  C   C384      1.0  0.19477  0.54029  0.13515  1.0000
  H   H465      1.0  0.04856  0.80487  0.04864  1.0000
  C   C385      1.0  0.98823  0.66560  0.01161  1.0000
  C   C386      1.0  0.31205  0.97559  0.07704  1.0000
  S   S114      1.0  0.20420  0.98389  0.00892  1.0000
  H   H466      1.0  0.08538  0.63773  0.20926  1.0000
  H   H467      1.0  0.13782  0.77930  0.19883  1.0000
  H   H468      1.0  0.24836  0.85516  0.18160  1.0000
  H   H469      1.0  0.28505  0.97082  0.01533  1.0000
  C   C387      1.0  0.46632  0.54354  0.18042  1.0000
  H   H470      1.0  0.06990  0.61777  0.18746  1.0000
  C   C388      1.0  0.23276  0.51053  0.11683  1.0000
  H   H471      1.0  0.15940  0.77058  0.22889  1.0000
  C   C389      1.0  0.40900  0.50229  0.18092  1.0000
  H   H472      1.0  0.17903  0.78455  0.16239  1.0000
  C   C390      1.0  0.27135  0.51847  0.13716  1.0000
  H   H473      1.0  0.21669  0.82732  0.15508  1.0000
  H   H474      1.0  0.20462  0.79830  0.22447  1.0000
  H   H475      1.0  0.28323  0.90675  0.05481  1.0000
  C   C391      1.0  0.06438  0.69477  0.23639  1.0000
  H   H476      1.0  0.36287  0.97042  0.02004  1.0000
  C   C392      1.0  0.46585  0.74507  0.12350  1.0000
  C   C393      1.0  0.01641  0.62573  0.05190  1.0000
  H   H477      1.0  0.45313  0.75148  0.13124  1.0000
  C   C394      1.0  0.39818  0.91018  0.23461  1.0000
  N   N26       1.0  0.47713  0.68385  0.11976  1.0000
  H   H478      1.0  0.07957  0.49809  0.16213  1.0000
  N   N27       1.0  0.43123  0.49688  0.18694  1.0000
  C   C395      1.0  0.34799  0.94475  0.04405  1.0000
  C   C396      1.0  0.01284  0.63098  0.07150  1.0000
  C   C397      1.0  0.35619  0.87047  0.23833  1.0000
  C   C398      1.0  0.07080  0.58970  0.24221  1.0000
  H   H479      1.0  0.15575  0.49268  0.14595  1.0000
  H   H480      1.0  0.18353  0.50328  0.16244  1.0000
  H   H481      1.0  0.47658  0.65947  0.14419  1.0000
  C   C399      1.0  0.98353  0.63975  0.04065  1.0000
  H   H482      1.0  0.46449  0.49555  0.39934  1.0000
  H   H483      1.0  0.46948  0.88080  0.36139  1.0000
  H   H484      1.0  0.01913  0.74319  0.34567  1.0000
  S   S115      1.0  0.00220  0.77525  0.47248  1.0000
  C   C400      1.0  0.09794  0.67978  0.25734  1.0000
  C   C401      1.0  0.04814  0.61568  0.25031  1.0000
  Fe  Fe61      1.0  0.32710  0.90660  0.31676  1.0000
  S   S116      1.0  0.32780  0.86732  0.31535  1.0000
  S   S117      1.0  0.34241  0.93266  0.28989  1.0000
  Fe  Fe62      1.0  0.30556  0.89882  0.35948  1.0000
  S   S118      1.0  0.30550  0.85891  0.36030  1.0000
  S   S119      1.0  0.28623  0.90468  0.38781  1.0000
  Fe  Fe63      1.0  0.34558  0.87863  0.34619  1.0000
  S   S120      1.0  0.37855  0.87047  0.35897  1.0000
  Fe  Fe64      1.0  0.28797  0.85152  0.32955  1.0000
  S   S121      1.0  0.24988  0.81747  0.31692  1.0000
  S   S122      1.0  0.34707  0.91907  0.34724  1.0000
  S   S123      1.0  0.28607  0.89026  0.32908  1.0000
  Fe  Fe65      1.0  0.09430  0.67152  0.31926  1.0000
  S   S124      1.0  0.12095  0.65215  0.31826  1.0000
  S   S125      1.0  0.07767  0.68597  0.29397  1.0000
  Fe  Fe66      1.0  0.09060  0.67004  0.36510  1.0000
  S   S126      1.0  0.11651  0.64954  0.36709  1.0000
  S   S127      1.0  0.08255  0.68700  0.39413  1.0000
  Fe  Fe67      1.0  0.14187  0.67896  0.34479  1.0000
  S   S128      1.0  0.18618  0.70177  0.35129  1.0000
  Fe  Fe68      1.0  0.09354  0.62408  0.34057  1.0000
  S   S129      1.0  0.07532  0.57885  0.33468  1.0000
  S   S130      1.0  0.11751  0.70060  0.34408  1.0000
  S   S131      1.0  0.06534  0.64219  0.34019  1.0000
  C   C402      1.0  0.46061  0.57847  0.34831  1.0000
  C   C403      1.0  0.47219  0.56156  0.34583  1.0000
  C   C404      1.0  0.45617  0.53361  0.34528  1.0000
  C   C405      1.0  0.42835  0.52213  0.34689  1.0000
  C   C406      1.0  0.41670  0.53907  0.34868  1.0000
  C   C407      1.0  0.43277  0.56705  0.34951  1.0000
  H   H485      1.0  0.39537  0.53061  0.35001  1.0000
  H   H486      1.0  0.42355  0.57989  0.35145  1.0000
  C   C408      1.0  0.08641  0.55602  0.34326  1.0000
  C   C409      1.0  0.07077  0.52854  0.33892  1.0000
  C   C410      1.0  0.07884  0.50972  0.34530  1.0000
  C   C411      1.0  0.10285  0.51821  0.35597  1.0000
  C   C412      1.0  0.11849  0.54567  0.36028  1.0000
  C   C413      1.0  0.11037  0.56446  0.35397  1.0000
  H   H487      1.0  0.05207  0.52176  0.33082  1.0000
  H   H488      1.0  0.08877  0.57994  0.26701  1.0000
  H   H489      1.0  0.13702  0.55252  0.36861  1.0000
  H   H490      1.0  0.12261  0.58549  0.35745  1.0000
  C   C414      1.0  0.41118  0.88236  0.34990  1.0000
  C   C415      1.0  0.42956  0.87661  0.36020  1.0000
  C   C416      1.0  0.45539  0.88489  0.35316  1.0000
  C   C417      1.0  0.46302  0.89877  0.33559  1.0000
  C   C418      1.0  0.44473  0.90471  0.32537  1.0000
  C   C419      1.0  0.41897  0.89663  0.33249  1.0000
  H   H491      1.0  0.42373  0.86562  0.37368  1.0000
  H   H492      1.0  0.04623  0.74653  0.31814  1.0000
  H   H493      1.0  0.45046  0.91559  0.31184  1.0000
  H   H494      1.0  0.40505  0.90120  0.32442  1.0000
  C   C420      1.0  0.23301  0.78531  0.32657  1.0000
  C   C421      1.0  0.20715  0.76823  0.31934  1.0000
  C   C422      1.0  0.19256  0.74268  0.32695  1.0000
  C   C423      1.0  0.20393  0.73387  0.34165  1.0000
  C   C424      1.0  0.22985  0.75089  0.34884  1.0000
  C   C425      1.0  0.24433  0.77665  0.34143  1.0000
  H   H495      1.0  0.19832  0.77482  0.30782  1.0000
  H   H496      1.0  0.17268  0.72966  0.32124  1.0000
  H   H497      1.0  0.23872  0.74412  0.36022  1.0000
  H   H498      1.0  0.26425  0.78967  0.34707  1.0000
  C   C426      1.0  0.02113  0.70636  0.42552  1.0000
  C   C427      1.0  0.04647  0.71423  0.43392  1.0000
  C   C428      1.0  0.06479  0.70799  0.42412  1.0000
  C   C429      1.0  0.05812  0.69367  0.40587  1.0000
  C   C430      1.0  0.03263  0.68540  0.39763  1.0000
  C   C431      1.0  0.01437  0.69183  0.40735  1.0000
  H   H499      1.0  0.37612  0.95208  0.38497  1.0000
  H   H500      1.0  0.02692  0.67401  0.38383  1.0000
  H   H501      1.0  0.00821  0.61709  0.42010  1.0000
  H   H502      1.0  0.11831  0.52396  0.31517  1.0000
  C   C432      1.0  0.02080  0.62915  0.43239  1.0000
  C   C433      1.0  0.03229  0.74658  0.35827  1.0000
  H   H503      1.0  0.39793  0.92619  0.37460  1.0000
  C   C434      1.0  0.27391  0.96561  0.42759  1.0000
  Fe  Fe69      1.0  0.99814  0.73383  0.46735  1.0000
  C   C435      1.0  0.28931  0.95473  0.39652  1.0000
  C   C436      1.0  0.28031  0.92831  0.40206  1.0000
  C   C437      1.0  0.26735  0.92050  0.42019  1.0000
  C   C438      1.0  0.26412  0.93895  0.43285  1.0000
  H   H504      1.0  0.04913  0.62622  0.28127  1.0000
  H   H505      1.0  0.29899  0.96111  0.38256  1.0000
  H   H506      1.0  0.21511  0.85797  0.39478  1.0000
  H   H507      1.0  0.08436  0.71443  0.43073  1.0000
  C   C439      1.0  0.06381  0.69389  0.25705  1.0000
  C   C440      1.0  0.08037  0.68632  0.26776  1.0000
  C   C441      1.0  0.45000  0.54697  0.39508  1.0000
  H   H508      1.0  0.05026  0.69908  0.26480  1.0000
  H   H509      1.0  0.11099  0.67405  0.26543  1.0000
  H   H510      1.0  0.18853  0.49399  0.35354  1.0000
  C   C442      1.0  0.33062  0.91951  0.26555  1.0000
  C   C443      1.0  0.30877  0.89434  0.26232  1.0000
  H   H511      1.0  0.42770  0.76650  0.34226  1.0000
  H   H512      1.0  0.29857  0.88262  0.27481  1.0000
  N   N28       1.0  0.44538  0.80911  0.33814  1.0000
  C   C444      1.0  0.38046  0.92675  0.42968  1.0000
  C   C445      1.0  0.45571  0.81525  0.35890  1.0000
  C   C446      1.0  0.39858  0.91653  0.25475  1.0000
  N   N29       1.0  0.19067  0.50347  0.38466  1.0000
  H   H513      1.0  0.45759  0.83481  0.36416  1.0000
  H   H514      1.0  0.05213  0.72550  0.44781  1.0000
  H   H515      1.0  0.10182  0.74360  0.34676  1.0000
  H   H516      1.0  0.02179  0.71314  0.32444  1.0000
  C   C447      1.0  0.06464  0.65544  0.44693  1.0000
  C   C448      1.0  0.41564  0.82740  0.32351  1.0000
  H   H517      1.0  0.35192  0.81263  0.33389  1.0000
  H   H518      1.0  0.35750  0.78142  0.35615  1.0000
  C   C449      1.0  0.37806  0.89986  0.26666  1.0000
  C   C450      1.0  0.35702  0.87684  0.25849  1.0000
  C   C451      1.0  0.26404  0.49836  0.39035  1.0000
  C   C452      1.0  0.35271  0.97027  0.40748  1.0000
  H   H519      1.0  0.16805  0.50889  0.36081  1.0000
  H   H520      1.0  0.03305  0.68841  0.34909  1.0000
  C   C453      1.0  0.26401  0.52123  0.38318  1.0000
  H   H521      1.0  0.33957  0.95571  0.39582  1.0000
  H   H522      1.0  0.08550  0.74023  0.37661  1.0000
  C   C454      1.0  0.37041  0.81137  0.33422  1.0000
  H   H523      1.0  0.05765  0.69025  0.33197  1.0000
  H   H524      1.0  0.39956  0.77941  0.35804  1.0000
  C   C455      1.0  0.05474  0.61561  0.27032  1.0000
  H   H525      1.0  0.99484  0.68555  0.40071  1.0000
  C   C456      1.0  0.44140  0.78205  0.33236  1.0000
  H   H526      1.0  0.34062  0.86449  0.26773  1.0000
  H   H527      1.0  0.32188  0.94784  0.43661  1.0000
  H   H528      1.0  0.09065  0.51844  0.29963  1.0000
  H   H529      1.0  0.43302  0.55062  0.39290  1.0000
  N   N30       1.0  0.05961  0.72812  0.34021  1.0000
  C   C457      1.0  0.39121  0.82783  0.32245  1.0000
  H   H530      1.0  0.32187  0.92091  0.42210  1.0000
  H   H531      1.0  0.04663  0.69525  0.49099  1.0000
  C   C458      1.0  0.99764  0.67087  0.47500  1.0000
  H   H532      1.0  0.46209  0.61144  0.31165  1.0000
  C   C459      1.0  0.39311  0.91197  0.42325  1.0000
  C   C460      1.0  0.41976  0.81000  0.33639  1.0000
  C   C461      1.0  0.02661  0.75679  0.37554  1.0000
  H   H533      1.0  0.47124  0.84938  0.32956  1.0000
  C   C462      1.0  0.39327  0.92667  0.39005  1.0000
  H   H534      1.0  0.07552  0.75898  0.40607  1.0000
  H   H535      1.0  0.43301  0.77640  0.31700  1.0000
  C   C463      1.0  0.99520  0.63270  0.49179  1.0000
  H   H536      1.0  0.33731  0.92922  0.44628  1.0000
  C   C464      1.0  0.46776  0.51596  0.39857  1.0000
  S   S132      1.0  0.99739  0.71445  0.43685  1.0000
  C   C465      1.0  0.44602  0.52085  0.39625  1.0000
  H   H537      1.0  0.37790  0.90527  0.28212  1.0000
  C   C466      1.0  0.39794  0.79313  0.34792  1.0000
  H   H538      1.0  0.12356  0.53441  0.29002  1.0000
  H   H539      1.0  0.04881  0.71779  0.30928  1.0000
  C   C467      1.0  0.28637  0.97324  0.40928  1.0000
  C   C468      1.0  0.07722  0.58970  0.26227  1.0000
  H   H540      1.0  0.25313  0.85285  0.36851  1.0000
  C   C469      1.0  0.04332  0.72646  0.32231  1.0000
  H   H541      1.0  0.19412  0.52206  0.41331  1.0000
  H   H542      1.0  0.17256  0.52694  0.39590  1.0000
  C   C470      1.0  0.06910  0.60253  0.27631  1.0000
  S   S133      1.0  0.02588  0.73746  0.49249  1.0000
  H   H543      1.0  0.22275  0.85216  0.34116  1.0000
  H   H544      1.0  0.39780  0.90027  0.43359  1.0000
  H   H545      1.0  0.98846  0.67648  0.48744  1.0000
  H   H546      1.0  0.13981  0.49697  0.31344  1.0000
  S   S134      1.0  0.11457  0.49567  0.36411  1.0000
  H   H547      1.0  0.06680  0.70020  0.35732  1.0000
  C   C471      1.0  0.04826  0.63943  0.43142  1.0000
  H   H548      1.0  0.26019  0.90014  0.42470  1.0000
  C   C472      1.0  0.37352  0.94174  0.41635  1.0000
  C   C473      1.0  0.11017  0.51830  0.29973  1.0000
  H   H549      1.0  0.37083  0.98557  0.40048  1.0000
  H   H550      1.0  0.18723  0.83404  0.34391  1.0000
  C   C474      1.0  0.33414  0.93786  0.43253  1.0000
  C   C475      1.0  0.06381  0.75600  0.39256  1.0000
  C   C476      1.0  0.14908  0.78313  0.39621  1.0000
  C   C477      1.0  0.23646  0.83350  0.37275  1.0000
  H   H551      1.0  0.22862  0.87578  0.37290  1.0000
  H   H552      1.0  0.23888  0.81803  0.36395  1.0000
  C   C478      1.0  0.06949  0.74548  0.37550  1.0000
  C   C479      1.0  0.20640  0.83400  0.34744  1.0000
  N   N31       1.0  0.21031  0.83281  0.36905  1.0000
  H   H553      1.0  0.05696  0.63554  0.41838  1.0000
  H   H554      1.0  0.20783  0.54515  0.39374  1.0000
  C   C480      1.0  0.21171  0.85740  0.37847  1.0000
  H   H555      1.0  0.20623  0.81673  0.33920  1.0000
  H   H556      1.0  0.23958  0.83083  0.38866  1.0000
  H   H557      1.0  0.19346  0.85940  0.37528  1.0000
  H   H558      1.0  0.03732  0.76852  0.40618  1.0000
  H   H559      1.0  0.25447  0.93266  0.44683  1.0000
  H   H560      1.0  0.16947  0.82530  0.39546  1.0000
  H   H561      1.0  0.40861  0.89992  0.39829  1.0000
  C   C481      1.0  0.18869  0.80777  0.37642  1.0000
  H   H562      1.0  0.20001  0.78140  0.35976  1.0000
  C   C482      1.0  0.16932  0.80730  0.38973  1.0000
  H   H563      1.0  0.45280  0.55329  0.28144  1.0000
  H   H564      1.0  0.38869  0.84183  0.31304  1.0000
  H   H565      1.0  0.06763  0.67434  0.47474  1.0000
  H   H566      1.0  0.34176  0.98089  0.41318  1.0000
  C   C483      1.0  0.18625  0.78269  0.36999  1.0000
  C   C484      1.0  0.16611  0.75871  0.37665  1.0000
  H   H567      1.0  0.16511  0.73985  0.37171  1.0000
  H   H568      1.0  0.15005  0.50855  0.28907  1.0000
  H   H569      1.0  0.13203  0.74021  0.39495  1.0000
  H   H570      1.0  0.13465  0.78317  0.40651  1.0000
  C   C485      1.0  0.14753  0.75890  0.38973  1.0000
  H   H571      1.0  0.43112  0.84149  0.31451  1.0000
  H   H572      1.0  0.28225  0.49656  0.39065  1.0000
  H   H573      1.0  0.08604  0.66386  0.44578  1.0000
  H   H574      1.0  0.07420  0.60260  0.29187  1.0000
  C   C486      1.0  0.37372  0.79397  0.34688  1.0000
  H   H575      1.0  0.46542  0.52072  0.34398  1.0000
  H   H576      1.0  0.46035  0.82458  0.30952  1.0000
  H   H577      1.0  0.24132  0.54120  0.37622  1.0000
  H   H578      1.0  0.20286  0.52909  0.35938  1.0000
  H   H579      1.0  0.36636  0.98910  0.44380  1.0000
  N   N32       1.0  0.35942  0.95656  0.42344  1.0000
  H   H580      1.0  0.47573  0.81623  0.36052  1.0000
  C   C487      1.0  0.46630  0.82840  0.32546  1.0000
  C   C488      1.0  0.08797  0.74357  0.33498  1.0000
  C   C489      1.0  0.04226  0.76137  0.39265  1.0000
  C   C490      1.0  0.24032  0.52308  0.38191  1.0000
  C   C491      1.0  0.05406  0.70059  0.34484  1.0000
  C   C492      1.0  0.00960  0.63486  0.44890  1.0000
  H   H581      1.0  0.44309  0.56836  0.25141  1.0000
  C   C493      1.0  0.05369  0.66142  0.46348  1.0000
  C   C494      1.0  0.47575  0.56831  0.39564  1.0000
  H   H582      1.0  0.28241  0.53736  0.37823  1.0000
  H   H583      1.0  0.41448  0.93480  0.26111  1.0000
  C   C495      1.0  0.05396  0.74052  0.35777  1.0000
  H   H584      1.0  0.01053  0.68936  0.46719  1.0000
  H   H585      1.0  0.36045  0.95395  0.25141  1.0000
  C   C496      1.0  0.46720  0.61632  0.29594  1.0000
  C   C497      1.0  0.19140  0.52539  0.39745  1.0000
  C   C498      1.0  0.38056  0.94145  0.39629  1.0000
  H   H586      1.0  0.47724  0.58788  0.39387  1.0000
  H   H587      1.0  0.44270  0.79997  0.36925  1.0000
  H   H588      1.0  0.09317  0.76470  0.33215  1.0000
  C   C499      1.0  0.34357  0.93444  0.24907  1.0000
  H   H589      1.0  0.00968  0.76075  0.37583  1.0000
  C   C500      1.0  0.44987  0.56947  0.28877  1.0000
  N   N33       1.0  0.47280  0.59612  0.28574  1.0000
  N   N34       1.0  0.01330  0.65762  0.48199  1.0000
  C   C501      1.0  0.21574  0.50170  0.38742  1.0000
  H   H590      1.0  0.09255  0.73499  0.32147  1.0000
  C   C502      1.0  0.18749  0.50913  0.36372  1.0000
  S   S135      1.0  0.48001  0.61381  0.35073  1.0000
  H   H591      1.0  0.44713  0.56477  0.30478  1.0000
  C   C503      1.0  0.39935  0.91182  0.40344  1.0000
  H   H592      1.0  0.45023  0.61774  0.28863  1.0000
  H   H593      1.0  0.43082  0.56844  0.28330  1.0000
  C   C504      1.0  0.02570  0.65134  0.46492  1.0000
  H   H594      1.0  0.98822  0.62663  0.44885  1.0000
  N   N35       1.0  0.10783  0.49205  0.29330  1.0000
  C   C505      1.0  0.47792  0.60298  0.26468  1.0000
  H   H595      1.0  0.42604  0.50435  0.39490  1.0000
  C   C506      1.0  0.46063  0.58690  0.24893  1.0000
  C   C507      1.0  0.13393  0.49275  0.29745  1.0000
  H   H596      1.0  0.46051  0.78091  0.33299  1.0000
  H   H597      1.0  0.37583  0.92608  0.44515  1.0000
  H   H598      1.0  0.38035  0.96835  0.45181  1.0000
  H   H599      1.0  0.03756  0.62679  0.24677  1.0000
  C   C508      1.0  0.37621  0.97716  0.43851  1.0000
  H   H600      1.0  0.09422  0.88228  0.54420  1.0000
  H   H601      1.0  0.08996  0.83705  0.54660  1.0000
  Fe  Fe70      1.0  0.98985  0.72055  0.51180  1.0000
  H   H602      1.0  0.17837  0.95155  0.53826  1.0000
  H   H603      1.0  0.20777  0.96586  0.55354  1.0000
  H   H604      1.0  0.20447  0.90287  0.53444  1.0000
  H   H605      1.0  0.17408  0.86951  0.55420  1.0000
  H   H606      1.0  0.19028  0.92160  0.58410  1.0000
  H   H607      1.0  0.12992  0.83100  0.55160  1.0000
  H   H608      1.0  0.19248  0.92234  0.52113  1.0000
  H   H609      1.0  0.20579  0.90481  0.57102  1.0000
  H   H610      1.0  0.17595  0.95118  0.56490  1.0000
  C   C509      1.0  0.10520  0.89297  0.49786  1.0000
  H   H611      1.0  0.13728  0.92129  0.54637  1.0000
  H   H612      1.0  0.22307  0.93846  0.53556  1.0000
  H   H613      1.0  0.00604  0.62165  0.49670  1.0000
  N   N36       1.0  0.18736  0.92274  0.55244  1.0000
  H   H614      1.0  0.22168  0.94021  0.57238  1.0000
  C   C510      1.0  0.18722  0.94892  0.55235  1.0000
  C   C511      1.0  0.20180  0.92223  0.57079  1.0000
  C   C512      1.0  0.16040  0.89959  0.55140  1.0000
  C   C513      1.0  0.15714  0.87321  0.55264  1.0000
  C   C514      1.0  0.13688  0.90226  0.54848  1.0000
  C   C515      1.0  0.13197  0.85100  0.55121  1.0000
  C   C516      1.0  0.11181  0.87989  0.54718  1.0000
  C   C517      1.0  0.10936  0.85434  0.54851  1.0000
  C   C518      1.0  0.20251  0.92149  0.53519  1.0000
  S   S136      1.0  0.99533  0.76166  0.51998  1.0000
  H   H615      1.0  0.06559  0.85937  0.49893  1.0000
  H   H616      1.0  0.02292  0.68026  0.50972  1.0000
  H   H617      1.0  0.13041  0.84034  0.50054  1.0000
  H   H618      1.0  0.04471  0.66657  0.50383  1.0000
  C   C519      1.0  0.03288  0.67568  0.49722  1.0000
  Fe  Fe71      1.0  0.02928  0.77855  0.49844  1.0000
  S   S137      1.0  0.07331  0.81123  0.50328  1.0000
  C   C520      1.0  0.12317  0.85491  0.49961  1.0000
  C   C521      1.0  0.14166  0.88233  0.49838  1.0000
  C   C522      1.0  0.09548  0.84613  0.49985  1.0000
  C   C523      1.0  0.08667  0.86548  0.49868  1.0000
  S   S138      1.0  0.15536  0.93715  0.49813  1.0000
  S   S139      1.0  0.23543  0.96141  0.49587  1.0000
  C   C524      1.0  0.13290  0.90177  0.49782  1.0000
  Fe  Fe72      1.0  0.19967  0.96888  0.49528  1.0000
  H   H619      1.0  0.09796  0.90758  0.49739  1.0000
  H   H620      1.0  0.16269  0.88834  0.49812  1.0000
  H   H621      1.0  0.98621  0.63695  0.50509  1.0000
  C   C525      1.0  0.01763  0.69436  0.91183  1.0000
  S   S140      1.0  0.15492  0.92687  0.97406  1.0000
  Fe  Fe73      1.0  0.98407  0.71369  0.97537  1.0000
  C   C526      1.0  0.10424  0.88379  0.97478  1.0000
  C   C527      1.0  0.01896  0.72333  0.88552  1.0000
  H   H622      1.0  0.99818  0.74320  0.92329  1.0000
  H   H623      1.0  0.01791  0.76596  0.90501  1.0000
  C   C528      1.0  0.13181  0.89212  0.97674  1.0000
  C   C529      1.0  0.33970  0.97924  0.99059  1.0000
  H   H624      1.0  0.30181  0.92798  0.98287  1.0000
  H   H625      1.0  0.04788  0.75600  0.95002  1.0000
  Fe  Fe74      1.0  0.19861  0.95868  0.98134  1.0000
  C   C530      1.0  0.00672  0.70115  0.87255  1.0000
  S   S141      1.0  0.23546  0.95405  0.98731  1.0000
  H   H626      1.0  0.99981  0.65244  0.90380  1.0000
  C   C531      1.0  0.01892  0.75755  0.91950  1.0000
  H   H627      1.0  0.01978  0.72388  0.94620  1.0000
  C   C532      1.0  0.12082  0.84527  0.98095  1.0000
  H   H628      1.0  0.06419  0.85083  0.97455  1.0000
  H   H629      1.0  0.02371  0.74262  0.87970  1.0000
  H   H630      1.0  0.07615  0.75396  0.91172  1.0000
  S   S142      1.0  0.98948  0.75359  0.96549  1.0000
  C   C533      1.0  0.99991  0.67570  0.87915  1.0000
  C   C534      1.0  0.08515  0.85661  0.97620  1.0000
  C   C535      1.0  0.03929  0.73784  0.94007  1.0000
  C   C536      1.0  0.00569  0.67238  0.89865  1.0000
  H   H631      1.0  0.06203  0.77117  0.89777  1.0000
  H   H632      1.0  0.07260  0.78121  0.92291  1.0000
  S   S143      1.0  0.07023  0.80190  0.97946  1.0000
  N   N37       1.0  0.03615  0.74428  0.91933  1.0000
  H   H633      1.0  0.02630  0.77457  0.93050  1.0000
  C   C537      1.0  0.06285  0.76346  0.91260  1.0000
  C   C538      1.0  0.02438  0.72059  0.90568  1.0000
  H   H634      1.0  0.02048  0.69003  0.92689  1.0000
  C   C539      1.0  0.09327  0.83699  0.97907  1.0000
  H   H635      1.0  0.05296  0.72881  0.94130  1.0000
  H   H636      1.0  0.16087  0.87836  0.98153  1.0000
  C   C540      1.0  0.29550  0.94318  0.98727  1.0000
  H   H637      1.0  0.09759  0.89855  0.97211  1.0000
  C   C541      1.0  0.13988  0.87255  0.98006  1.0000
  Fe  Fe75      1.0  0.02619  0.77287  0.98570  1.0000
  H   H638      1.0  0.12755  0.83048  0.98315  1.0000
  H   H639      1.0  0.98955  0.65839  0.86928  1.0000
  H   H640      1.0  0.29304  0.95255  0.97355  1.0000
  S   S144      1.0  0.02247  0.73264  0.99352  1.0000
  H   H641      1.0  0.34906  0.96674  0.98568  1.0000
  H   H642      1.0  0.00200  0.70355  0.85737  1.0000
  H   H643      1.0  0.33558  0.98784  0.97705  1.0000
  H   H644      1.0  0.27525  0.93257  0.99331  1.0000
  H   H645      1.0  0.30721  0.98662  0.79615  1.0000
  S   S145      1.0  0.74574  0.02682  0.00954  1.0000
  Fe  Fe76      1.0  0.96219  0.20270  0.00461  1.0000
  H   H646      1.0  0.92035  0.28366  0.14035  1.0000
  C   C542      1.0  0.89698  0.13473  0.01010  1.0000
  N   N38       1.0  0.66032  0.00948  0.02704  1.0000
  S   S146      1.0  0.92491  0.16667  0.01674  1.0000
  H   H647      1.0  0.70065  0.02525  0.03849  1.0000
  H   H648      1.0  0.87582  0.13443  0.03635  1.0000
  H   H649      1.0  0.93981  0.26782  0.11399  1.0000
  C   C543      1.0  0.85256  0.09890  0.01818  1.0000
  C   C544      1.0  0.68790  0.03152  0.02960  1.0000
  C   C545      1.0  0.95261  0.28229  0.12515  1.0000
  H   H650      1.0  0.68826  0.04947  0.03691  1.0000
  C   C546      1.0  0.87519  0.12371  0.02277  1.0000
  H   H651      1.0  0.83619  0.09093  0.02818  1.0000
  S   S147      1.0  0.95675  0.23965  0.00199  1.0000
  H   H652      1.0  0.67925  0.02634  0.06638  1.0000
  H   H653      1.0  0.64277  0.03523  0.02138  1.0000
  H   H654      1.0  0.62541  0.00278  0.00952  1.0000
  C   C547      1.0  0.98006  0.29222  0.12448  1.0000
  H   H655      1.0  0.69771  0.03781  0.01513  1.0000
  H   H656      1.0  0.94893  0.31700  0.16517  1.0000
  C   C548      1.0  0.95827  0.31017  0.15427  1.0000
  C   C549      1.0  0.94172  0.29124  0.14001  1.0000
  C   C550      1.0  0.64544  0.01896  0.01393  1.0000
  H   H657      1.0  0.97482  0.33006  0.19240  1.0000
  H   H658      1.0  0.67194  0.99273  0.00248  1.0000
  C   C551      1.0  0.85129  0.08436  0.00081  1.0000
  Fe  Fe77      1.0  0.78026  0.01992  0.00053  1.0000
  H   H659      1.0  0.65600  0.02672  0.99989  1.0000
  C   C552      1.0  0.65869  0.01146  0.06468  1.0000
  C   C553      1.0  0.64485  0.00250  0.08216  1.0000
  C   C554      1.0  0.64637  0.00057  0.04590  1.0000
  H   H660      1.0  0.88451  0.17852  0.00156  1.0000
  H   H661      1.0  0.98089  0.36321  0.16763  1.0000
  H   H662      1.0  0.65482  0.01045  0.09636  1.0000
  H   H663      1.0  0.84374  0.14421  0.99509  1.0000
  C   C555      1.0  0.88730  0.13837  0.48673  1.0000
  Fe  Fe78      1.0  0.95393  0.20576  0.48890  1.0000
  H   H664      1.0  0.82105  0.09420  0.47821  1.0000
  C   C556      1.0  0.66105  0.01384  0.44669  1.0000
  H   H665      1.0  0.67291  0.99920  0.49298  1.0000
  S   S148      1.0  0.91051  0.17264  0.48207  1.0000
  H   H666      1.0  0.68248  0.99211  0.46956  1.0000
  S   S149      1.0  0.74653  0.02824  0.48435  1.0000
  N   N39       1.0  0.66541  0.01897  0.46841  1.0000
  C   C557      1.0  0.66720  0.99595  0.47698  1.0000
  C   C558      1.0  0.69133  0.04322  0.47177  1.0000
  C   C559      1.0  0.64410  0.02257  0.47821  1.0000
  H   H667      1.0  0.67772  0.01171  0.43981  1.0000
  C   C560      1.0  0.86044  0.12828  0.48041  1.0000
  H   H668      1.0  0.65978  0.03054  0.43919  1.0000
  C   C561      1.0  0.84142  0.10139  0.48336  1.0000
  H   H669      1.0  0.70749  0.04185  0.46349  1.0000
  H   H670      1.0  0.69025  0.06138  0.46694  1.0000
  C   C562      1.0  0.60101  0.02302  0.47779  1.0000
  H   H671      1.0  0.85431  0.14138  0.47301  1.0000
  C   C563      1.0  0.62087  0.01982  0.46791  1.0000
  H   H672      1.0  0.64280  0.99482  0.44300  1.0000
  H   H673      1.0  0.61749  0.01506  0.45226  1.0000
  H   H674      1.0  0.58343  0.02079  0.46969  1.0000
  H   H675      1.0  0.69806  0.04647  0.48759  1.0000
  Fe  Fe79      1.0  0.78062  0.02028  0.49288  1.0000
  C   C564      1.0  0.84890  0.08380  0.49255  1.0000
  H   H676      1.0  0.81964  0.14560  0.56584  1.0000
  H   H677      1.0  0.74285  0.13280  0.63451  1.0000
  C   C565      1.0  0.57512  0.12291  0.68169  1.0000
  Fe  Fe80      1.0  0.90594  0.31905  0.62239  1.0000
  S   S150      1.0  0.86954  0.32128  0.61156  1.0000
  S   S151      1.0  0.93316  0.32696  0.59589  1.0000
  Fe  Fe81      1.0  0.88377  0.30751  0.66462  1.0000
  S   S152      1.0  0.84595  0.30879  0.65559  1.0000
  S   S153      1.0  0.88656  0.29115  0.69487  1.0000
  Fe  Fe82      1.0  0.84621  0.28490  0.62880  1.0000
  S   S154      1.0  0.81204  0.25109  0.61191  1.0000
  Fe  Fe83      1.0  0.87288  0.34559  0.63904  1.0000
  S   S155      1.0  0.86156  0.37907  0.63373  1.0000
  S   S156      1.0  0.88218  0.28113  0.63836  1.0000
  S   S157      1.0  0.91098  0.34574  0.64940  1.0000
  Fe  Fe84      1.0  0.66142  0.07306  0.63273  1.0000
  S   S158      1.0  0.67143  0.11460  0.62336  1.0000
  S   S159      1.0  0.67367  0.04479  0.61590  1.0000
  Fe  Fe85      1.0  0.64232  0.08197  0.67387  1.0000
  S   S160      1.0  0.65160  0.12374  0.66681  1.0000
  S   S161      1.0  0.62241  0.06989  0.70363  1.0000
  Fe  Fe86      1.0  0.63244  0.10707  0.63716  1.0000
  S   S162      1.0  0.60602  0.12511  0.62674  1.0000
  Fe  Fe87      1.0  0.68912  0.12731  0.65403  1.0000
  S   S163      1.0  0.72770  0.16206  0.66482  1.0000
  S   S164      1.0  0.62101  0.06457  0.64453  1.0000
  S   S165      1.0  0.68133  0.08653  0.66306  1.0000
  H   H678      1.0  0.50678  0.44994  0.71139  1.0000
  Fe  Fe88      1.0  0.72664  0.00664  0.51189  1.0000
  S   S166      1.0  0.70596  0.02816  0.52784  1.0000
  C   C566      1.0  0.57127  0.10977  0.63094  1.0000
  C   C567      1.0  0.55729  0.12468  0.62895  1.0000
  C   C568      1.0  0.52999  0.11349  0.63322  1.0000
  C   C569      1.0  0.51627  0.08706  0.63919  1.0000
  C   C570      1.0  0.53015  0.07202  0.64069  1.0000
  C   C571      1.0  0.55750  0.08333  0.63679  1.0000
  H   H679      1.0  0.56766  0.14512  0.62436  1.0000
  H   H680      1.0  0.51958  0.12530  0.63196  1.0000
  H   H681      1.0  0.51968  0.05149  0.64511  1.0000
  H   H682      1.0  0.56786  0.07150  0.63822  1.0000
  C   C572      1.0  0.68248  0.04059  0.59122  1.0000
  C   C573      1.0  0.69355  0.02321  0.58773  1.0000
  C   C574      1.0  0.70118  0.01939  0.56861  1.0000
  C   C575      1.0  0.69762  0.03273  0.55255  1.0000
  C   C576      1.0  0.68663  0.05020  0.55604  1.0000
  C   C577      1.0  0.67919  0.05418  0.57519  1.0000
  C   C578      1.0  0.80375  0.21937  0.71655  1.0000
  H   H683      1.0  0.68370  0.06064  0.54380  1.0000
  H   H684      1.0  0.67056  0.06747  0.57749  1.0000
  C   C579      1.0  0.78889  0.22586  0.62641  1.0000
  C   C580      1.0  0.79329  0.22609  0.64677  1.0000
  C   C581      1.0  0.77445  0.20610  0.65824  1.0000
  C   C582      1.0  0.75113  0.18579  0.64946  1.0000
  C   C583      1.0  0.74685  0.18524  0.62900  1.0000
  C   C584      1.0  0.76577  0.20528  0.61749  1.0000
  H   H685      1.0  0.81112  0.24183  0.65374  1.0000
  H   H686      1.0  0.77784  0.20667  0.67402  1.0000
  H   H687      1.0  0.72901  0.16956  0.62209  1.0000
  H   H688      1.0  0.76241  0.20503  0.60169  1.0000
  H   H689      1.0  0.59865  0.13377  0.71753  1.0000
  C   C585      1.0  0.90117  0.21980  0.54148  1.0000
  H   H690      1.0  0.48268  0.23857  0.63016  1.0000
  H   H691      1.0  0.55889  0.06269  0.70142  1.0000
  C   C586      1.0  0.96621  0.27485  0.56543  1.0000
  H   H692      1.0  0.73075  0.10711  0.58276  1.0000
  C   C587      1.0  0.94717  0.28565  0.59452  1.0000
  C   C588      1.0  0.94587  0.30654  0.58466  1.0000
  C   C589      1.0  0.95489  0.31149  0.56515  1.0000
  H   H693      1.0  0.48318  0.38487  0.67888  1.0000
  H   H694      1.0  0.84492  0.18738  0.58554  1.0000
  H   H695      1.0  0.70944  0.00579  0.56627  1.0000
  C   C590      1.0  0.78735  0.12916  0.58611  1.0000
  C   C591      1.0  0.52247  0.10707  0.73748  1.0000
  H   H696      1.0  0.53785  0.40363  0.66993  1.0000
  C   C592      1.0  0.57517  0.45803  0.63514  1.0000
  C   C593      1.0  0.55846  0.43020  0.63352  1.0000
  C   C594      1.0  0.53056  0.41950  0.63231  1.0000
  C   C595      1.0  0.51963  0.43716  0.63236  1.0000
  C   C596      1.0  0.53633  0.46499  0.63379  1.0000
  H   H697      1.0  0.59654  0.46585  0.63617  1.0000
  H   H698      1.0  0.56722  0.41681  0.63337  1.0000
  H   H699      1.0  0.56960  0.44475  0.67862  1.0000
  S   S167      1.0  0.97895  0.25445  0.55427  1.0000
  C   C597      1.0  0.87133  0.45533  0.63417  1.0000
  C   C598      1.0  0.86065  0.42730  0.63240  1.0000
  C   C599      1.0  0.87594  0.41445  0.63746  1.0000
  C   C600      1.0  0.90208  0.43009  0.64461  1.0000
  C   C601      1.0  0.91291  0.45816  0.64604  1.0000
  H   H700      1.0  0.76234  0.11652  0.64192  1.0000
  H   H701      1.0  0.84040  0.41549  0.62693  1.0000
  H   H702      1.0  0.91404  0.42068  0.64892  1.0000
  H   H703      1.0  0.88886  0.37743  0.59574  1.0000
  H   H704      1.0  0.87260  0.00654  0.52439  1.0000
  C   C602      1.0  0.64141  0.07724  0.72608  1.0000
  C   C603      1.0  0.66692  0.07928  0.72667  1.0000
  H   H705      1.0  0.83965  0.17650  0.52365  1.0000
  H   H706      1.0  0.67597  0.07776  0.71308  1.0000
  C   C604      1.0  0.89768  0.33210  0.72296  1.0000
  C   C605      1.0  0.89274  0.30578  0.71918  1.0000
  C   C606      1.0  0.59282  0.11353  0.71106  1.0000
  H   H707      1.0  0.89783  0.34429  0.71080  1.0000
  H   H708      1.0  0.51849  0.08788  0.68188  1.0000
  N   N40       1.0  0.67568  0.20192  0.63651  1.0000
  C   C607      1.0  0.68066  0.18011  0.62859  1.0000
  C   C608      1.0  0.66241  0.19384  0.65574  1.0000
  C   C609      1.0  0.65669  0.20477  0.62260  1.0000
  C   C610      1.0  0.70142  0.22645  0.63923  1.0000
  C   C611      1.0  0.72113  0.22712  0.65275  1.0000
  C   C612      1.0  0.70823  0.24972  0.62811  1.0000
  C   C613      1.0  0.74605  0.24953  0.65493  1.0000
  C   C614      1.0  0.73331  0.27200  0.63037  1.0000
  C   C615      1.0  0.75222  0.27185  0.64367  1.0000
  H   H709      1.0  0.69212  0.17452  0.63932  1.0000
  H   H710      1.0  0.66175  0.16170  0.62511  1.0000
  H   H711      1.0  0.69215  0.18597  0.61478  1.0000
  H   H712      1.0  0.67391  0.18824  0.66643  1.0000
  H   H713      1.0  0.64252  0.17594  0.65392  1.0000
  H   H714      1.0  0.65954  0.21026  0.66271  1.0000
  H   H715      1.0  0.66449  0.20890  0.60738  1.0000
  H   H716      1.0  0.63739  0.18604  0.62122  1.0000
  H   H717      1.0  0.65196  0.22087  0.62771  1.0000
  H   H718      1.0  0.71768  0.21005  0.66146  1.0000
  H   H719      1.0  0.69471  0.25116  0.61740  1.0000
  H   H720      1.0  0.76092  0.24941  0.66514  1.0000
  H   H721      1.0  0.73831  0.28947  0.62162  1.0000
  H   H722      1.0  0.77179  0.28899  0.64515  1.0000
  N   N41       1.0  0.86278  0.25301  0.56448  1.0000
  C   C616      1.0  0.87811  0.27981  0.55612  1.0000
  C   C617      1.0  0.83427  0.24661  0.56372  1.0000
  C   C618      1.0  0.87087  0.25446  0.58561  1.0000
  C   C619      1.0  0.86845  0.23339  0.55347  1.0000
  C   C620      1.0  0.89488  0.23711  0.55256  1.0000
  C   C621      1.0  0.84846  0.21068  0.54298  1.0000
  H   H723      1.0  0.64265  0.01498  0.73694  1.0000
  H   H724      1.0  0.87344  0.27952  0.54005  1.0000
  H   H725      1.0  0.87398  0.29506  0.56377  1.0000
  H   H726      1.0  0.89992  0.28730  0.55781  1.0000
  H   H727      1.0  0.82693  0.24596  0.54827  1.0000
  H   H728      1.0  0.83086  0.26195  0.57198  1.0000
  H   H729      1.0  0.82162  0.22733  0.57081  1.0000
  H   H730      1.0  0.89245  0.26097  0.58772  1.0000
  H   H731      1.0  0.86686  0.26911  0.59422  1.0000
  H   H732      1.0  0.85987  0.23490  0.59265  1.0000
  H   H733      1.0  0.91106  0.25377  0.56018  1.0000
  H   H734      1.0  0.82774  0.20598  0.54286  1.0000
  H   H735      1.0  0.58061  0.07837  0.68147  1.0000
  H   H736      1.0  0.54612  0.06913  0.67892  1.0000
  H   H737      1.0  0.83608  0.25280  0.73054  1.0000
  C   C622      1.0  0.56327  0.07742  0.68959  1.0000
  C   C623      1.0  0.88129  0.19810  0.53103  1.0000
  C   C624      1.0  0.56097  0.45536  0.68665  1.0000
  C   C625      1.0  0.81560  0.17675  0.60805  1.0000
  H   H738      1.0  0.82636  0.19544  0.61645  1.0000
  C   C626      1.0  0.49798  0.09230  0.70641  1.0000
  H   H739      1.0  0.86407  0.99531  0.49871  1.0000
  H   H740      1.0  0.90663  0.36208  0.58442  1.0000
  H   H741      1.0  0.69614  0.01247  0.59993  1.0000
  H   H742      1.0  0.70952  0.09724  0.60351  1.0000
  H   H743      1.0  0.91892  0.39303  0.62410  1.0000
  H   H744      1.0  0.50078  0.41589  0.66713  1.0000
  S   S168      1.0  0.76145  0.00003  0.52106  1.0000
  H   H745      1.0  0.60096  0.01243  0.72330  1.0000
  H   H746      1.0  0.93332  0.47007  0.65113  1.0000
  H   H747      1.0  0.77681  0.11147  0.57676  1.0000
  C   C627      1.0  0.82238  0.99288  0.53476  1.0000
  H   H748      1.0  0.55855  0.11651  0.67060  1.0000
  C   C628      1.0  0.85497  0.19342  0.53191  1.0000
  H   H749      1.0  0.59270  0.12481  0.67341  1.0000
  C   C629      1.0  0.54517  0.10839  0.72861  1.0000
  N   N42       1.0  0.51910  0.41285  0.69432  1.0000
  C   C630      1.0  0.95509  0.45252  0.60161  1.0000
  H   H750      1.0  0.51985  0.37636  0.68511  1.0000
  H   H751      1.0  0.72722  0.09784  0.63699  1.0000
  H   H752      1.0  0.89139  0.45962  0.59140  1.0000
  C   C631      1.0  0.54488  0.10183  0.70816  1.0000
  H   H753      1.0  0.73166  0.06882  0.61579  1.0000
  C   C632      1.0  0.85743  0.00167  0.51228  1.0000
  H   H754      1.0  0.55126  0.40253  0.69416  1.0000
  C   C633      1.0  0.72948  0.11199  0.59859  1.0000
  C   C634      1.0  0.90841  0.43257  0.59190  1.0000
  C   C635      1.0  0.81170  0.14878  0.57956  1.0000
  H   H755      1.0  0.56267  0.11478  0.73805  1.0000
  H   H756      1.0  0.91512  0.12806  0.50117  1.0000
  C   C636      1.0  0.89770  0.47102  0.64076  1.0000
  H   H757      1.0  0.95879  0.25431  0.59293  1.0000
  C   C637      1.0  0.77681  0.13237  0.60429  1.0000
  H   H758      1.0  0.94063  0.28170  0.60958  1.0000
  H   H759      1.0  0.74492  0.17877  0.73697  1.0000
  H   H760      1.0  0.81435  0.22171  0.70292  1.0000
  H   H761      1.0  0.62795  0.03588  0.52439  1.0000
  H   H762      1.0  0.73030  0.13202  0.59943  1.0000
  H   H763      1.0  0.76729  0.08425  0.61558  1.0000
  C   C638      1.0  0.81598  0.23730  0.73249  1.0000
  H   H764      1.0  0.88947  0.27011  0.73243  1.0000
  H   H765      1.0  0.49827  0.42937  0.63123  1.0000
  H   H766      1.0  0.49638  0.40851  0.72071  1.0000
  C   C639      1.0  0.54100  0.48641  0.70549  1.0000
  H   H767      1.0  0.93605  0.37594  0.61383  1.0000
  S   S169      1.0  0.82604  0.04907  0.49608  1.0000
  C   C640      1.0  0.74583  0.11493  0.63198  1.0000
  C   C641      1.0  0.49901  0.09924  0.72637  1.0000
  C   C642      1.0  0.93145  0.42929  0.59562  1.0000
  C   C643      1.0  0.89284  0.29034  0.73522  1.0000
  C   C644      1.0  0.79142  0.15711  0.61487  1.0000
  C   C645      1.0  0.82591  0.17242  0.59059  1.0000
  H   H768      1.0  0.58995  0.09951  0.72317  1.0000
  C   C646      1.0  0.90935  0.45765  0.59361  1.0000
  C   C647      1.0  0.96462  0.29555  0.55549  1.0000
  N   N43       1.0  0.75094  0.11137  0.61092  1.0000
  C   C648      1.0  0.52621  0.45857  0.70499  1.0000
  H   H769      1.0  0.74753  0.07748  0.59300  1.0000
  H   H770      1.0  0.61026  0.11492  0.70282  1.0000
  H   H771      1.0  0.85725  0.02073  0.50855  1.0000
  C   C649      1.0  0.74949  0.08451  0.60869  1.0000
  C   C650      1.0  0.52045  0.09343  0.69744  1.0000
  H   H772      1.0  0.57922  0.14308  0.68735  1.0000
  H   H773      1.0  0.49939  0.37991  0.71376  1.0000
  N   N44       1.0  0.56868  0.10393  0.69799  1.0000
  C   C651      1.0  0.62602  0.03156  0.50857  1.0000
  H   H774      1.0  0.76871  0.18442  0.70581  1.0000
  S   S170      1.0  0.51046  0.38408  0.63115  1.0000
  H   H775      1.0  0.78458  0.16187  0.62846  1.0000
  C   C652      1.0  0.90580  0.38132  0.58592  1.0000
  H   H776      1.0  0.88917  0.41599  0.58830  1.0000
  C   C653      1.0  0.93535  0.39528  0.61429  1.0000
  C   C654      1.0  0.77814  0.19843  0.71815  1.0000
  H   H777      1.0  0.92170  0.22346  0.54079  1.0000
  H   H778      1.0  0.97309  0.45147  0.60548  1.0000
  H   H779      1.0  0.52758  0.47837  0.63379  1.0000
  H   H780      1.0  0.90112  0.38613  0.57098  1.0000
  H   H781      1.0  0.85938  0.46483  0.62997  1.0000
  S   S171      1.0  0.98053  0.20571  0.51394  1.0000
  C   C655      1.0  0.57549  0.48319  0.68716  1.0000
  C   C656      1.0  0.56419  0.47564  0.63524  1.0000
  C   C657      1.0  0.51047  0.40214  0.71426  1.0000
  C   C658      1.0  0.49523  0.40665  0.68175  1.0000
  C   C659      1.0  0.95753  0.27015  0.58503  1.0000
  H   H782      1.0  0.95421  0.32768  0.55736  1.0000
  H   H783      1.0  0.88639  0.18504  0.52210  1.0000
  H   H784      1.0  0.82387  0.01262  0.53090  1.0000
  C   C660      1.0  0.53280  0.39838  0.68559  1.0000
  C   C661      1.0  0.53580  0.44216  0.69561  1.0000
  H   H785      1.0  0.63740  0.47433  0.58209  1.0000
  H   H786      1.0  0.59612  0.47216  0.59537  1.0000
  N   N45       1.0  0.93118  0.40300  0.59426  1.0000
  C   C662      1.0  0.87573  0.09391  0.49895  1.0000
  H   H787      1.0  0.52780  0.40834  0.72470  1.0000
  C   C663      1.0  0.76472  0.19532  0.73573  1.0000
  H   H788      1.0  0.95139  0.41176  0.56665  1.0000
  C   C664      1.0  0.64598  0.02847  0.49884  1.0000
  H   H789      1.0  0.66286  0.03049  0.50770  1.0000
  H   H790      1.0  0.95204  0.38440  0.57940  1.0000
  H   H791      1.0  0.97135  0.29955  0.54047  1.0000
  C   C665      1.0  0.89469  0.12088  0.49619  1.0000
  H   H792      1.0  0.88201  0.08076  0.50607  1.0000
  H   H793      1.0  0.81276  0.99411  0.49563  1.0000
  C   C666      1.0  0.93292  0.48003  0.59933  1.0000
  C   C667      1.0  0.95281  0.40436  0.58151  1.0000
  H   H794      1.0  0.58809  0.03120  0.50568  1.0000
  C   C668      1.0  0.60404  0.01296  0.73922  1.0000
  C   C669      1.0  0.95572  0.47747  0.60340  1.0000
  C   C670      1.0  0.90306  0.34288  0.74250  1.0000
  H   H795      1.0  0.83491  0.99589  0.54832  1.0000
  H   H796      1.0  0.95426  0.41023  0.62154  1.0000
  H   H797      1.0  0.61011  0.07728  0.74368  1.0000
  C   C671      1.0  0.62988  0.07907  0.74393  1.0000
  S   S172      1.0  0.95825  0.24678  0.49700  1.0000
  C   C672      1.0  0.60358  0.02888  0.49806  1.0000
  H   H798      1.0  0.97290  0.41755  0.58800  1.0000
  H   H799      1.0  0.59456  0.45293  0.83592  1.0000
  H   H800      1.0  0.87766  0.39087  0.89756  1.0000
  H   H801      1.0  0.89685  0.21200  0.99429  1.0000
  H   H802      1.0  0.92336  0.20272  0.97134  1.0000
  H   H803      1.0  0.88147  0.19984  0.94161  1.0000
  H   H804      1.0  0.81062  0.09938  0.98589  1.0000
  H   H805      1.0  0.56068  0.40610  0.82817  1.0000
  Fe  Fe89      1.0  0.86884  0.33809  0.84576  1.0000
  S   S173      1.0  0.91159  0.35080  0.83984  1.0000
  S   S174      1.0  0.85245  0.36679  0.85416  1.0000
  Fe  Fe90      1.0  0.85310  0.27961  0.83515  1.0000
  S   S175      1.0  0.89531  0.28900  0.82831  1.0000
  S   S176      1.0  0.82279  0.23666  0.82795  1.0000
  Fe  Fe91      1.0  0.90622  0.31432  0.85651  1.0000
  S   S177      1.0  0.93814  0.32033  0.88048  1.0000
  Fe  Fe92      1.0  0.89635  0.32409  0.81243  1.0000
  S   S178      1.0  0.91200  0.34247  0.78265  1.0000
  S   S179      1.0  0.86386  0.30306  0.86407  1.0000
  S   S180      1.0  0.85377  0.31321  0.81769  1.0000
  Fe  Fe93      1.0  0.67110  0.08921  0.81590  1.0000
  S   S181      1.0  0.65273  0.11587  0.82229  1.0000
  S   S182      1.0  0.68482  0.08365  0.78555  1.0000
  Fe  Fe94      1.0  0.67250  0.07584  0.86036  1.0000
  S   S183      1.0  0.65307  0.10127  0.86949  1.0000
  S   S184      1.0  0.69400  0.05722  0.87876  1.0000
  Fe  Fe95      1.0  0.62602  0.08362  0.84235  1.0000
  S   S185      1.0  0.58211  0.06932  0.83421  1.0000
  Fe  Fe96      1.0  0.68108  0.13122  0.84844  1.0000
  S   S186      1.0  0.70400  0.17517  0.85725  1.0000
  S   S187      1.0  0.64344  0.05589  0.83465  1.0000
  S   S188      1.0  0.70161  0.10698  0.84065  1.0000
  C   C673      1.0  0.66848  0.08313  0.76284  1.0000
  H   H806      1.0  0.87950  0.46580  0.81660  1.0000
  S   S189      1.0  0.97887  0.20601  0.97415  1.0000
  H   H807      1.0  0.63442  0.08343  0.77586  1.0000
  H   H808      1.0  0.96390  0.43880  0.78206  1.0000
  C   C674      1.0  0.90308  0.32739  0.75853  1.0000
  H   H809      1.0  0.85871  0.20226  0.95882  1.0000
  S   S190      1.0  0.94959  0.24295  0.94402  1.0000
  H   H810      1.0  0.56282  0.20267  0.85585  1.0000
  N   N46       1.0  0.56964  0.01768  0.78596  1.0000
  C   C675      1.0  0.78961  0.22080  0.83582  1.0000
  C   C676      1.0  0.78010  0.23263  0.84978  1.0000
  C   C677      1.0  0.75368  0.21869  0.85605  1.0000
  C   C678      1.0  0.73662  0.19294  0.84837  1.0000
  C   C679      1.0  0.74609  0.18138  0.83420  1.0000
  C   C680      1.0  0.77246  0.19520  0.82803  1.0000
  H   H811      1.0  0.79313  0.25240  0.85583  1.0000
  H   H812      1.0  0.74647  0.22783  0.86696  1.0000
  H   H813      1.0  0.73308  0.16181  0.82790  1.0000
  H   H814      1.0  0.77961  0.18595  0.81716  1.0000
  C   C681      1.0  0.94020  0.29871  0.89863  1.0000
  C   C682      1.0  0.92148  0.27177  0.89944  1.0000
  C   C683      1.0  0.92458  0.25526  0.91358  1.0000
  C   C684      1.0  0.94627  0.26538  0.92725  1.0000
  C   C685      1.0  0.96479  0.29241  0.92664  1.0000
  C   C686      1.0  0.96180  0.30887  0.91239  1.0000
  H   H815      1.0  0.90484  0.26354  0.88896  1.0000
  H   H816      1.0  0.96930  0.28439  0.86318  1.0000
  H   H817      1.0  0.59413  0.12888  0.83223  1.0000
  H   H818      1.0  0.53682  0.45230  0.81519  1.0000
  H   H819      1.0  0.96581  0.40977  0.88651  1.0000
  H   H820      1.0  0.88734  0.35760  0.90545  1.0000
  C   C687      1.0  0.69636  0.02659  0.94147  1.0000
  C   C688      1.0  0.67634  0.03350  0.93602  1.0000
  C   C689      1.0  0.67547  0.04328  0.91709  1.0000
  C   C690      1.0  0.69445  0.04592  0.90319  1.0000
  C   C691      1.0  0.71468  0.03932  0.90873  1.0000
  C   C692      1.0  0.71574  0.02986  0.92775  1.0000
  H   H821      1.0  0.87781  0.42499  0.80871  1.0000
  H   H822      1.0  0.65985  0.04833  0.91316  1.0000
  H   H823      1.0  0.89260  0.46559  0.76249  1.0000
  C   C693      1.0  0.51362  0.07837  0.86315  1.0000
  C   C694      1.0  0.51315  0.07314  0.84282  1.0000
  C   C695      1.0  0.53443  0.07073  0.83425  1.0000
  C   C696      1.0  0.55673  0.07418  0.84576  1.0000
  C   C697      1.0  0.55760  0.08023  0.86598  1.0000
  C   C698      1.0  0.53601  0.08202  0.87465  1.0000
  H   H824      1.0  0.96946  0.22486  0.90054  1.0000
  H   H825      1.0  0.53350  0.06604  0.81861  1.0000
  H   H826      1.0  0.57455  0.08283  0.87504  1.0000
  H   H827      1.0  0.53656  0.08599  0.89039  1.0000
  C   C699      1.0  0.89492  0.45882  0.85558  1.0000
  C   C700      1.0  0.86722  0.44449  0.85651  1.0000
  C   C701      1.0  0.85449  0.41635  0.85558  1.0000
  C   C702      1.0  0.86917  0.40220  0.85328  1.0000
  C   C703      1.0  0.89675  0.41657  0.85150  1.0000
  C   C704      1.0  0.90956  0.44470  0.85286  1.0000
  H   H828      1.0  0.85568  0.45505  0.85870  1.0000
  H   H829      1.0  0.83314  0.40545  0.85701  1.0000
  H   H830      1.0  0.90824  0.40600  0.84945  1.0000
  H   H831      1.0  0.93098  0.45557  0.85207  1.0000
  C   C705      1.0  0.56825  0.46226  0.85312  1.0000
  C   C706      1.0  0.54224  0.45210  0.86018  1.0000
  C   C707      1.0  0.52285  0.42559  0.85559  1.0000
  C   C708      1.0  0.52939  0.40873  0.84414  1.0000
  C   C709      1.0  0.55538  0.41897  0.83701  1.0000
  C   C710      1.0  0.57464  0.44558  0.84134  1.0000
  S   S191      1.0  0.50627  0.37479  0.83839  1.0000
  H   H832      1.0  0.50300  0.41805  0.86119  1.0000
  N   N47       1.0  0.92650  0.38868  0.89874  1.0000
  C   C711      1.0  0.90220  0.36339  0.89361  1.0000
  C   C712      1.0  0.94568  0.39336  0.88276  1.0000
  C   C713      1.0  0.93802  0.38475  0.91743  1.0000
  C   C714      1.0  0.92134  0.41194  0.90112  1.0000
  C   C715      1.0  0.58932  0.01575  0.77278  1.0000
  C   C716      1.0  0.89531  0.40968  0.90025  1.0000
  C   C717      1.0  0.94516  0.43624  0.78780  1.0000
  C   C718      1.0  0.89131  0.43222  0.90186  1.0000
  C   C719      1.0  0.88070  0.19138  0.99109  1.0000
  H   H833      1.0  0.89267  0.36497  0.87954  1.0000
  H   H834      1.0  0.90674  0.34637  0.89150  1.0000
  H   H835      1.0  0.83666  0.29676  0.77326  1.0000
  H   H836      1.0  0.55112  0.16218  0.90031  1.0000
  H   H837      1.0  0.87139  0.43015  0.90033  1.0000
  C   C720      1.0  0.83832  0.24958  0.77511  1.0000
  H   H838      1.0  0.48669  0.43233  0.75124  1.0000
  H   H839      1.0  0.91224  0.12781  0.98289  1.0000
  C   C721      1.0  0.91376  0.45399  0.79412  1.0000
  H   H840      1.0  0.86161  0.19121  0.99477  1.0000
  H   H841      1.0  0.55725  0.04713  0.79422  1.0000
  H   H842      1.0  0.84961  0.26398  0.78744  1.0000
  N   N48       1.0  0.81624  0.25408  0.76733  1.0000
  H   H843      1.0  0.59226  0.02910  0.81361  1.0000
  Fe  Fe97      1.0  0.97402  0.24329  0.97181  1.0000
  H   H844      1.0  0.80557  0.08214  0.95157  1.0000
  C   C722      1.0  0.62762  0.01448  0.74686  1.0000
  H   H845      1.0  0.53114  0.15871  0.83864  1.0000
  H   H846      1.0  0.50749  0.15426  0.85724  1.0000
  H   H847      1.0  0.76524  0.20938  0.76497  1.0000
  H   H848      1.0  0.53702  0.46475  0.86933  1.0000
  C   C723      1.0  0.68024  0.08194  0.74497  1.0000
  N   N49       1.0  0.54684  0.16395  0.86861  1.0000
  H   H849      1.0  0.89878  0.28919  0.76684  1.0000
  H   H850      1.0  0.86799  0.15667  0.93387  1.0000
  C   C724      1.0  0.61707  0.15544  0.85617  1.0000
  H   H851      1.0  0.49606  0.07027  0.83380  1.0000
  Fe  Fe98      1.0  0.72390  0.00184  0.98257  1.0000
  C   C725      1.0  0.96750  0.25253  0.88096  1.0000
  H   H852      1.0  0.91019  0.23439  0.91373  1.0000
  N   N50       1.0  0.76109  0.14427  0.88757  1.0000
  C   C726      1.0  0.73429  0.14263  0.88594  1.0000
  C   C727      1.0  0.78064  0.17138  0.88157  1.0000
  C   C728      1.0  0.76231  0.12472  0.87322  1.0000
  C   C729      1.0  0.76580  0.13787  0.90790  1.0000
  C   C730      1.0  0.78736  0.15583  0.92040  1.0000
  C   C731      1.0  0.74837  0.11290  0.91580  1.0000
  C   C732      1.0  0.79086  0.14902  0.93962  1.0000
  C   C733      1.0  0.75200  0.10630  0.93500  1.0000
  C   C734      1.0  0.77315  0.12437  0.94692  1.0000
  H   H853      1.0  0.71799  0.12217  0.88818  1.0000
  H   H854      1.0  0.73205  0.15645  0.89677  1.0000
  H   H855      1.0  0.73050  0.14809  0.87101  1.0000
  H   H856      1.0  0.80124  0.17384  0.88161  1.0000
  H   H857      1.0  0.77995  0.18723  0.89118  1.0000
  H   H858      1.0  0.77639  0.17546  0.86623  1.0000
  H   H859      1.0  0.74628  0.10406  0.87531  1.0000
  H   H860      1.0  0.75978  0.12950  0.85767  1.0000
  H   H861      1.0  0.78167  0.12432  0.87454  1.0000
  H   H862      1.0  0.80164  0.17530  0.91572  1.0000
  H   H863      1.0  0.73163  0.09831  0.90713  1.0000
  H   H864      1.0  0.80731  0.16293  0.94898  1.0000
  H   H865      1.0  0.73819  0.08708  0.94065  1.0000
  H   H866      1.0  0.77579  0.11920  0.96184  1.0000
  C   C735      1.0  0.85895  0.15565  0.96518  1.0000
  H   H867      1.0  0.86419  0.45214  0.79250  1.0000
  S   S192      1.0  0.48667  0.08023  0.87480  1.0000
  H   H868      1.0  0.90933  0.17974  0.95095  1.0000
  C   C736      1.0  0.59427  0.17410  0.87602  1.0000
  H   H869      1.0  0.51707  0.12886  0.85304  1.0000
  H   H870      1.0  0.94180  0.36710  0.91619  1.0000
  C   C737      1.0  0.81989  0.10268  0.95515  1.0000
  H   H871      1.0  0.53203  0.13056  0.88776  1.0000
  C   C738      1.0  0.82729  0.28203  0.76074  1.0000
  H   H872      1.0  0.93871  0.39844  0.86879  1.0000
  H   H873      1.0  0.80889  0.26636  0.79607  1.0000
  H   H874      1.0  0.52788  0.47446  0.75538  1.0000
  C   C739      1.0  0.94281  0.43799  0.90435  1.0000
  C   C740      1.0  0.91288  0.45754  0.90432  1.0000
  H   H875      1.0  0.53560  0.19544  0.87196  1.0000
  H   H876      1.0  0.55769  0.01288  0.81650  1.0000
  H   H877      1.0  0.59513  0.18636  0.88872  1.0000
  H   H878      1.0  0.83075  0.22917  0.78100  1.0000
  C   C741      1.0  0.64350  0.08235  0.76221  1.0000
  H   H879      1.0  0.89407  0.22342  0.96149  1.0000
  H   H880      1.0  0.49662  0.41063  0.80986  1.0000
  H   H881      1.0  0.92433  0.38143  0.92987  1.0000
  H   H882      1.0  0.81154  0.28581  0.75376  1.0000
  C   C742      1.0  0.87842  0.20277  0.95746  1.0000
  C   C743      1.0  0.57356  0.01289  0.80700  1.0000
  H   H883      1.0  0.72950  0.04127  0.89814  1.0000
  N   N51       1.0  0.90686  0.47614  0.79268  1.0000
  H   H884      1.0  0.56920  0.04973  0.76944  1.0000
  C   C744      1.0  0.84193  0.13851  0.97960  1.0000
  H   H885      1.0  0.73125  0.02463  0.93161  1.0000
  H   H886      1.0  0.58007  0.48445  0.81249  1.0000
  C   C745      1.0  0.61381  0.01765  0.78005  1.0000
  H   H887      1.0  0.76048  0.48083  0.78829  1.0000
  C   C746      1.0  0.90676  0.48317  0.77167  1.0000
  C   C747      1.0  0.93833  0.45696  0.78694  1.0000
  H   H888      1.0  0.56756  0.20362  0.88225  1.0000
  H   H889      1.0  0.90865  0.16785  0.97542  1.0000
  C   C748      1.0  0.89664  0.42907  0.80244  1.0000
  H   H890      1.0  0.94841  0.37541  0.87951  1.0000
  C   C749      1.0  0.50355  0.42494  0.79811  1.0000
  H   H891      1.0  0.61948  0.02066  0.79555  1.0000
  H   H892      1.0  0.97651  0.32962  0.91191  1.0000
  C   C750      1.0  0.53640  0.46817  0.78585  1.0000
  C   C751      1.0  0.89789  0.30101  0.75477  1.0000
  C   C752      1.0  0.55361  0.19265  0.86974  1.0000
  H   H893      1.0  0.59204  0.06021  0.79028  1.0000
  H   H894      1.0  0.95527  0.48022  0.90744  1.0000
  C   C753      1.0  0.90650  0.18321  0.96676  1.0000
  H   H895      1.0  0.89031  0.38955  0.80949  1.0000
  C   C754      1.0  0.52484  0.15089  0.85365  1.0000
  C   C755      1.0  0.57074  0.16088  0.86401  1.0000
  H   H896      1.0  0.96310  0.44127  0.90550  1.0000
  C   C756      1.0  0.90367  0.40845  0.80315  1.0000
  S   S193      1.0  0.75852  0.99609  0.97276  1.0000
  H   H897      1.0  0.93321  0.39601  0.79649  1.0000
  C   C757      1.0  0.63252  0.01690  0.76721  1.0000
  H   H898      1.0  0.83402  0.11112  0.92561  1.0000
  C   C758      1.0  0.87309  0.09536  0.98815  1.0000
  C   C759      1.0  0.58525  0.01386  0.75190  1.0000
  C   C760      1.0  0.92786  0.41205  0.79588  1.0000
  C   C761      1.0  0.57130  0.14437  0.84808  1.0000
  C   C762      1.0  0.93857  0.46041  0.90571  1.0000
  H   H899      1.0  0.58563  0.47781  0.77700  1.0000
  H   H900      1.0  0.78096  0.25383  0.77902  1.0000
  H   H901      1.0  0.65153  0.01952  0.77304  1.0000
  C   C763      1.0  0.61708  0.17148  0.87204  1.0000
  C   C764      1.0  0.88032  0.46969  0.80049  1.0000
  N   N52       1.0  0.88060  0.18274  0.97018  1.0000
  C   C765      1.0  0.79841  0.25128  0.78395  1.0000
  H   H902      1.0  0.55418  0.13275  0.83853  1.0000
  H   H903      1.0  0.63474  0.15331  0.85320  1.0000
  H   H904      1.0  0.94710  0.23914  0.87644  1.0000
  H   H905      1.0  0.85278  0.25170  0.76353  1.0000
  C   C766      1.0  0.53662  0.15196  0.88792  1.0000
  C   C767      1.0  0.77671  0.21323  0.75176  1.0000
  H   H906      1.0  0.95733  0.40223  0.92164  1.0000
  C   C768      1.0  0.80271  0.23505  0.75054  1.0000
  C   C769      1.0  0.85531  0.14510  0.94550  1.0000
  S   S194      1.0  0.69548  0.01312  0.96529  1.0000
  H   H907      1.0  0.51786  0.15265  0.89153  1.0000
  C   C770      1.0  0.52680  0.44911  0.80097  1.0000
  H   H908      1.0  0.66123  0.03113  0.94646  1.0000
  C   C771      1.0  0.83602  0.11901  0.94062  1.0000
  H   H909      1.0  0.79128  0.23164  0.79105  1.0000
  H   H910      1.0  0.63488  0.18179  0.88134  1.0000
  C   C772      1.0  0.59423  0.14187  0.84427  1.0000
  H   H911      1.0  0.90969  0.47502  0.90464  1.0000
  C   C773      1.0  0.57203  0.04481  0.78483  1.0000
  H   H912      1.0  0.87559  0.48656  0.79878  1.0000
  H   H913      1.0  0.52728  0.99718  0.79074  1.0000
  H   H914      1.0  0.52304  0.11236  0.75304  1.0000
  C   C774      1.0  0.52154  0.46121  0.76766  1.0000
  H   H915      1.0  0.87256  0.08447  0.97470  1.0000
  C   C775      1.0  0.82266  0.11251  0.97452  1.0000
  H   H916      1.0  0.79757  0.47451  0.77298  1.0000
  H   H917      1.0  0.95241  0.47536  0.78055  1.0000
  C   C776      1.0  0.48914  0.41904  0.78027  1.0000
  S   S195      1.0  0.82289  0.05301  0.99380  1.0000
  C   C777      1.0  0.54208  0.99785  0.77984  1.0000
  H   H918      1.0  0.84329  0.28714  0.74991  1.0000
  C   C778      1.0  0.89567  0.12019  0.99272  1.0000
  C   C779      1.0  0.49813  0.43709  0.76504  1.0000
  H   H919      1.0  0.53549  0.00262  0.76561  1.0000
  H   H920      1.0  0.69958  0.08255  0.74531  1.0000
  H   H921      1.0  0.90747  0.36344  0.74518  1.0000
  H   H922      1.0  0.57381  0.99349  0.80866  1.0000
  C   C780      1.0  0.97999  0.27804  0.87344  1.0000
  H   H923      1.0  0.98161  0.30059  0.93695  1.0000
  C   C781      1.0  0.98072  0.24457  0.89487  1.0000
  H   H924      1.0  0.56806  0.01407  0.74508  1.0000
  H   H925      1.0  0.51868  0.69450  0.11797  1.0000
  H   H926      1.0  0.65861  0.77474  0.18188  1.0000
  S   S196      1.0  0.76242  0.76704  0.01892  1.0000
  C   C782      1.0  0.59777  0.75957  0.18634  1.0000
  H   H927      1.0  0.64292  0.69521  0.19492  1.0000
  S   S197      1.0  0.81357  0.73928  0.01090  1.0000
  Fe  Fe99      1.0  0.72054  0.73405  0.01430  1.0000
  S   S198      1.0  0.68778  0.72755  0.03685  1.0000
  Fe  Fe100     1.0  0.53063  0.90175  0.14985  1.0000
  S   S199      1.0  0.57482  0.93011  0.14916  1.0000
  C   C783      1.0  0.60611  0.97104  0.06344  1.0000
  Fe  Fe101     1.0  0.54064  0.85320  0.14913  1.0000
  S   S200      1.0  0.58495  0.87757  0.14836  1.0000
  S   S201      1.0  0.52047  0.80877  0.15395  1.0000
  Fe  Fe102     1.0  0.57900  0.90319  0.17160  1.0000
  S   S202      1.0  0.60774  0.91778  0.19810  1.0000
  Fe  Fe103     1.0  0.57746  0.90233  0.12582  1.0000
  S   S203      1.0  0.59824  0.91185  0.09560  1.0000
  S   S204      1.0  0.53536  0.87725  0.17385  1.0000
  S   S205      1.0  0.53264  0.87561  0.12503  1.0000
  Fe  Fe104     1.0  0.57435  0.67487  0.16911  1.0000
  S   S206      1.0  0.53927  0.67841  0.15683  1.0000
  S   S207      1.0  0.58532  0.68940  0.20136  1.0000
  Fe  Fe105     1.0  0.58858  0.66281  0.12721  1.0000
  S   S208      1.0  0.55336  0.66432  0.11280  1.0000
  S   S209      1.0  0.62019  0.65795  0.10917  1.0000
  Fe  Fe106     1.0  0.56533  0.70091  0.13226  1.0000
  S   S210      1.0  0.57178  0.73953  0.11875  1.0000
  Fe  Fe107     1.0  0.53002  0.64105  0.13872  1.0000
  C   C784      1.0  0.92092  0.81898  0.00852  1.0000
  S   S211      1.0  0.60132  0.70040  0.14557  1.0000
  S   S212      1.0  0.56436  0.63647  0.15215  1.0000
  H   H928      1.0  0.57332  0.83100  0.17289  1.0000
  C   C785      1.0  0.67448  0.79304  0.04219  1.0000
  Fe  Fe108     1.0  0.77628  0.74270  0.00001  1.0000
  C   C786      1.0  0.71534  0.80223  0.02618  1.0000
  H   H929      1.0  0.59709  0.74041  0.18313  1.0000
  C   C787      1.0  0.57855  0.67237  0.22403  1.0000
  C   C788      1.0  0.59919  0.84238  0.21966  1.0000
  C   C789      1.0  0.94951  0.65359  0.03086  1.0000
  C   C790      1.0  0.48777  0.61833  0.22470  1.0000
  H   H930      1.0  0.70975  0.78066  0.02570  1.0000
  C   C791      1.0  0.60434  0.91544  0.22413  1.0000
  C   C792      1.0  0.56995  0.64490  0.22489  1.0000
  H   H931      1.0  0.49969  0.68110  0.09513  1.0000
  H   H932      1.0  0.56250  0.88771  0.22483  1.0000
  C   C793      1.0  0.65011  0.73535  0.19046  1.0000
  C   C794      1.0  0.63072  0.93056  0.08559  1.0000
  C   C795      1.0  0.63432  0.92689  0.06539  1.0000
  C   C796      1.0  0.65901  0.94213  0.05640  1.0000
  C   C797      1.0  0.68054  0.96193  0.06735  1.0000
  C   C798      1.0  0.67708  0.96528  0.08763  1.0000
  C   C799      1.0  0.65252  0.94964  0.09673  1.0000
  H   H933      1.0  0.61777  0.91213  0.05659  1.0000
  H   H934      1.0  0.66124  0.93858  0.04097  1.0000
  C   C800      1.0  0.85587  0.85629  0.00289  1.0000
  H   H935      1.0  0.65027  0.95285  0.11224  1.0000
  C   C801      1.0  0.53660  0.79070  0.14530  1.0000
  C   C802      1.0  0.55528  0.80060  0.13045  1.0000
  C   C803      1.0  0.56624  0.78484  0.12260  1.0000
  C   C804      1.0  0.55903  0.75942  0.12986  1.0000
  C   C805      1.0  0.54145  0.75012  0.14543  1.0000
  C   C806      1.0  0.52993  0.76557  0.15294  1.0000
  H   H936      1.0  0.56049  0.81995  0.12448  1.0000
  H   H937      1.0  0.58001  0.79220  0.11064  1.0000
  H   H938      1.0  0.53654  0.73096  0.15150  1.0000
  H   H939      1.0  0.51571  0.75800  0.16458  1.0000
  H   H940      1.0  0.93439  0.63875  0.04050  1.0000
  H   H941      1.0  0.89882  0.73623  0.01969  1.0000
  C   C807      1.0  0.70163  0.83624  0.02911  1.0000
  N   N53       1.0  0.84938  0.82774  0.00400  1.0000
  C   C808      1.0  0.61867  0.98231  0.08155  1.0000
  H   H942      1.0  0.61694  0.84321  0.22753  1.0000
  H   H943      1.0  0.97802  0.67015  0.99922  1.0000
  C   C809      1.0  0.66881  0.70709  0.05650  1.0000
  C   C810      1.0  0.67430  0.68781  0.06511  1.0000
  C   C811      1.0  0.65903  0.67275  0.08095  1.0000
  C   C812      1.0  0.63800  0.67662  0.08845  1.0000
  C   C813      1.0  0.63240  0.69577  0.07975  1.0000
  C   C814      1.0  0.64775  0.71092  0.06401  1.0000
  H   H944      1.0  0.69034  0.68450  0.05958  1.0000
  H   H945      1.0  0.66356  0.65796  0.08744  1.0000
  H   H946      1.0  0.61628  0.69900  0.08520  1.0000
  H   H947      1.0  0.64306  0.72557  0.05749  1.0000
  H   H948      1.0  0.64061  0.73635  0.20402  1.0000
  H   H949      1.0  0.81309  0.81952  0.01887  1.0000
  H   H950      1.0  0.71600  0.84810  0.01771  1.0000
  C   C815      1.0  0.51672  0.93471  0.23519  1.0000
  C   C816      1.0  0.86126  0.73702  0.01504  1.0000
  N   N54       1.0  0.68538  0.73049  0.13539  1.0000
  C   C817      1.0  0.66929  0.73320  0.11896  1.0000
  C   C818      1.0  0.71295  0.75251  0.13462  1.0000
  C   C819      1.0  0.68657  0.70507  0.13186  1.0000
  C   C820      1.0  0.67360  0.73187  0.15450  1.0000
  C   C821      1.0  0.67173  0.75523  0.16021  1.0000
  C   C822      1.0  0.66311  0.71026  0.16765  1.0000
  S   S213      1.0  0.71167  0.98371  0.05644  1.0000
  H   H951      1.0  0.82344  0.79444  0.02134  1.0000
  C   C823      1.0  0.49906  0.67968  0.11150  1.0000
  H   H952      1.0  0.66884  0.75260  0.11954  1.0000
  H   H953      1.0  0.67703  0.73152  0.10425  1.0000
  H   H954      1.0  0.64828  0.71725  0.11934  1.0000
  H   H955      1.0  0.72276  0.75123  0.12078  1.0000
  H   H956      1.0  0.72531  0.75195  0.14737  1.0000
  H   H957      1.0  0.71371  0.77248  0.13491  1.0000
  H   H958      1.0  0.66640  0.68762  0.13153  1.0000
  H   H959      1.0  0.69507  0.70442  0.11724  1.0000
  H   H960      1.0  0.69903  0.70202  0.14337  1.0000
  H   H961      1.0  0.67878  0.77226  0.15083  1.0000
  H   H962      1.0  0.66301  0.69145  0.16448  1.0000
  H   H963      1.0  0.93835  0.81580  0.00902  1.0000
  H   H964      1.0  0.79321  0.88444  0.00787  1.0000
  H   H965      1.0  0.94018  0.60321  0.02096  1.0000
  H   H966      1.0  0.55590  0.81781  0.19499  1.0000
  H   H967      1.0  0.49697  0.92901  0.24030  1.0000
  C   C824      1.0  0.59550  0.76693  0.20569  1.0000
  S   S214      1.0  0.95935  0.71228  0.00154  1.0000
  H   H968      1.0  0.66896  0.77142  0.04198  1.0000
  H   H969      1.0  0.65571  0.79474  0.04155  1.0000
  H   H970      1.0  0.71247  0.84336  0.04362  1.0000
  H   H971      1.0  0.51448  0.72547  0.09706  1.0000
  C   C825      1.0  0.65154  0.71213  0.18532  1.0000
  C   C826      1.0  0.62735  0.93046  0.23569  1.0000
  S   S215      1.0  0.70634  0.96343  0.99914  1.0000
  H   H972      1.0  0.90354  0.79504  0.03360  1.0000
  H   H973      1.0  0.60025  0.86243  0.22189  1.0000
  C   C827      1.0  0.58276  0.68727  0.24181  1.0000
  C   C828      1.0  0.59851  0.80937  0.19458  1.0000
  H   H974      1.0  0.48886  0.78338  0.11079  1.0000
  C   C829      1.0  0.50503  0.63448  0.23977  1.0000
  H   H975      1.0  0.56015  0.61158  0.24396  1.0000
  S   S216      1.0  0.76641  0.98246  0.01867  1.0000
  C   C830      1.0  0.61961  0.98005  0.04585  1.0000
  C   C831      1.0  0.88723  0.74193  0.00989  1.0000
  H   H976      1.0  0.64090  0.85740  0.19480  1.0000
  H   H977      1.0  0.51864  0.58843  0.20873  1.0000
  N   N55       1.0  0.69186  0.80712  0.02564  1.0000
  C   C832      1.0  0.60040  0.80099  0.17500  1.0000
  H   H978      1.0  0.49760  0.58315  0.17543  1.0000
  H   H979      1.0  0.94221  0.62279  0.99973  1.0000
  C   C833      1.0  0.98056  0.64514  0.06083  1.0000
  H   H980      1.0  0.72788  0.81095  0.01323  1.0000
  H   H981      1.0  0.60133  0.81296  0.16248  1.0000
  S   S217      1.0  0.50182  0.91933  0.15445  1.0000
  H   H982      1.0  0.57326  0.85336  0.19185  1.0000
  N   N56       1.0  0.59857  0.83529  0.19832  1.0000
  C   C834      1.0  0.56623  0.63270  0.24340  1.0000
  H   H983      1.0  0.86822  0.86798  0.01596  1.0000
  H   H984      1.0  0.58607  0.95461  0.06319  1.0000
  H   H985      1.0  0.60193  0.77070  0.15599  1.0000
  C   C835      1.0  0.83102  0.81644  0.02061  1.0000
  H   H986      1.0  0.56684  0.63323  0.21136  1.0000
  H   H987      1.0  0.69348  0.98033  0.09639  1.0000
  H   H988      1.0  0.58086  0.82814  0.22707  1.0000
  H   H989      1.0  0.72799  0.81094  0.03976  1.0000
  H   H990      1.0  0.59314  0.75330  0.21747  1.0000
  H   H991      1.0  0.49898  0.55228  0.23256  1.0000
  H   H992      1.0  0.77780  0.91853  0.00288  1.0000
  H   H993      1.0  0.54554  0.93753  0.19092  1.0000
  C   C836      1.0  0.48904  0.56716  0.18588  1.0000
  C   C837      1.0  0.50266  0.75526  0.10213  1.0000
  H   H994      1.0  0.62371  0.87712  0.19308  1.0000
  C   C838      1.0  0.67714  0.79679  0.00653  1.0000
  H   H995      1.0  0.68495  0.84140  0.02917  1.0000
  H   H996      1.0  0.95956  0.67323  0.03903  1.0000
  H   H997      1.0  0.62147  0.85568  0.17299  1.0000
  H   H998      1.0  0.49608  0.57069  0.12351  1.0000
  C   C839      1.0  0.58044  0.89945  0.23361  1.0000
  C   C840      1.0  0.62218  0.85716  0.18941  1.0000
  C   C841      1.0  0.56412  0.95035  0.23966  1.0000
  H   H999      1.0  0.68449  0.80121  0.05683  1.0000
  H   H1000     1.0  0.83752  0.85885  0.00234  1.0000
  H   H1001     1.0  0.96741  0.61328  0.00442  1.0000
  C   C842      1.0  0.84572  0.74461  0.00278  1.0000
  H   H1002     1.0  0.49395  0.69476  0.14929  1.0000
  H   H1003     1.0  0.85320  0.72739  0.02876  1.0000
  Fe  Fe109     1.0  0.73000  0.98777  0.02557  1.0000
  C   C843      1.0  0.60046  0.77666  0.17106  1.0000
  H   H1004     1.0  0.58946  0.70853  0.24135  1.0000
  C   C844      1.0  0.59592  0.79146  0.20988  1.0000
  C   C845      1.0  0.66017  0.75687  0.17794  1.0000
  C   C846      1.0  0.77564  0.87943  0.99872  1.0000
  C   C847      1.0  0.54384  0.93933  0.20678  1.0000
  H   H1005     1.0  0.49680  0.65951  0.11470  1.0000
  C   C848      1.0  0.57426  0.83434  0.18917  1.0000
  H   H1006     1.0  0.64590  0.94279  0.22862  1.0000
  H   H1007     1.0  0.51860  0.76957  0.09344  1.0000
  H   H1008     1.0  0.84084  0.82591  0.03504  1.0000
  C   C849      1.0  0.95408  0.61988  0.01186  1.0000
  C   C850      1.0  0.50088  0.57015  0.20457  1.0000
  H   H1009     1.0  0.60840  0.97455  0.09517  1.0000
  C   C851      1.0  0.48586  0.76307  0.11184  1.0000
  H   H1010     1.0  0.50180  0.92539  0.20484  1.0000
  H   H1011     1.0  0.58543  0.95328  0.21292  1.0000
  H   H1012     1.0  0.59389  0.79578  0.22518  1.0000
  C   C852      1.0  0.90127  0.80731  0.02239  1.0000
  H   H1013     1.0  0.66816  0.75536  0.01105  1.0000
  H   H1014     1.0  0.86318  0.79939  0.03193  1.0000
  H   H1015     1.0  0.96785  0.65359  0.06536  1.0000
  H   H1016     1.0  0.67364  0.97978  0.02608  1.0000
  H   H1017     1.0  0.93846  0.65648  0.01816  1.0000
  C   C853      1.0  0.56627  0.94830  0.21920  1.0000
  N   N57       1.0  0.96897  0.64463  0.02418  1.0000
  S   S218      1.0  0.73436  0.70782  0.99753  1.0000
  S   S219      1.0  0.48506  0.61343  0.13915  1.0000
  C   C854      1.0  0.87804  0.81005  0.02122  1.0000
  C   C855      1.0  0.51912  0.93248  0.21474  1.0000
  C   C856      1.0  0.87402  0.82502  0.00609  1.0000
  C   C857      1.0  0.50003  0.72966  0.10443  1.0000
  H   H1018     1.0  0.52237  0.65290  0.23620  1.0000
  H   H1019     1.0  0.64215  0.96957  0.01377  1.0000
  H   H1020     1.0  0.49170  0.62419  0.20945  1.0000
  H   H1021     1.0  0.60910  0.97032  0.03224  1.0000
  C   C858      1.0  0.48972  0.54970  0.21798  1.0000
  C   C859      1.0  0.66621  0.76926  0.00124  1.0000
  C   C860      1.0  0.76692  0.89890  0.99592  1.0000
  H   H1022     1.0  0.68146  0.83468  0.99508  1.0000
  C   C861      1.0  0.66195  0.98688  0.01689  1.0000
  H   H1023     1.0  0.64658  0.84266  0.40322  1.0000
  Fe  Fe110     1.0  0.72228  0.73416  0.47250  1.0000
  S   S220      1.0  0.69974  0.73209  0.44323  1.0000
  H   H1024     1.0  0.80327  0.71782  0.41141  1.0000
  N   N58       1.0  0.53775  0.94710  0.26999  1.0000
  S   S221      1.0  0.76430  0.76712  0.47159  1.0000
  H   H1025     1.0  0.54418  0.56286  0.38469  1.0000
  C   C862      1.0  0.63524  0.80175  0.39689  1.0000
  H   H1026     1.0  0.54095  0.56953  0.42003  1.0000
  H   H1027     1.0  0.76444  0.69372  0.45555  1.0000
  Fe  Fe111     1.0  0.57661  0.90007  0.31758  1.0000
  S   S222      1.0  0.53353  0.87106  0.31381  1.0000
  S   S223      1.0  0.60502  0.91656  0.29231  1.0000
  Fe  Fe112     1.0  0.57467  0.90406  0.36310  1.0000
  S   S224      1.0  0.53042  0.87566  0.36210  1.0000
  S   S225      1.0  0.59279  0.91554  0.39487  1.0000
  Fe  Fe113     1.0  0.54028  0.85140  0.34030  1.0000
  S   S226      1.0  0.51881  0.80668  0.34406  1.0000
  Fe  Fe114     1.0  0.52692  0.89755  0.33582  1.0000
  H   H1028     1.0  0.50350  0.75102  0.34849  1.0000
  S   S227      1.0  0.58428  0.87823  0.34244  1.0000
  S   S228      1.0  0.57024  0.92818  0.33833  1.0000
  Fe  Fe115     1.0  0.52428  0.63985  0.34517  1.0000
  S   S229      1.0  0.55254  0.62317  0.34016  1.0000
  H   H1029     1.0  0.50321  0.95368  0.26954  1.0000
  Fe  Fe116     1.0  0.56803  0.69701  0.33891  1.0000
  S   S230      1.0  0.59887  0.68333  0.33297  1.0000
  S   S231      1.0  0.58449  0.74181  0.33755  1.0000
  Fe  Fe117     1.0  0.56633  0.65062  0.31432  1.0000
  S   S232      1.0  0.56656  0.63168  0.28417  1.0000
  Fe  Fe118     1.0  0.58221  0.65783  0.35944  1.0000
  S   S233      1.0  0.60437  0.65016  0.38543  1.0000
  S   S234      1.0  0.53676  0.66602  0.31866  1.0000
  S   S235      1.0  0.55270  0.67285  0.36609  1.0000
  C   C863      1.0  0.74791  0.69406  0.40691  1.0000
  C   C864      1.0  0.53676  0.78843  0.34125  1.0000
  C   C865      1.0  0.52419  0.76091  0.34458  1.0000
  C   C866      1.0  0.53835  0.74611  0.34304  1.0000
  C   C867      1.0  0.56522  0.75886  0.33826  1.0000
  C   C868      1.0  0.57771  0.78634  0.33489  1.0000
  C   C869      1.0  0.56352  0.80105  0.33624  1.0000
  H   H1030     1.0  0.58207  0.95671  0.24866  1.0000
  H   H1031     1.0  0.52863  0.72497  0.34578  1.0000
  H   H1032     1.0  0.59851  0.79629  0.33124  1.0000
  H   H1033     1.0  0.57336  0.82213  0.33343  1.0000
  C   C870      1.0  0.67622  0.96143  0.42578  1.0000
  C   C871      1.0  0.65352  0.94619  0.43657  1.0000
  C   C872      1.0  0.62831  0.93244  0.42685  1.0000
  C   C873      1.0  0.62536  0.93321  0.40616  1.0000
  C   C874      1.0  0.64814  0.94793  0.39533  1.0000
  H   H1034     1.0  0.65483  0.80399  0.40051  1.0000
  H   H1035     1.0  0.59270  0.84177  0.42465  1.0000
  H   H1036     1.0  0.61092  0.92113  0.43545  1.0000
  H   H1037     1.0  0.64637  0.94887  0.37945  1.0000
  H   H1038     1.0  0.66852  0.79275  0.43919  1.0000
  H   H1039     1.0  0.69516  0.80386  0.42196  1.0000
  H   H1040     1.0  0.57460  0.75472  0.38009  1.0000
  C   C875      1.0  0.73455  0.81499  0.44843  1.0000
  H   H1041     1.0  0.56889  0.83230  0.37169  1.0000
  C   C876      1.0  0.67223  0.70893  0.42802  1.0000
  C   C877      1.0  0.65871  0.68159  0.43159  1.0000
  C   C878      1.0  0.63797  0.66402  0.41851  1.0000
  C   C879      1.0  0.63016  0.67347  0.40179  1.0000
  C   C880      1.0  0.64353  0.70084  0.39833  1.0000
  C   C881      1.0  0.66450  0.71833  0.41125  1.0000
  H   H1042     1.0  0.66440  0.67390  0.44431  1.0000
  H   H1043     1.0  0.62796  0.64292  0.42134  1.0000
  H   H1044     1.0  0.63803  0.70847  0.38549  1.0000
  H   H1045     1.0  0.67495  0.73930  0.40806  1.0000
  C   C882      1.0  0.57864  0.67502  0.26027  1.0000
  H   H1046     1.0  0.97836  0.61906  0.48189  1.0000
  H   H1047     1.0  0.49628  0.91939  0.27346  1.0000
  H   H1048     1.0  0.62660  0.86456  0.41929  1.0000
  S   S236      1.0  0.70843  0.98085  0.43727  1.0000
  H   H1049     1.0  0.56522  0.79220  0.38186  1.0000
  C   C883      1.0  0.57071  0.64771  0.26119  1.0000
  N   N59       1.0  0.60085  0.84553  0.39362  1.0000
  S   S237      1.0  0.49498  0.90884  0.32568  1.0000
  C   C884      1.0  0.54098  0.58036  0.38161  1.0000
  H   H1050     1.0  0.56732  0.93477  0.27812  1.0000
  C   C885      1.0  0.60323  0.91451  0.26603  1.0000
  Fe  Fe119     1.0  0.77737  0.74196  0.48946  1.0000
  H   H1051     1.0  0.56162  0.88653  0.26190  1.0000
  H   H1052     1.0  0.64488  0.94215  0.26489  1.0000
  C   C886      1.0  0.61515  0.77694  0.39039  1.0000
  H   H1053     1.0  0.78663  0.87997  0.48057  1.0000
  H   H1054     1.0  0.61763  0.85770  0.36503  1.0000
  H   H1055     1.0  0.69885  0.77659  0.46963  1.0000
  H   H1056     1.0  0.67872  0.79218  0.47525  1.0000
  H   H1057     1.0  0.72312  0.84966  0.42447  1.0000
  C   C887      1.0  0.53963  0.58801  0.41666  1.0000
  C   C888      1.0  0.58495  0.79591  0.38655  1.0000
  H   H1058     1.0  0.89542  0.72957  0.46925  1.0000
  H   H1059     1.0  0.77347  0.91578  0.48595  1.0000
  H   H1060     1.0  0.74121  0.82303  0.43359  1.0000
  H   H1061     1.0  0.65532  0.94511  0.45241  1.0000
  C   C889      1.0  0.72211  0.69221  0.40653  1.0000
  C   C890      1.0  0.70533  0.68271  0.38975  1.0000
  Fe  Fe120     1.0  0.72701  0.98760  0.46882  1.0000
  C   C891      1.0  0.71373  0.67481  0.37281  1.0000
  H   H1062     1.0  0.57095  0.85834  0.38797  1.0000
  H   H1063     1.0  0.74594  0.66607  0.43862  1.0000
  H   H1064     1.0  0.53027  0.57650  0.36705  1.0000
  C   C892      1.0  0.70819  0.83803  0.45413  1.0000
  H   H1065     1.0  0.71474  0.69820  0.41927  1.0000
  H   H1066     1.0  0.68568  0.68152  0.38990  1.0000
  S   S238      1.0  0.96175  0.71466  0.48613  1.0000
  C   C893      1.0  0.75594  0.68587  0.38935  1.0000
  C   C894      1.0  0.49650  0.59618  0.29536  1.0000
  C   C895      1.0  0.55586  0.97505  0.27652  1.0000
  C   C896      1.0  0.61975  0.86592  0.38043  1.0000
  H   H1067     1.0  0.74542  0.67026  0.35934  1.0000
  C   C897      1.0  0.69918  0.79637  0.47125  1.0000
  C   C898      1.0  0.77041  0.73201  0.42957  1.0000
  C   C899      1.0  0.50023  0.62705  0.25945  1.0000
  H   H1068     1.0  0.51402  0.61618  0.29586  1.0000
  S   S239      1.0  0.73550  0.70743  0.48851  1.0000
  N   N60       1.0  0.52607  0.58590  0.39731  1.0000
  C   C900      1.0  0.62678  0.93008  0.25633  1.0000
  C   C901      1.0  0.73897  0.67639  0.37260  1.0000
  H   H1069     1.0  0.51816  0.61228  0.37899  1.0000
  H   H1070     1.0  0.71056  0.90850  0.45648  1.0000
  H   H1071     1.0  0.49351  0.56994  0.34485  1.0000
  H   H1072     1.0  0.56043  0.60464  0.41701  1.0000
  C   C902      1.0  0.57991  0.89889  0.25461  1.0000
  C   C903      1.0  0.70020  0.84731  0.47116  1.0000
  H   H1073     1.0  0.61644  0.88382  0.37991  1.0000
  H   H1074     1.0  0.68723  0.77477  0.43573  1.0000
  S   S240      1.0  0.76285  0.98110  0.47495  1.0000
  C   C904      1.0  0.60511  0.82161  0.39288  1.0000
  N   N61       1.0  0.70765  0.81162  0.45282  1.0000
  C   C905      1.0  0.71741  0.88037  0.43873  1.0000
  C   C906      1.0  0.67327  0.96207  0.40510  1.0000
  C   C907      1.0  0.68883  0.79514  0.43669  1.0000
  H   H1075     1.0  0.48459  0.63656  0.29612  1.0000
  H   H1076     1.0  0.53406  0.90811  0.27501  1.0000
  C   C908      1.0  0.84473  0.74223  0.48455  1.0000
  H   H1077     1.0  0.61903  0.75996  0.38883  1.0000
  H   H1078     1.0  0.64082  0.87347  0.38536  1.0000
  C   C909      1.0  0.76411  0.89768  0.49417  1.0000
  H   H1079     1.0  0.77953  0.74513  0.41689  1.0000
  H   H1080     1.0  0.52888  0.59190  0.42889  1.0000
  C   C910      1.0  0.52766  0.61236  0.39352  1.0000
  H   H1081     1.0  0.78426  0.74075  0.44263  1.0000
  H   H1082     1.0  0.54367  0.92981  0.29662  1.0000
  C   C911      1.0  0.63033  0.82376  0.39826  1.0000
  Fe  Fe121     1.0  0.96789  0.75607  0.49348  1.0000
  H   H1083     1.0  0.54864  0.62835  0.39316  1.0000
  H   H1084     1.0  0.77520  0.68662  0.38815  1.0000
  C   C912      1.0  0.57353  0.83998  0.38728  1.0000
  C   C913      1.0  0.71667  0.85531  0.43788  1.0000
  H   H1085     1.0  0.51424  0.64045  0.27056  1.0000
  C   C914      1.0  0.51066  0.94074  0.27658  1.0000
  H   H1086     1.0  0.56118  0.59742  0.37993  1.0000
  H   H1087     1.0  0.51810  0.61865  0.40529  1.0000
  H   H1088     1.0  0.73313  0.68855  0.44572  1.0000
  C   C915      1.0  0.70952  0.88886  0.45567  1.0000
  H   H1089     1.0  0.70062  0.66748  0.35983  1.0000
  C   C916      1.0  0.79132  0.70445  0.42324  1.0000
  C   C917      1.0  0.54604  0.92919  0.28033  1.0000
  H   H1090     1.0  0.50980  0.53232  0.40117  1.0000
  H   H1091     1.0  0.49302  0.59020  0.31103  1.0000
  H   H1092     1.0  0.74961  0.82889  0.45947  1.0000
  H   H1093     1.0  0.73534  0.79568  0.44888  1.0000
  H   H1094     1.0  0.57711  0.98063  0.27410  1.0000
  H   H1095     1.0  0.51035  0.94393  0.29287  1.0000
  H   H1096     1.0  0.72447  0.89349  0.42632  1.0000
  H   H1097     1.0  0.58221  0.68685  0.27380  1.0000
  N   N62       1.0  0.76515  0.70424  0.42497  1.0000
  H   H1098     1.0  0.78893  0.68403  0.42037  1.0000
  H   H1099     1.0  0.55822  0.82534  0.39690  1.0000
  C   C918      1.0  0.85832  0.73099  0.47371  1.0000
  H   H1100     1.0  0.84790  0.71671  0.46179  1.0000
  H   H1101     1.0  0.60128  0.87419  0.41532  1.0000
  C   C919      1.0  0.75154  0.68739  0.44188  1.0000
  C   C920      1.0  0.53932  0.94398  0.24831  1.0000
  C   C921      1.0  0.60560  0.85691  0.41411  1.0000
  H   H1102     1.0  0.55441  0.97833  0.29266  1.0000
  H   H1103     1.0  0.81699  0.96558  0.48868  1.0000
  C   C922      1.0  0.70074  0.87228  0.47175  1.0000
  C   C923      1.0  0.88537  0.73821  0.47796  1.0000
  H   H1104     1.0  0.80362  0.71212  0.43717  1.0000
  H   H1105     1.0  0.75199  0.73332  0.43315  1.0000
  H   H1106     1.0  0.71317  0.80708  0.48390  1.0000
  C   C924      1.0  0.59004  0.77401  0.38546  1.0000
  S   S241      1.0  0.81047  0.73231  0.47821  1.0000
  H   H1107     1.0  0.64788  0.97744  0.47539  1.0000
  C   C925      1.0  0.77146  0.87718  0.49108  1.0000
  H   H1108     1.0  0.50250  0.58251  0.28740  1.0000
  C   C926      1.0  0.49845  0.56398  0.39752  1.0000
  H   H1109     1.0  0.69060  0.97376  0.39653  1.0000
  H   H1110     1.0  0.48512  0.82695  0.32702  1.0000
  C   C927      1.0  0.49360  0.53716  0.39941  1.0000
  H   H1111     1.0  0.69514  0.87925  0.48507  1.0000
  H   H1112     1.0  0.69402  0.83599  0.48445  1.0000
  C   C928      1.0  0.89942  0.75683  0.49322  1.0000
  H   H1113     1.0  0.98112  0.65820  0.46452  1.0000
  H   H1114     1.0  0.55115  0.98933  0.26841  1.0000
  Fe  Fe122     1.0  0.89480  0.53520  0.64060  1.0000
  S   S242      1.0  0.92022  0.57683  0.65402  1.0000
  H   H1115     1.0  0.79100  0.66767  0.59138  1.0000
  Fe  Fe123     1.0  0.84923  0.54733  0.63113  1.0000
  S   S243      1.0  0.87104  0.58821  0.64475  1.0000
  S   S244      1.0  0.81155  0.54012  0.61442  1.0000
  Fe  Fe124     1.0  0.90636  0.59214  0.62781  1.0000
  S   S245      1.0  0.92588  0.63287  0.61227  1.0000
  Fe  Fe125     1.0  0.88275  0.56969  0.66953  1.0000
  S   S246      1.0  0.87871  0.58504  0.70029  1.0000
  S   S247      1.0  0.88400  0.55127  0.61337  1.0000
  S   S248      1.0  0.85786  0.52794  0.65711  1.0000
  Fe  Fe126     1.0  0.66867  0.57921  0.67153  1.0000
  S   S249      1.0  0.65050  0.53474  0.67068  1.0000
  S   S250      1.0  0.68046  0.60220  0.70107  1.0000
  Fe  Fe127     1.0  0.67848  0.58320  0.62612  1.0000
  S   S251      1.0  0.66138  0.53829  0.62286  1.0000
  S   S252      1.0  0.69864  0.60665  0.59829  1.0000
  Fe  Fe128     1.0  0.62905  0.53601  0.64281  1.0000
  C   C929      1.0  0.62283  0.53534  0.57712  1.0000
  Fe  Fe129     1.0  0.68425  0.54095  0.65100  1.0000
  S   S253      1.0  0.70859  0.52097  0.66098  1.0000
  S   S254      1.0  0.64496  0.58095  0.64494  1.0000
  S   S255      1.0  0.70355  0.58543  0.65296  1.0000
  H   H1116     1.0  0.58518  0.53782  0.55489  1.0000
  H   H1117     1.0  0.82445  0.88556  0.53559  1.0000
  H   H1118     1.0  0.87982  0.60458  0.74000  1.0000
  H   H1119     1.0  0.93416  0.69403  0.52788  1.0000
  S   S256      1.0  0.77266  0.76003  0.51829  1.0000
  H   H1120     1.0  0.77547  0.52494  0.70499  1.0000
  Fe  Fe130     1.0  0.73037  0.72613  0.51684  1.0000
  S   S257      1.0  0.70704  0.70229  0.54361  1.0000
  H   H1121     1.0  0.90759  0.70972  0.49868  1.0000
  S   S258      1.0  0.91324  0.50663  0.64107  1.0000
  C   C930      1.0  0.79488  0.65305  0.59896  1.0000
  C   C931      1.0  0.60492  0.51165  0.58644  1.0000
  N   N63       1.0  0.85244  0.63717  0.60962  1.0000
  C   C932      1.0  0.76965  0.58506  0.70403  1.0000
  C   C933      1.0  0.82037  0.65495  0.59918  1.0000
  C   C934      1.0  0.73320  0.87095  0.51854  1.0000
  C   C935      1.0  0.74011  0.85019  0.51510  1.0000
  H   H1122     1.0  0.71856  0.86846  0.52944  1.0000
  H   H1123     1.0  0.73089  0.83215  0.52342  1.0000
  H   H1124     1.0  0.93319  0.49921  0.60144  1.0000
  H   H1125     1.0  0.64154  0.57780  0.60188  1.0000
  H   H1126     1.0  0.78632  0.89435  0.54112  1.0000
  H   H1127     1.0  0.60742  0.55615  0.60701  1.0000
  C   C936      1.0  0.77422  0.63242  0.60849  1.0000
  H   H1128     1.0  0.84880  0.76972  0.50835  1.0000
  H   H1129     1.0  0.90158  0.67585  0.49994  1.0000
  C   C937      1.0  0.70117  0.63389  0.58374  1.0000
  C   C938      1.0  0.71848  0.64182  0.56770  1.0000
  C   C939      1.0  0.72071  0.66267  0.55537  1.0000
  C   C940      1.0  0.70551  0.67594  0.55880  1.0000
  C   C941      1.0  0.68809  0.66787  0.57480  1.0000
  C   C942      1.0  0.68593  0.64710  0.58718  1.0000
  H   H1130     1.0  0.73029  0.63174  0.56475  1.0000
  H   H1131     1.0  0.73415  0.66845  0.54317  1.0000
  H   H1132     1.0  0.67624  0.67793  0.57770  1.0000
  H   H1133     1.0  0.67251  0.64140  0.59938  1.0000
  C   C943      1.0  0.94029  0.64592  0.58897  1.0000
  H   H1134     1.0  0.83961  0.60441  0.58838  1.0000
  C   C944      1.0  0.82627  0.90514  0.53277  1.0000
  C   C945      1.0  0.96388  0.66891  0.55248  1.0000
  C   C946      1.0  0.95455  0.64152  0.55579  1.0000
  C   C947      1.0  0.94277  0.63008  0.57381  1.0000
  H   H1135     1.0  0.88338  0.64411  0.63136  1.0000
  C   C948      1.0  0.87913  0.66527  0.53476  1.0000
  H   H1136     1.0  0.95651  0.62897  0.54436  1.0000
  H   H1137     1.0  0.93595  0.60905  0.57606  1.0000
  C   C949      1.0  0.78354  0.53552  0.62786  1.0000
  C   C950      1.0  0.77907  0.52441  0.64656  1.0000
  C   C951      1.0  0.75584  0.51978  0.65650  1.0000
  C   C952      1.0  0.73742  0.52698  0.64808  1.0000
  C   C953      1.0  0.74222  0.53871  0.62961  1.0000
  C   C954      1.0  0.76504  0.54259  0.61940  1.0000
  H   H1138     1.0  0.79315  0.51873  0.65310  1.0000
  C   C955      1.0  0.62077  0.57062  0.59623  1.0000
  H   H1139     1.0  0.72799  0.54411  0.62297  1.0000
  H   H1140     1.0  0.76833  0.55101  0.60487  1.0000
  S   S259      1.0  0.97835  0.68202  0.52921  1.0000
  C   C956      1.0  0.88214  0.57274  0.72356  1.0000
  C   C957      1.0  0.88452  0.54935  0.72511  1.0000
  C   C958      1.0  0.85038  0.61115  0.60287  1.0000
  H   H1141     1.0  0.88487  0.53855  0.71182  1.0000
  C   C959      1.0  0.63985  0.57082  0.72603  1.0000
  C   C960      1.0  0.66645  0.58993  0.72433  1.0000
  H   H1142     1.0  0.79329  0.57859  0.65892  1.0000
  H   H1143     1.0  0.62755  0.56228  0.71282  1.0000
  H   H1144     1.0  0.81410  0.61643  0.53589  1.0000
  H   H1145     1.0  0.84089  0.66172  0.52458  1.0000
  C   C961      1.0  0.89070  0.65053  0.54387  1.0000
  H   H1146     1.0  0.85041  0.62748  0.64050  1.0000
  C   C962      1.0  0.87202  0.65795  0.59698  1.0000
  C   C963      1.0  0.86326  0.64306  0.63023  1.0000
  H   H1147     1.0  0.70366  0.56416  0.71239  1.0000
  H   H1148     1.0  0.86516  0.70587  0.52567  1.0000
  C   C964      1.0  0.63514  0.57945  0.56280  1.0000
  H   H1149     1.0  0.91186  0.65850  0.54616  1.0000
  H   H1150     1.0  0.80684  0.60017  0.62658  1.0000
  C   C965      1.0  0.96111  0.68471  0.56755  1.0000
  H   H1151     1.0  0.83545  0.67152  0.59162  1.0000
  H   H1152     1.0  0.73175  0.61563  0.71382  1.0000
  H   H1153     1.0  0.89149  0.65752  0.59727  1.0000
  H   H1154     1.0  0.86486  0.65488  0.58130  1.0000
  H   H1155     1.0  0.87646  0.67838  0.60224  1.0000
  H   H1156     1.0  0.93492  0.72565  0.52872  1.0000
  C   C966      1.0  0.80481  0.91013  0.53592  1.0000
  H   H1157     1.0  0.89629  0.78244  0.51591  1.0000
  H   H1158     1.0  0.86643  0.92107  0.52314  1.0000
  S   S260      1.0  0.70545  0.96647  0.49572  1.0000
  C   C967      1.0  0.56559  0.49869  0.69654  1.0000
  C   C968      1.0  0.80663  0.93497  0.53166  1.0000
  H   H1159     1.0  0.87418  0.68352  0.49880  1.0000
  C   C969      1.0  0.77100  0.58206  0.68326  1.0000
  H   H1160     1.0  0.83090  0.58971  0.71604  1.0000
  C   C970      1.0  0.84983  0.92515  0.52564  1.0000
  C   C971      1.0  0.88159  0.58642  0.74103  1.0000
  H   H1161     1.0  0.74699  0.56823  0.74001  1.0000
  S   S261      1.0  0.58420  0.51099  0.63673  1.0000
  H   H1162     1.0  0.58717  0.51000  0.59328  1.0000
  H   H1163     1.0  0.89788  0.73162  0.52963  1.0000
  H   H1164     1.0  0.82150  0.53574  0.71517  1.0000
  H   H1165     1.0  0.59420  0.49284  0.67961  1.0000
  C   C972      1.0  0.83018  0.95574  0.52413  1.0000
  H   H1166     1.0  0.72087  0.54468  0.70773  1.0000
  H   H1167     1.0  0.94792  0.68589  0.59719  1.0000
  H   H1168     1.0  0.78899  0.93736  0.53362  1.0000
  H   H1169     1.0  0.75502  0.58012  0.67335  1.0000
  C   C973      1.0  0.76005  0.51354  0.73411  1.0000
  C   C974      1.0  0.64665  0.53613  0.57003  1.0000
  C   C975      1.0  0.74519  0.89494  0.50820  1.0000
  C   C976      1.0  0.88437  0.71053  0.53330  1.0000
  C   C977      1.0  0.68203  0.60117  0.74167  1.0000
  C   C978      1.0  0.87505  0.62448  0.55000  1.0000
  H   H1170     1.0  0.74384  0.61239  0.69033  1.0000
  C   C979      1.0  0.89452  0.69018  0.50519  1.0000
  C   C980      1.0  0.85104  0.65215  0.53201  1.0000
  H   H1171     1.0  0.76267  0.59752  0.62572  1.0000
  H   H1172     1.0  0.65614  0.58907  0.56839  1.0000
  C   C981      1.0  0.72122  0.56421  0.70521  1.0000
  H   H1173     1.0  0.75451  0.63105  0.60826  1.0000
  H   H1174     1.0  0.87023  0.61186  0.60152  1.0000
  S   S262      1.0  0.71427  0.75078  0.50065  1.0000
  H   H1175     1.0  0.88160  0.71016  0.54954  1.0000
  H   H1176     1.0  0.80127  0.98033  0.53858  1.0000
  N   N64       1.0  0.83080  0.98108  0.51824  1.0000
  H   H1177     1.0  0.62996  0.59612  0.56173  1.0000
  H   H1178     1.0  0.57458  0.53743  0.57988  1.0000
  C   C982      1.0  0.80425  0.61527  0.61870  1.0000
  H   H1179     1.0  0.66215  0.55370  0.56367  1.0000
  H   H1180     1.0  0.61674  0.58808  0.59645  1.0000
  S   S263      1.0  0.77077  0.82864  0.49753  1.0000
  H   H1181     1.0  0.86511  0.66243  0.63592  1.0000
  H   H1182     1.0  0.76687  0.62961  0.71050  1.0000
  C   C983      1.0  0.84753  0.61224  0.54711  1.0000
  H   H1183     1.0  0.58563  0.56700  0.56641  1.0000
  C   C984      1.0  0.79299  0.58145  0.67477  1.0000
  H   H1184     1.0  0.83551  0.59187  0.55160  1.0000
  C   C985      1.0  0.83553  0.62610  0.53826  1.0000
  H   H1185     1.0  0.96844  0.70583  0.56547  1.0000
  C   C986      1.0  0.94943  0.67328  0.58559  1.0000
  C   C987      1.0  0.58950  0.54972  0.56900  1.0000
  H   H1186     1.0  0.88446  0.61364  0.55683  1.0000
  H   H1187     1.0  0.63431  0.57123  0.54759  1.0000
  N   N65       1.0  0.89526  0.69227  0.52707  1.0000
  S   S264      1.0  0.73614  0.92077  0.51387  1.0000
  H   H1188     1.0  0.92554  0.70586  0.55032  1.0000
  C   C988      1.0  0.77889  0.61359  0.61837  1.0000
  H   H1189     1.0  0.75211  0.51057  0.67074  1.0000
  C   C989      1.0  0.75960  0.85327  0.50152  1.0000
  C   C990      1.0  0.78000  0.52253  0.72023  1.0000
  C   C991      1.0  0.82576  0.63588  0.60898  1.0000
  H   H1190     1.0  0.57678  0.52028  0.69643  1.0000
  C   C992      1.0  0.92360  0.70483  0.53390  1.0000
  H   H1191     1.0  0.71749  0.56500  0.68917  1.0000
  H   H1192     1.0  0.83957  0.59510  0.61334  1.0000
  N   N66       1.0  0.61727  0.55843  0.57615  1.0000
  Fe  Fe131     1.0  0.74206  0.96148  0.50259  1.0000
  C   C993      1.0  0.65158  0.51419  0.57165  1.0000
  C   C994      1.0  0.81399  0.58752  0.70698  1.0000
  C   C995      1.0  0.74656  0.58645  0.73455  1.0000
  C   C996      1.0  0.81436  0.58400  0.68659  1.0000
  N   N67       1.0  0.74665  0.58685  0.71258  1.0000
  C   C997      1.0  0.85191  0.95014  0.52135  1.0000
  H   H1193     1.0  0.83129  0.58322  0.67998  1.0000
  H   H1194     1.0  0.87057  0.96454  0.51558  1.0000
  C   C998      1.0  0.79202  0.58803  0.71569  1.0000
  C   C999      1.0  0.85873  0.76076  0.49985  1.0000
  H   H1195     1.0  0.72831  0.58645  0.74044  1.0000
  H   H1196     1.0  0.67005  0.51538  0.56646  1.0000
  C   C1000     1.0  0.74736  0.61219  0.70654  1.0000
  H   H1197     1.0  0.53305  0.49859  0.71230  1.0000
  H   H1198     1.0  0.79313  0.59082  0.73156  1.0000
  C   C1001     1.0  0.88579  0.76798  0.50410  1.0000
  Fe  Fe132     1.0  0.75660  0.78321  0.50010  1.0000
  C   C1002     1.0  0.80588  0.52855  0.72597  1.0000
  H   H1199     1.0  0.73991  0.50882  0.72952  1.0000
  S   S265      1.0  0.93349  0.76624  0.49993  1.0000
  H   H1200     1.0  0.70244  0.61637  0.74059  1.0000
  C   C1003     1.0  0.81212  0.97546  0.50119  1.0000
  H   H1201     1.0  0.79118  0.96212  0.50508  1.0000
  H   H1202     1.0  0.97373  0.49485  0.60852  1.0000
  H   H1203     1.0  0.76358  0.60447  0.74133  1.0000
  C   C1004     1.0  0.88627  0.53976  0.74386  1.0000
  C   C1005     1.0  0.61002  0.48985  0.58794  1.0000
  C   C1006     1.0  0.63327  0.49108  0.58052  1.0000
  H   H1204     1.0  0.88781  0.52149  0.74473  1.0000
  Fe  Fe133     1.0  0.68739  0.54683  0.82917  1.0000
  S   S266      1.0  0.69123  0.58781  0.82582  1.0000
  S   S267      1.0  0.72301  0.54524  0.81596  1.0000
  Fe  Fe134     1.0  0.63123  0.52480  0.84619  1.0000
  S   S268      1.0  0.63233  0.56492  0.84397  1.0000
  C   C1007     1.0  0.76581  0.51027  0.75378  1.0000
  Fe  Fe135     1.0  0.64913  0.56587  0.81375  1.0000
  S   S269      1.0  0.62876  0.56937  0.78551  1.0000
  Fe  Fe136     1.0  0.67443  0.58298  0.85639  1.0000
  S   S270      1.0  0.69654  0.60953  0.88378  1.0000
  S   S271      1.0  0.64609  0.52511  0.81556  1.0000
  S   S272      1.0  0.67256  0.54262  0.86017  1.0000
  Fe  Fe137     1.0  0.90252  0.58023  0.85813  1.0000
  S   S273      1.0  0.87935  0.54290  0.87505  1.0000
  S   S274      1.0  0.92323  0.62286  0.87223  1.0000
  Fe  Fe138     1.0  0.88506  0.54926  0.81729  1.0000
  S   S275      1.0  0.86001  0.51062  0.83211  1.0000
  S   S276      1.0  0.88638  0.53921  0.78445  1.0000
  Fe  Fe139     1.0  0.84704  0.53417  0.85201  1.0000
  S   S277      1.0  0.80414  0.51630  0.86098  1.0000
  Fe  Fe140     1.0  0.89427  0.52230  0.85341  1.0000
  C   C1008     1.0  0.76205  0.85374  0.98972  1.0000
  S   S278      1.0  0.86910  0.57208  0.83575  1.0000
  S   S279      1.0  0.92028  0.56041  0.83808  1.0000
  H   H1205     1.0  0.82446  0.53622  0.80483  1.0000
  C   C1009     1.0  0.55482  0.51633  0.78405  1.0000
  C   C1010     1.0  0.63725  0.60274  0.96020  1.0000
  H   H1206     1.0  0.77930  0.56654  0.81404  1.0000
  Fe  Fe141     1.0  0.73048  0.72772  0.96992  1.0000
  S   S280      1.0  0.70726  0.70636  0.94113  1.0000
  C   C1011     1.0  0.67711  0.97762  0.88128  1.0000
  S   S281      1.0  0.77268  0.76144  0.97179  1.0000
  H   H1207     1.0  0.69989  0.96601  0.95216  1.0000
  H   H1208     1.0  0.65895  0.81628  0.96358  1.0000
  H   H1209     1.0  0.57256  0.52173  0.91802  1.0000
  H   H1210     1.0  0.75200  0.63563  0.87341  1.0000
  H   H1211     1.0  0.83219  0.53032  0.74919  1.0000
  H   H1212     1.0  0.65314  0.56154  0.89942  1.0000
  H   H1213     1.0  0.75693  0.58182  0.89961  1.0000
  H   H1214     1.0  0.78211  0.56819  0.88010  1.0000
  H   H1215     1.0  0.82521  0.56861  0.87956  1.0000
  H   H1216     1.0  0.60017  0.51349  0.77644  1.0000
  C   C1012     1.0  0.69335  0.95421  0.91188  1.0000
  H   H1217     1.0  0.95639  0.62217  0.94046  1.0000
  C   C1013     1.0  0.88581  0.55345  0.76134  1.0000
  C   C1014     1.0  0.88359  0.57696  0.75982  1.0000
  Fe  Fe142     1.0  0.75684  0.78430  0.99058  1.0000
  H   H1218     1.0  0.88331  0.58780  0.77308  1.0000
  C   C1015     1.0  0.79945  0.58704  0.87779  1.0000
  C   C1016     1.0  0.93501  0.63598  0.89681  1.0000
  C   C1017     1.0  0.94031  0.62145  0.91116  1.0000
  H   H1219     1.0  0.60752  0.57099  0.97639  1.0000
  C   C1018     1.0  0.95784  0.66012  0.93454  1.0000
  C   C1019     1.0  0.95183  0.67443  0.92041  1.0000
  C   C1020     1.0  0.94075  0.66251  0.90167  1.0000
  S   S282      1.0  0.97456  0.67485  0.95771  1.0000
  C   C1021     1.0  0.61700  0.57682  0.96227  1.0000
  C   C1022     1.0  0.64424  0.57561  0.76221  1.0000
  C   C1023     1.0  0.59075  0.52025  0.91398  1.0000
  C   C1024     1.0  0.67116  0.59369  0.76049  1.0000
  H   H1220     1.0  0.74175  0.95380  0.91549  1.0000
  H   H1221     1.0  0.68323  0.60305  0.77367  1.0000
  C   C1025     1.0  0.69993  0.63727  0.89900  1.0000
  C   C1026     1.0  0.71740  0.64513  0.91566  1.0000
  C   C1027     1.0  0.72016  0.66629  0.92858  1.0000
  C   C1028     1.0  0.70541  0.67997  0.92506  1.0000
  C   C1029     1.0  0.68795  0.67211  0.90837  1.0000
  C   C1030     1.0  0.68521  0.65097  0.89544  1.0000
  H   H1222     1.0  0.72879  0.63467  0.91876  1.0000
  H   H1223     1.0  0.73359  0.67192  0.94134  1.0000
  H   H1224     1.0  0.67639  0.68246  0.90545  1.0000
  H   H1225     1.0  0.67166  0.64529  0.88277  1.0000
  C   C1031     1.0  0.74561  0.53901  0.83014  1.0000
  C   C1032     1.0  0.73709  0.52043  0.84512  1.0000
  C   C1033     1.0  0.75536  0.51395  0.85474  1.0000
  C   C1034     1.0  0.78220  0.52624  0.84962  1.0000
  C   C1035     1.0  0.79089  0.54575  0.83532  1.0000
  C   C1036     1.0  0.77259  0.55189  0.82545  1.0000
  H   H1226     1.0  0.71508  0.94672  0.88829  1.0000
  H   H1227     1.0  0.57249  0.53615  0.78693  1.0000
  H   H1228     1.0  0.81166  0.55596  0.83178  1.0000
  H   H1229     1.0  0.76030  0.59520  0.84631  1.0000
  H   H1230     1.0  0.64108  0.76817  0.95511  1.0000
  C   C1037     1.0  0.82139  0.63453  0.87221  1.0000
  H   H1231     1.0  0.74857  0.49893  0.86590  1.0000
  H   H1232     1.0  0.93691  0.67407  0.89073  1.0000
  H   H1233     1.0  0.81634  0.81550  0.98324  1.0000
  H   H1234     1.0  0.70094  0.93624  0.95908  1.0000
  H   H1235     1.0  0.65490  0.98553  0.90346  1.0000
  H   H1236     1.0  0.86677  0.86563  0.98937  1.0000
  C   C1038     1.0  0.92686  0.49992  0.80400  1.0000
  H   H1237     1.0  0.92140  0.51648  0.80432  1.0000
  H   H1238     1.0  0.54028  0.97745  0.77838  1.0000
  H   H1239     1.0  0.66537  0.63057  0.94058  1.0000
  C   C1039     1.0  0.77209  0.63672  0.87269  1.0000
  C   C1040     1.0  0.82406  0.58701  0.87748  1.0000
  C   C1041     1.0  0.64176  0.59216  0.92612  1.0000
  H   H1240     1.0  0.89112  0.77261  0.96664  1.0000
  C   C1042     1.0  0.79732  0.61083  0.87524  1.0000
  C   C1043     1.0  0.76035  0.60231  0.89631  1.0000
  H   H1241     1.0  0.58524  0.50677  0.90057  1.0000
  H   H1242     1.0  0.64348  0.61699  0.97258  1.0000
  H   H1243     1.0  0.70122  0.96747  0.86235  1.0000
  C   C1044     1.0  0.69398  0.96661  0.87719  1.0000
  H   H1244     1.0  0.82900  0.79192  0.98612  1.0000
  H   H1245     1.0  0.82192  0.65363  0.87018  1.0000
  H   H1246     1.0  0.77951  0.64380  0.85771  1.0000
  C   C1045     1.0  0.85664  0.75696  0.98505  1.0000
  C   C1046     1.0  0.65073  0.77606  0.96940  1.0000
  C   C1047     1.0  0.67572  0.96519  0.91545  1.0000
  C   C1048     1.0  0.75220  0.59100  0.86146  1.0000
  C   C1049     1.0  0.60894  0.55842  0.94628  1.0000
  H   H1247     1.0  0.54891  0.51626  0.76833  1.0000
  C   C1050     1.0  0.73253  0.95701  0.92893  1.0000
  H   H1248     1.0  0.67155  0.98737  0.86980  1.0000
  C   C1051     1.0  0.64959  0.61038  0.94215  1.0000
  C   C1052     1.0  0.89448  0.83660  0.99217  1.0000
  H   H1249     1.0  0.67119  0.93369  0.94801  1.0000
  C   C1053     1.0  0.66083  0.80312  0.97421  1.0000
  N   N68       1.0  0.77109  0.61046  0.87634  1.0000
  N   N69       1.0  0.70302  0.94280  0.92766  1.0000
  C   C1054     1.0  0.60514  0.55823  0.89346  1.0000
  S   S283      1.0  0.73346  0.91744  0.97852  1.0000
  H   H1250     1.0  0.64584  0.73813  0.97910  1.0000
  C   C1055     1.0  0.84589  0.63419  0.87183  1.0000
  C   C1056     1.0  0.70189  0.95489  0.89218  1.0000
  S   S284      1.0  0.71459  0.75230  0.98648  1.0000
  H   H1251     1.0  0.84685  0.82133  0.97221  1.0000
  H   H1252     1.0  0.93619  0.60113  0.90773  1.0000
  H   H1253     1.0  0.84509  0.76255  0.97516  1.0000
  H   H1254     1.0  0.63074  0.52805  0.89181  1.0000
  C   C1057     1.0  0.84722  0.61051  0.87449  1.0000
  H   H1255     1.0  0.74939  0.50318  0.76372  1.0000
  H   H1256     1.0  0.78471  0.65209  0.88405  1.0000
  H   H1257     1.0  0.74047  0.95008  0.94152  1.0000
  H   H1258     1.0  0.86408  0.65241  0.86957  1.0000
  C   C1058     1.0  0.69423  0.91414  0.92311  1.0000
  H   H1259     1.0  0.74084  0.60230  0.89788  1.0000
  C   C1059     1.0  0.62113  0.56566  0.92762  1.0000
  H   H1260     1.0  0.83718  0.54751  0.78114  1.0000
  H   H1261     1.0  0.59319  0.53872  0.94894  1.0000
  H   H1262     1.0  0.71628  0.51033  0.84875  1.0000
  C   C1060     1.0  0.66773  0.97657  0.90029  1.0000
  C   C1061     1.0  0.88282  0.76242  0.98013  1.0000
  H   H1263     1.0  0.53855  0.51555  0.79342  1.0000
  H   H1264     1.0  0.81028  0.55274  0.78993  1.0000
  H   H1265     1.0  0.86627  0.61037  0.87428  1.0000
  H   H1266     1.0  0.67216  0.90281  0.92165  1.0000
  H   H1267     1.0  0.58913  0.56329  0.89770  1.0000
  H   H1268     1.0  0.62195  0.57665  0.88799  1.0000
  C   C1062     1.0  0.83483  0.81358  0.98557  1.0000
  C   C1063     1.0  0.69325  0.94483  0.94753  1.0000
  H   H1269     1.0  0.73277  0.59143  0.86104  1.0000
  H   H1270     1.0  0.95630  0.69486  0.92371  1.0000
  H   H1271     1.0  0.90090  0.49930  0.77002  1.0000
  H   H1272     1.0  0.77423  0.61611  0.90799  1.0000
  C   C1064     1.0  0.63619  0.54285  0.90437  1.0000
  H   H1273     1.0  0.74746  0.57012  0.86460  1.0000
  C   C1065     1.0  0.73102  0.86748  0.97475  1.0000
  C   C1066     1.0  0.58109  0.49469  0.77452  1.0000
  H   H1274     1.0  0.72873  0.82829  0.97074  1.0000
  H   H1275     1.0  0.59595  0.50990  0.92577  1.0000
  H   H1276     1.0  0.92868  0.49499  0.81962  1.0000
  H   H1277     1.0  0.73999  0.97891  0.93107  1.0000
  C   C1067     1.0  0.77575  0.50090  0.79375  1.0000
  H   H1278     1.0  0.64370  0.53547  0.91685  1.0000
  H   H1279     1.0  0.59756  0.54395  0.88052  1.0000
  Fe  Fe143     1.0  0.74289  0.95929  0.99140  1.0000
  C   C1068     1.0  0.73940  0.84781  0.97790  1.0000
  N   N70       1.0  0.61326  0.54692  0.91028  1.0000
  C   C1069     1.0  0.74468  0.89321  0.98369  1.0000
  H   H1280     1.0  0.71391  0.86273  0.96516  1.0000
  H   H1281     1.0  0.65206  0.59900  0.91248  1.0000
  S   S285      1.0  0.91212  0.49410  0.85897  1.0000
  S   S286      1.0  0.93243  0.76494  0.98625  1.0000
  C   C1070     1.0  0.81850  0.53831  0.78946  1.0000
  C   C1071     1.0  0.95183  0.63351  0.92977  1.0000
  H   H1282     1.0  0.70084  0.90493  0.93501  1.0000
  H   H1283     1.0  0.70252  0.91094  0.90915  1.0000
  H   H1284     1.0  0.94694  0.50812  0.79766  1.0000
  H   H1285     1.0  0.89248  0.84747  0.97987  1.0000
  C   C1072     1.0  0.89845  0.75506  0.99248  1.0000
  C   C1073     1.0  0.65334  0.75915  0.98293  1.0000
  H   H1286     1.0  0.93258  0.84191  0.98233  1.0000
  N   N71       1.0  0.79892  0.51222  0.78060  1.0000
  C   C1074     1.0  0.79199  0.51588  0.76005  1.0000
  H   H1287     1.0  0.76627  0.51419  0.79524  1.0000
  C   C1075     1.0  0.67381  0.81347  0.99249  1.0000
  C   C1076     1.0  0.57291  0.49911  0.80868  1.0000
  H   H1288     1.0  0.66836  0.96601  0.92994  1.0000
  H   H1289     1.0  0.55867  0.49850  0.82004  1.0000
  S   S287      1.0  0.77480  0.83035  0.99326  1.0000
  S   S288      1.0  0.59202  0.49562  0.85990  1.0000
  C   C1077     1.0  0.81100  0.49391  0.78055  1.0000
  Fe  Fe144     1.0  0.96566  0.75285  0.99241  1.0000
  C   C1078     1.0  0.81183  0.52536  0.74554  1.0000
  H   H1290     1.0  0.60778  0.55038  0.74601  1.0000
  H   H1291     1.0  0.78168  0.49847  0.80909  1.0000
  C   C1079     1.0  0.91753  0.83357  0.99342  1.0000
  H   H1292     1.0  0.59058  0.51917  0.81031  1.0000
  N   N72       1.0  0.56085  0.49404  0.78838  1.0000
  H   H1293     1.0  0.92665  0.49077  0.76506  1.0000
  H   H1294     1.0  0.81537  0.48979  0.79585  1.0000
  H   H1295     1.0  0.83035  0.50237  0.77299  1.0000
  H   H1296     1.0  0.57462  0.49353  0.75879  1.0000
  C   C1080     1.0  0.62868  0.56410  0.74488  1.0000
