data_image0
_chemical_formula_structural       FeS2HFeS2H4CFeS2FeS2FeSFeS3FeS2FeS3CHCH2C6H4C6H5C8H2C6H7SHCNHC3H3C2HC2NC5HC4H5CHCHCSNC9H14NC2H5CH4SC2H4SCH2C3NHFeHCH2CH11CH7CH2CFeC3FeHCFeHCHCSCNSH2CSFeS2CFeS3H2FeSFeS2FeS2FeSFeS3FeS2C6H4C6H4C2H2C4HCH2C6H4CH2NC9H14CNH3CH2CH3NC9H11SHC2HNH3SNCHC3HC2HCFeH4C2H4C3FeC2HC2H3CSCH3C2H2CSCH3CHSH4CH2CH3CHC3H3CSHCHFeH6FeS2FeS2H2CH2FeS2FeS2FeS2FeSFeS3HS2H2C3HC7H5CHC6H4C6H4C4H5C3SHCHCH7CHC3HSHC4HCHCH3CNCHCHCHC3S2C2H2CH2NFeHSHNCFeC6H3CH3CSH2CH2CH3CH3NH2CHCH2NC8H12C2NH8CFeH4C2HCSCFeH2CHFeHCSHFeC2SH3CHFeS2FeS2FeS2FeSFeS3FeS2CSCNFeSH3FeS2CHCH5NH4FeCHC3SHC6H4C6H5C4HCHC6H5C3HCHCHC2H2C2HCH2SCH2CH2C2H3FeH4CFeC2NC3NC9H11NC9H15C2H3C3HCH2CH5CNH5C4H3SHCH2S3CH2SH3CH2SFeHSH3CHFeS2HC2HNCFeS2HSH2C2FeS2FeS2HC2HSNC6H4C5H2SHCSHFeHCH4C7H3CHC2HCSH3CH3NC9HFeH11C2HFeC2HCH2C3H4CHCH3CH4C2HC3HNH2CHC2FeCHSHC2FeCFeC3HS2CH3CSCH2SH4C3HC2H2SH2C3H2SC2HCH4FeS2FeS2FeSH2CHFeS2CFeS2C6H4SCHFeHCHC4HCH3C2HNHC7H3CHSCFeC2NC6H17C3NH2C2HC2SH5CH2C2H2SCSH2CHC2H3CFeCHC2HCHFeHCH3C2H3SHNSHC2HC2H2C2HC3HC2HC3H3SCH5SC2FeS2FeS2HSCH2CH3CHNHC6H4C4H2C2H8NCH3FeCHCHCSCHCHCHSH2CFeH2CNH5SCNH3CFeS2FeS2HC6H6C2H4CHCHCHCHC2H2CHCH3SH2FeCH5C2SCH2NC6HSHC2HCH2CHC4H2CFeHCSHC2S2HFeCSH2FeS2H4C7H8CNCSH4C4NH3CH5SH2CHC2H5SFeS2Fe2SH2C6H4C2S2HCHCSH4CHCH2C3H6NC9H4C2SCHCH2CHFeS2HSH2CH3CH2C2FeS2HSFeS2CFeS2HCFeC6H5CSFeHC4H4CH3C7FeH4CHC4HSNCHCHSC3H6C2H5SC10NC9H13NC4FeSH4CSHC3HC2H2NH2CH3CHCH2C2HCH4C2H2CH2NSC3HFe2NH3FeS2H2CH3FeS2FeS2FeS2H2CHC2HCHCH2SC3HSC3H3C8H4CHC2HCHCSCH4CH2FeH2C2H2CHCHC2H2C3HC2HC3HC2NHCHCSH5CH3C3HC2H2NHSCH2CHCHC2H2SH2C2H3CH2CH2C4NCHC3FeCFeC2HSCHNFeHSFeS2H3CFeCFeS2FeS2FeS2FeSFeS3FeS2HFeC4HFeSH2CSC7H4C6H7C7H4CHC4H5C2H2NC9H13C2H3CSH2CHC3H9CH2CHC2H2NC4HCH2CH2C2N2CH6CH2C2HCH2CHCSC2H2CSCH2CHSCNHCHCH2CHCH3CHCS2HFeH2SH2NFeC3HCHCH4CHFeSHFeS2FeS2FeS2FeS2FeSFeS3FeS2FeH2C7H4C6H4C7H5C7H5C2HC3H5CH3CFeHNC4HC2H9CH2S2CHNC6H5CH2NH3CH2CHCH3CH3CHNC9H9CHC2H6CSC3HSCH4SCH2FeCHNC2NH4C3H3SC2H2CH3CH3CHCHCHC2NHSFeCHFeS2HCHC2FeS2H3FeSFeS2FeS2FeSFeS3HC3HFeS2FeS2NC3HC6H4C6H4C6H4C4HC2H3SHSHCHCHCHNHC7H3CHCHCHC2HC4HC2H2CH2CHFeCH3NC5FeH8CN2C2HCHCH4CHCHSH2C3H3S2HCSH2C4HSH4CH8CH5CHCFeH3CH3SH2SH3NCHC2H7CFeS2FeS2FeS2FeSFeS3C2HFeH2FeS2H2SHCSCFeC4HCH2C7H4C6H4CH5C3SH2C6H5CH3SHC3H6CNSC4H3CNHCHC5H2CH4C2H4CHNC7H11NFeC4HFeC3H6SH5CSCHCH3C2
_chemical_formula_sum              "Fe144 S288 H1296 C1080 N72"
_cell_length_a       54.8311
_cell_length_b       54.6953
_cell_length_c       69.6204
_cell_angle_alpha    91.1272
_cell_angle_beta     93.2146
_cell_angle_gamma    118.122

_space_group_name_H-M_alt    "P 1"
_space_group_IT_number       1

loop_
  _space_group_symop_operation_xyz
  'x, y, z'

loop_
  _atom_site_type_symbol
  _atom_site_label
  _atom_site_symmetry_multiplicity
  _atom_site_fract_x
  _atom_site_fract_y
  _atom_site_fract_z
  _atom_site_occupancy
  Fe  Fe1       1.0  0.30949  0.36261  0.22675  1.0000
  S   S1        1.0  0.31773  0.40583  0.21978  1.0000
  S   S2        1.0  0.30505  0.32716  0.20599  1.0000
  H   H1        1.0  0.13320  0.27528  0.07274  1.0000
  Fe  Fe2       1.0  0.06910  0.38019  0.22915  1.0000
  S   S3        1.0  0.10233  0.42449  0.23612  1.0000
  S   S4        1.0  0.06497  0.36690  0.19698  1.0000
  H   H2        1.0  0.01347  0.23517  0.02842  1.0000
  H   H3        1.0  0.19608  0.40462  0.21393  1.0000
  H   H4        1.0  0.33331  0.24213  0.16623  1.0000
  H   H5        1.0  0.99232  0.36193  0.13759  1.0000
  C   C1        1.0  0.32172  0.26212  0.14294  1.0000
  Fe  Fe3       1.0  0.23337  0.24696  0.09980  1.0000
  S   S5        1.0  0.21059  0.20295  0.10900  1.0000
  S   S6        1.0  0.25481  0.28752  0.11877  1.0000
  Fe  Fe4       1.0  0.21853  0.22811  0.05598  1.0000
  S   S7        1.0  0.19549  0.18313  0.06258  1.0000
  S   S8        1.0  0.21225  0.24084  0.02570  1.0000
  Fe  Fe5       1.0  0.17770  0.19736  0.08594  1.0000
  S   S9        1.0  0.13134  0.17401  0.08769  1.0000
  Fe  Fe6       1.0  0.23050  0.19259  0.08477  1.0000
  S   S10       1.0  0.25338  0.16713  0.08878  1.0000
  S   S11       1.0  0.19871  0.24175  0.07834  1.0000
  S   S12       1.0  0.25533  0.23716  0.07666  1.0000
  Fe  Fe7       1.0  0.02889  0.23435  0.09288  1.0000
  S   S13       1.0  0.01787  0.26902  0.09137  1.0000
  S   S14       1.0  0.07518  0.25064  0.09765  1.0000
  Fe  Fe8       1.0  0.20705  0.00384  0.08349  1.0000
  S   S15       1.0  0.19018  0.03459  0.08006  1.0000
  S   S16       1.0  0.25158  0.01369  0.08885  1.0000
  S   S17       1.0  0.24829  0.40692  0.22542  1.0000
  C   C2        1.0  0.34473  0.28365  0.17470  1.0000
  H   H6        1.0  0.33173  0.46305  0.20751  1.0000
  C   C3        1.0  0.05576  0.42731  0.19983  1.0000
  H   H7        1.0  0.25805  0.22948  0.01691  1.0000
  H   H8        1.0  0.01957  0.40876  0.15173  1.0000
  C   C4        1.0  0.23560  0.13028  0.08641  1.0000
  C   C5        1.0  0.25010  0.11536  0.09068  1.0000
  C   C6        1.0  0.23657  0.08607  0.08894  1.0000
  C   C7        1.0  0.20838  0.07142  0.08276  1.0000
  C   C8        1.0  0.19400  0.08638  0.07834  1.0000
  C   C9        1.0  0.20747  0.11561  0.08018  1.0000
  H   H9        1.0  0.27183  0.12650  0.09561  1.0000
  H   H10       1.0  0.24784  0.07485  0.09264  1.0000
  H   H11       1.0  0.17215  0.07527  0.07369  1.0000
  H   H12       1.0  0.19598  0.12676  0.07696  1.0000
  C   C10       1.0  0.11511  0.19432  0.09258  1.0000
  C   C11       1.0  0.08646  0.18335  0.08823  1.0000
  C   C12       1.0  0.07360  0.20014  0.09039  1.0000
  C   C13       1.0  0.08942  0.22786  0.09703  1.0000
  C   C14       1.0  0.11780  0.23844  0.10216  1.0000
  C   C15       1.0  0.13066  0.22177  0.09986  1.0000
  H   H13       1.0  0.07432  0.16203  0.08274  1.0000
  H   H14       1.0  0.05164  0.19180  0.08651  1.0000
  H   H15       1.0  0.13006  0.25979  0.10756  1.0000
  H   H16       1.0  0.15263  0.23019  0.10364  1.0000
  H   H17       1.0  0.99355  0.42619  0.20150  1.0000
  C   C16       1.0  0.04119  0.33745  0.18196  1.0000
  C   C17       1.0  0.01970  0.31394  0.18919  1.0000
  C   C18       1.0  0.00543  0.24029  0.01547  1.0000
  C   C19       1.0  0.00485  0.29137  0.15665  1.0000
  C   C20       1.0  0.02641  0.31483  0.14945  1.0000
  C   C21       1.0  0.04436  0.33768  0.16201  1.0000
  C   C22       1.0  0.34500  0.30840  0.16998  1.0000
  C   C23       1.0  0.33335  0.26078  0.16144  1.0000
  H   H18       1.0  0.06079  0.35577  0.15620  1.0000
  H   H19       1.0  0.21607  0.06446  0.00915  1.0000
  C   C24       1.0  0.28717  0.31588  0.18260  1.0000
  C   C25       1.0  0.27522  0.28759  0.17657  1.0000
  C   C26       1.0  0.26378  0.27824  0.15745  1.0000
  C   C27       1.0  0.26505  0.29723  0.14383  1.0000
  C   C28       1.0  0.27643  0.32542  0.14997  1.0000
  C   C29       1.0  0.28714  0.33466  0.16922  1.0000
  H   H20       1.0  0.27521  0.27285  0.18670  1.0000
  H   H21       1.0  0.25465  0.25647  0.15320  1.0000
  H   H22       1.0  0.27751  0.34037  0.13966  1.0000
  H   H23       1.0  0.29646  0.35650  0.17349  1.0000
  H   H24       1.0  0.33449  0.46785  0.24249  1.0000
  H   H25       1.0  0.27192  0.46881  0.22277  1.0000
  H   H26       1.0  0.30415  0.08973  0.03446  1.0000
  S   S18       1.0  0.99954  0.20930  0.06778  1.0000
  H   H27       1.0  0.02599  0.45275  0.21264  1.0000
  C   C30       1.0  0.31709  0.24510  0.10954  1.0000
  N   N1        1.0  0.02967  0.42558  0.19122  1.0000
  H   H28       1.0  0.24078  0.04984  0.05925  1.0000
  C   C31       1.0  0.15626  0.34286  0.24567  1.0000
  C   C32       1.0  0.99391  0.36554  0.15309  1.0000
  C   C33       1.0  0.17901  0.41040  0.23979  1.0000
  H   H29       1.0  0.00185  0.37594  0.20862  1.0000
  H   H30       1.0  0.31254  0.28997  0.12540  1.0000
  H   H31       1.0  0.06837  0.28583  0.00473  1.0000
  C   C34       1.0  0.22343  0.41002  0.23901  1.0000
  C   C35       1.0  0.28682  0.07314  0.04168  1.0000
  H   H32       1.0  0.26561  0.20948  0.11850  1.0000
  C   C36       1.0  0.07845  0.27293  0.03167  1.0000
  C   C37       1.0  0.03708  0.44834  0.17773  1.0000
  N   N2        1.0  0.14000  0.26084  0.04529  1.0000
  C   C38       1.0  0.22808  0.24048  0.00422  1.0000
  C   C39       1.0  0.12561  0.23138  0.05032  1.0000
  C   C40       1.0  0.16480  0.26528  0.03516  1.0000
  C   C41       1.0  0.12037  0.26723  0.03375  1.0000
  C   C42       1.0  0.09676  0.26608  0.04202  1.0000
  H   H33       1.0  0.31454  0.47790  0.19299  1.0000
  C   C43       1.0  0.12370  0.27435  0.01416  1.0000
  C   C44       1.0  0.19466  0.13920  0.01750  1.0000
  C   C45       1.0  0.01248  0.39754  0.18181  1.0000
  C   C46       1.0  0.24989  0.23402  0.00373  1.0000
  H   H34       1.0  0.15931  0.25086  0.02226  1.0000
  H   H35       1.0  0.14067  0.27525  0.00650  1.0000
  H   H36       1.0  0.11720  0.21720  0.03723  1.0000
  H   H37       1.0  0.10795  0.22689  0.05925  1.0000
  H   H38       1.0  0.13976  0.22546  0.05875  1.0000
  C   C47       1.0  0.15013  0.27873  0.06335  1.0000
  H   H39       1.0  0.42131  0.47577  0.22134  1.0000
  C   C48       1.0  0.18001  0.34012  0.24373  1.0000
  H   H40       1.0  0.09229  0.26000  0.05666  1.0000
  C   C49       1.0  0.25474  0.06214  0.01240  1.0000
  S   S19       1.0  0.27221  0.35345  0.24322  1.0000
  N   N3        1.0  0.07876  0.27664  0.15578  1.0000
  C   C50       1.0  0.08074  0.25188  0.14864  1.0000
  C   C51       1.0  0.05403  0.26647  0.16719  1.0000
  C   C52       1.0  0.07417  0.29019  0.13874  1.0000
  C   C53       1.0  0.10380  0.29709  0.16757  1.0000
  C   C54       1.0  0.10420  0.32076  0.17671  1.0000
  C   C55       1.0  0.12866  0.29490  0.16977  1.0000
  C   C56       1.0  0.12775  0.34077  0.18748  1.0000
  C   C57       1.0  0.15219  0.31514  0.18053  1.0000
  C   C58       1.0  0.15176  0.33802  0.18933  1.0000
  H   H41       1.0  0.08424  0.24060  0.16071  1.0000
  H   H42       1.0  0.06139  0.23681  0.14009  1.0000
  H   H43       1.0  0.09756  0.25754  0.13867  1.0000
  H   H44       1.0  0.04935  0.28324  0.17176  1.0000
  H   H45       1.0  0.05689  0.25675  0.18042  1.0000
  H   H46       1.0  0.03488  0.25084  0.15871  1.0000
  H   H47       1.0  0.09171  0.29702  0.12928  1.0000
  H   H48       1.0  0.05493  0.27583  0.12980  1.0000
  H   H49       1.0  0.07206  0.30877  0.14281  1.0000
  H   H50       1.0  0.08638  0.32429  0.17543  1.0000
  H   H51       1.0  0.13059  0.27791  0.16319  1.0000
  H   H52       1.0  0.12736  0.35865  0.19425  1.0000
  H   H53       1.0  0.17103  0.31321  0.18188  1.0000
  H   H54       1.0  0.17014  0.35380  0.19746  1.0000
  N   N4        1.0  0.25945  0.06900  0.03344  1.0000
  C   C59       1.0  0.25788  0.09488  0.03797  1.0000
  C   C60       1.0  0.23776  0.04598  0.04333  1.0000
  H   H55       1.0  0.16518  0.27460  0.07230  1.0000
  H   H56       1.0  0.18328  0.09628  0.01218  1.0000
  H   H57       1.0  0.05117  0.44790  0.16698  1.0000
  H   H58       1.0  0.06783  0.42386  0.18873  1.0000
  H   H59       1.0  0.21653  0.04271  0.03908  1.0000
  C   C61       1.0  0.33412  0.31049  0.15192  1.0000
  H   H60       1.0  0.18621  0.33813  0.22952  1.0000
  H   H61       1.0  0.26393  0.10193  0.05344  1.0000
  H   H62       1.0  0.16033  0.40858  0.23232  1.0000
  H   H63       1.0  0.23654  0.09220  0.03550  1.0000
  S   S20       1.0  0.99888  0.21118  0.11478  1.0000
  C   C62       1.0  0.08263  0.28044  0.01267  1.0000
  C   C63       1.0  0.01489  0.43081  0.20676  1.0000
  H   H64       1.0  0.28853  0.05366  0.04055  1.0000
  H   H65       1.0  0.33437  0.21987  0.13597  1.0000
  H   H66       1.0  0.29014  0.07917  0.05738  1.0000
  H   H67       1.0  0.30184  0.19630  0.12332  1.0000
  S   S21       1.0  0.03823  0.38564  0.24635  1.0000
  C   C64       1.0  0.27252  0.05551  0.00183  1.0000
  H   H68       1.0  0.06095  0.27254  0.03851  1.0000
  H   H69       1.0  0.20534  0.18239  0.01856  1.0000
  C   C65       1.0  0.31191  0.21382  0.13446  1.0000
  C   C66       1.0  0.00958  0.39243  0.16147  1.0000
  C   C67       1.0  0.27732  0.22822  0.12838  1.0000
  N   N5        1.0  0.30748  0.23771  0.12916  1.0000
  H   H70       1.0  0.17661  0.28706  0.03082  1.0000
  Fe  Fe9       1.0  0.28198  0.39730  0.23791  1.0000
  H   H71       1.0  0.26918  0.22281  0.14285  1.0000
  C   C68       1.0  0.32238  0.28770  0.13865  1.0000
  H   H72       1.0  0.35273  0.28206  0.18896  1.0000
  H   H73       1.0  0.16058  0.30112  0.06019  1.0000
  C   C69       1.0  0.00148  0.29123  0.17658  1.0000
  H   H74       1.0  0.33342  0.32945  0.14857  1.0000
  H   H75       1.0  0.27187  0.11211  0.02924  1.0000
  H   H76       1.0  0.01820  0.44726  0.17006  1.0000
  H   H77       1.0  0.01347  0.41843  0.21954  1.0000
  H   H78       1.0  0.23816  0.02621  0.04006  1.0000
  H   H79       1.0  0.01691  0.31336  0.20447  1.0000
  H   H80       1.0  0.30236  0.20499  0.14806  1.0000
  H   H81       1.0  0.31109  0.26016  0.10319  1.0000
  H   H82       1.0  0.27214  0.24447  0.12320  1.0000
  H   H83       1.0  0.30762  0.22662  0.09918  1.0000
  H   H84       1.0  0.19720  0.13853  0.03303  1.0000
  C   C70       1.0  0.19926  0.40810  0.22943  1.0000
  H   H85       1.0  0.34004  0.25427  0.10972  1.0000
  H   H86       1.0  0.35276  0.32570  0.18057  1.0000
  H   H87       1.0  0.06918  0.44774  0.20768  1.0000
  H   H88       1.0  0.02897  0.31554  0.13414  1.0000
  H   H89       1.0  0.05165  0.41113  0.21036  1.0000
  H   H90       1.0  0.29034  0.05473  0.00858  1.0000
  H   H91       1.0  0.17959  0.26136  0.04453  1.0000
  C   C71       1.0  0.99930  0.37404  0.19308  1.0000
  H   H92       1.0  0.29499  0.44806  0.20660  1.0000
  H   H93       1.0  0.11178  0.19291  0.00433  1.0000
  C   C72       1.0  0.31442  0.46827  0.20693  1.0000
  Fe  Fe10      1.0  0.98668  0.24510  0.11246  1.0000
  C   C73       1.0  0.98640  0.25042  0.01672  1.0000
  C   C74       1.0  0.23108  0.06080  0.00195  1.0000
  C   C75       1.0  0.19919  0.16389  0.00933  1.0000
  Fe  Fe11      1.0  0.34527  0.42109  0.24757  1.0000
  H   H94       1.0  0.14387  0.34294  0.23301  1.0000
  C   C76       1.0  0.10503  0.28087  0.00387  1.0000
  Fe  Fe12      1.0  0.98598  0.24194  0.06778  1.0000
  H   H95       1.0  0.04861  0.46916  0.18544  1.0000
  C   C77       1.0  0.98339  0.34734  0.18454  1.0000
  H   H96       1.0  0.98473  0.27333  0.18233  1.0000
  C   C78       1.0  0.18688  0.11545  0.00570  1.0000
  S   S22       1.0  0.26999  0.99446  0.03788  1.0000
  C   C79       1.0  0.31758  0.47364  0.24162  1.0000
  N   N6        1.0  0.31658  0.48693  0.22345  1.0000
  S   S23       1.0  0.06018  0.46493  0.24850  1.0000
  H   H97       1.0  0.29794  0.45418  0.24311  1.0000
  H   H98       1.0  0.29627  0.99160  0.00425  1.0000
  C   C80       1.0  0.25803  0.98868  0.01314  1.0000
  S   S24       1.0  0.98109  0.26230  0.14135  1.0000
  Fe  Fe13      1.0  0.30200  0.37077  0.26957  1.0000
  S   S25       1.0  0.30928  0.41454  0.26522  1.0000
  S   S26       1.0  0.28733  0.35442  0.29942  1.0000
  C   C81       1.0  0.19617  0.34656  0.31453  1.0000
  Fe  Fe14      1.0  0.05511  0.37148  0.27191  1.0000
  S   S27       1.0  0.08655  0.41559  0.28125  1.0000
  S   S28       1.0  0.02516  0.33615  0.29002  1.0000
  S   S29       1.0  0.15811  0.41782  0.27363  1.0000
  H   H99       1.0  0.19397  0.36561  0.31693  1.0000
  H   H100      1.0  0.18414  0.16690  0.49098  1.0000
  Fe  Fe15      1.0  0.22648  0.00564  0.38648  1.0000
  S   S30       1.0  0.24634  0.05217  0.38204  1.0000
  Fe  Fe16      1.0  0.20410  0.17520  0.39198  1.0000
  S   S31       1.0  0.24787  0.20822  0.40020  1.0000
  S   S32       1.0  0.18717  0.12824  0.38765  1.0000
  Fe  Fe17      1.0  0.18288  0.21822  0.39008  1.0000
  S   S33       1.0  0.22513  0.25365  0.39831  1.0000
  S   S34       1.0  0.15102  0.23216  0.38193  1.0000
  Fe  Fe18      1.0  0.24042  0.23345  0.37716  1.0000
  S   S35       1.0  0.26820  0.25221  0.35205  1.0000
  Fe  Fe19      1.0  0.22803  0.22532  0.42050  1.0000
  S   S36       1.0  0.24380  0.24382  0.45134  1.0000
  S   S37       1.0  0.19781  0.19913  0.36794  1.0000
  S   S38       1.0  0.18467  0.19107  0.41335  1.0000
  Fe  Fe20      1.0  0.01239  0.20864  0.41513  1.0000
  S   S39       1.0  0.04179  0.19287  0.42583  1.0000
  S   S40       1.0  0.02033  0.25213  0.42179  1.0000
  C   C82       1.0  0.07164  0.20319  0.41317  1.0000
  C   C83       1.0  0.07922  0.22443  0.40030  1.0000
  C   C84       1.0  0.10383  0.23328  0.39098  1.0000
  C   C85       1.0  0.12057  0.22052  0.39412  1.0000
  C   C86       1.0  0.11278  0.19899  0.40678  1.0000
  C   C87       1.0  0.08850  0.19058  0.41647  1.0000
  H   H101      1.0  0.06645  0.23445  0.39795  1.0000
  H   H102      1.0  0.11011  0.25026  0.38149  1.0000
  H   H103      1.0  0.12533  0.18872  0.40903  1.0000
  H   H104      1.0  0.08256  0.17403  0.42635  1.0000
  C   C88       1.0  0.22964  0.07291  0.38505  1.0000
  C   C89       1.0  0.24579  0.10196  0.38728  1.0000
  C   C90       1.0  0.23325  0.11921  0.38887  1.0000
  C   C91       1.0  0.20433  0.10760  0.38768  1.0000
  C   C92       1.0  0.18822  0.07855  0.38554  1.0000
  C   C93       1.0  0.20076  0.06125  0.38444  1.0000
  H   H105      1.0  0.26815  0.11118  0.38785  1.0000
  H   H106      1.0  0.24594  0.14145  0.39086  1.0000
  H   H107      1.0  0.16585  0.06938  0.38444  1.0000
  H   H108      1.0  0.18806  0.03897  0.38264  1.0000
  C   C94       1.0  0.23113  0.22756  0.47321  1.0000
  C   C95       1.0  0.20971  0.20027  0.47339  1.0000
  H   H109      1.0  0.20053  0.18834  0.45993  1.0000
  H   H110      1.0  0.16529  0.23237  0.42453  1.0000
  C   C96       1.0  0.02632  0.32357  0.31351  1.0000
  C   C97       1.0  0.04919  0.33696  0.32696  1.0000
  C   C98       1.0  0.04911  0.32592  0.34522  1.0000
  C   C99       1.0  0.02631  0.30123  0.35036  1.0000
  H   H111      1.0  0.16795  0.29955  0.42378  1.0000
  C   C100      1.0  0.00347  0.29896  0.31869  1.0000
  H   H112      1.0  0.06692  0.35591  0.32334  1.0000
  H   H113      1.0  0.06695  0.33660  0.35542  1.0000
  C   C101      1.0  0.28180  0.32536  0.31348  1.0000
  C   C102      1.0  0.26945  0.32257  0.33110  1.0000
  C   C103      1.0  0.26439  0.30000  0.34276  1.0000
  C   C104      1.0  0.27227  0.28013  0.33723  1.0000
  C   C105      1.0  0.28475  0.28298  0.31966  1.0000
  C   C106      1.0  0.28922  0.30522  0.30776  1.0000
  H   H114      1.0  0.26394  0.33812  0.33588  1.0000
  H   H115      1.0  0.25508  0.29839  0.35629  1.0000
  H   H116      1.0  0.29117  0.26796  0.31522  1.0000
  H   H117      1.0  0.29885  0.30703  0.29435  1.0000
  C   C107      1.0  0.20754  0.41777  0.26931  1.0000
  H   H118      1.0  0.24639  0.41721  0.26640  1.0000
  H   H119      1.0  0.21091  0.42183  0.28475  1.0000
  N   N7        1.0  0.24704  0.17066  0.33552  1.0000
  C   C108      1.0  0.22408  0.17624  0.32872  1.0000
  C   C109      1.0  0.25270  0.17702  0.35660  1.0000
  C   C110      1.0  0.27222  0.19026  0.32619  1.0000
  C   C111      1.0  0.23903  0.14106  0.33146  1.0000
  C   C112      1.0  0.21531  0.11998  0.33936  1.0000
  C   C113      1.0  0.25472  0.13224  0.32032  1.0000
  C   C114      1.0  0.20808  0.09194  0.33668  1.0000
  C   C115      1.0  0.24718  0.10405  0.31764  1.0000
  C   C116      1.0  0.22405  0.08398  0.32594  1.0000
  H   H120      1.0  0.20501  0.16436  0.33639  1.0000
  H   H121      1.0  0.22977  0.19858  0.33121  1.0000
  H   H122      1.0  0.21851  0.17080  0.31305  1.0000
  H   H123      1.0  0.23377  0.16579  0.36454  1.0000
  H   H124      1.0  0.26064  0.19947  0.36030  1.0000
  H   H125      1.0  0.26847  0.17128  0.36255  1.0000
  H   H126      1.0  0.26923  0.18709  0.31023  1.0000
  H   H127      1.0  0.27738  0.21231  0.32950  1.0000
  H   H128      1.0  0.29077  0.18840  0.33148  1.0000
  H   H129      1.0  0.20247  0.12506  0.34811  1.0000
  H   H130      1.0  0.27301  0.14670  0.31367  1.0000
  H   H131      1.0  0.19022  0.07636  0.34331  1.0000
  H   H132      1.0  0.25947  0.09774  0.30920  1.0000
  H   H133      1.0  0.21848  0.06220  0.32416  1.0000
  C   C117      1.0  0.16284  0.99456  0.43925  1.0000
  N   N8        1.0  0.20808  0.34647  0.29588  1.0000
  H   H134      1.0  0.23165  0.39097  0.29619  1.0000
  H   H135      1.0  0.09639  0.29923  0.27068  1.0000
  H   H136      1.0  0.23204  0.05170  0.48507  1.0000
  C   C118      1.0  0.00344  0.28783  0.33690  1.0000
  H   H137      1.0  0.15944  0.35238  0.29388  1.0000
  H   H138      1.0  0.98559  0.28836  0.30850  1.0000
  C   C119      1.0  0.16975  0.23452  0.44044  1.0000
  H   H139      1.0  0.21903  0.27963  0.44173  1.0000
  H   H140      1.0  0.18754  0.23042  0.44365  1.0000
  H   H141      1.0  0.15159  0.21767  0.44673  1.0000
  N   N9        1.0  0.06657  0.24944  0.33802  1.0000
  C   C120      1.0  0.03581  0.23500  0.33796  1.0000
  C   C121      1.0  0.07602  0.22852  0.34205  1.0000
  C   C122      1.0  0.07811  0.27096  0.35403  1.0000
  C   C123      1.0  0.07525  0.26294  0.31957  1.0000
  C   C124      1.0  0.09462  0.25974  0.30841  1.0000
  C   C125      1.0  0.06473  0.28055  0.31247  1.0000
  C   C126      1.0  0.10215  0.27280  0.29098  1.0000
  C   C127      1.0  0.07236  0.29349  0.29509  1.0000
  C   C128      1.0  0.09087  0.28945  0.28429  1.0000
  H   H142      1.0  0.02850  0.22224  0.35071  1.0000
  H   H143      1.0  0.02708  0.24964  0.33872  1.0000
  H   H144      1.0  0.02605  0.22102  0.32483  1.0000
  H   H145      1.0  0.06847  0.21202  0.33028  1.0000
  H   H146      1.0  0.06808  0.21792  0.35559  1.0000
  H   H147      1.0  0.09903  0.23814  0.34422  1.0000
  H   H148      1.0  0.07192  0.28744  0.35199  1.0000
  H   H149      1.0  0.07054  0.26204  0.36810  1.0000
  H   H150      1.0  0.10116  0.28138  0.35533  1.0000
  H   H151      1.0  0.10410  0.24714  0.31277  1.0000
  H   H152      1.0  0.05042  0.28448  0.32032  1.0000
  S   S41       1.0  0.25286  0.99108  0.40378  1.0000
  H   H153      1.0  0.06368  0.30666  0.29000  1.0000
  C   C129      1.0  0.28434  0.04372  0.33764  1.0000
  C   C130      1.0  0.31532  0.02274  0.33321  1.0000
  H   H154      1.0  0.27659  0.05334  0.34836  1.0000
  N   N10       1.0  0.30450  0.03574  0.34687  1.0000
  H   H155      1.0  0.17558  0.32795  0.31529  1.0000
  H   H156      1.0  0.32011  0.07179  0.36648  1.0000
  H   H157      1.0  0.22513  0.32150  0.30858  1.0000
  S   S42       1.0  0.02848  0.28738  0.37319  1.0000
  N   N11       1.0  0.17596  0.26254  0.44789  1.0000
  C   C131      1.0  0.18369  0.26508  0.46890  1.0000
  H   H158      1.0  0.30417  0.01079  0.37086  1.0000
  C   C132      1.0  0.31768  0.00584  0.30074  1.0000
  C   C133      1.0  0.32773  0.06115  0.35646  1.0000
  C   C134      1.0  0.18985  0.34497  0.27888  1.0000
  H   H159      1.0  0.19391  0.30239  0.29322  1.0000
  C   C135      1.0  0.30723  0.01851  0.31312  1.0000
  C   C136      1.0  0.23480  0.37232  0.29578  1.0000
  H   H160      1.0  0.21114  0.12362  0.49363  1.0000
  C   C137      1.0  0.18304  0.41518  0.25982  1.0000
  Fe  Fe21      1.0  0.11447  0.40771  0.26203  1.0000
  H   H161      1.0  0.34102  0.01545  0.35508  1.0000
  H   H162      1.0  0.20677  0.30462  0.44355  1.0000
  H   H163      1.0  0.19700  0.28091  0.42250  1.0000
  H   H164      1.0  0.25935  0.26379  0.49099  1.0000
  C   C138      1.0  0.20067  0.28295  0.43851  1.0000
  C   C139      1.0  0.15110  0.26635  0.44420  1.0000
  H   H165      1.0  0.11666  0.26985  0.28253  1.0000
  H   H166      1.0  0.20984  0.34647  0.32698  1.0000
  H   H167      1.0  0.24920  0.37440  0.30840  1.0000
  H   H168      1.0  0.22685  0.32320  0.28344  1.0000
  C   C140      1.0  0.20047  0.18814  0.49105  1.0000
  C   C141      1.0  0.16569  0.34813  0.28033  1.0000
  C   C142      1.0  0.21354  0.32232  0.29518  1.0000
  Fe  Fe22      1.0  0.00219  0.24996  0.39125  1.0000
  C   C143      1.0  0.29015  0.01608  0.36179  1.0000
  C   C144      1.0  0.00470  0.25114  0.48377  1.0000
  H   H169      1.0  0.01601  0.25180  0.47137  1.0000
  C   C145      1.0  0.14928  0.34709  0.26390  1.0000
  C   C146      1.0  0.33437  0.01352  0.33996  1.0000
  H   H170      1.0  0.28057  0.02462  0.37181  1.0000
  H   H171      1.0  0.21418  0.08134  0.48739  1.0000
  H   H172      1.0  0.31056  0.00181  0.28558  1.0000
  C   C147      1.0  0.19670  0.34135  0.26004  1.0000
  S   S43       1.0  0.38437  0.46496  0.25331  1.0000
  C   C148      1.0  0.10241  0.27183  0.43713  1.0000
  H   H173      1.0  0.27448  0.00197  0.49907  1.0000
  H   H174      1.0  0.13965  0.04299  0.41317  1.0000
  H   H175      1.0  0.18714  0.06223  0.42850  1.0000
  C   C149      1.0  0.12625  0.24931  0.45299  1.0000
  C   C150      1.0  0.18109  0.02297  0.43869  1.0000
  H   H176      1.0  0.20209  0.03143  0.44520  1.0000
  H   H177      1.0  0.29241  0.02418  0.30664  1.0000
  C   C151      1.0  0.15040  0.28617  0.43155  1.0000
  S   S44       1.0  0.08372  0.36328  0.25390  1.0000
  C   C152      1.0  0.24276  0.24266  0.49093  1.0000
  H   H178      1.0  0.20328  0.26384  0.47196  1.0000
  H   H179      1.0  0.34244  0.05652  0.36530  1.0000
  H   H180      1.0  0.18688  0.28525  0.47533  1.0000
  C   C153      1.0  0.22758  0.41504  0.25898  1.0000
  H   H181      1.0  0.24591  0.37302  0.28272  1.0000
  S   S45       1.0  0.33952  0.37795  0.25365  1.0000
  H   H182      1.0  0.08359  0.27338  0.43406  1.0000
  H   H183      1.0  0.21790  0.01731  0.49293  1.0000
  H   H184      1.0  0.29388  0.05920  0.32659  1.0000
  H   H185      1.0  0.33972  0.07615  0.34569  1.0000
  C   C154      1.0  0.21655  0.03697  0.49449  1.0000
  H   H186      1.0  0.08323  0.23811  0.45567  1.0000
  H   H187      1.0  0.98571  0.26887  0.34049  1.0000
  C   C155      1.0  0.17276  0.04030  0.42925  1.0000
  H   H188      1.0  0.11644  0.19372  0.48786  1.0000
  H   H189      1.0  0.16779  0.24815  0.47680  1.0000
  H   H190      1.0  0.19530  0.03217  0.48882  1.0000
  C   C156      1.0  0.10233  0.25207  0.44946  1.0000
  H   H191      1.0  0.10732  0.99343  0.41353  1.0000
  C   C157      1.0  0.14603  0.02935  0.42046  1.0000
  C   C158      1.0  0.34463  0.00085  0.32744  1.0000
  C   C159      1.0  0.12636  0.28881  0.42819  1.0000
  H   H192      1.0  0.12606  0.30371  0.41827  1.0000
  H   H193      1.0  0.12486  0.23314  0.46221  1.0000
  H   H194      1.0  0.07902  0.20187  0.49770  1.0000
  C   C160      1.0  0.12773  0.00091  0.42070  1.0000
  S   S46       1.0  0.99711  0.20724  0.38434  1.0000
  H   H195      1.0  0.26564  0.02522  0.33094  1.0000
  C   C161      1.0  0.33631  0.99705  0.30787  1.0000
  H   H196      1.0  0.13174  0.35093  0.26530  1.0000
  Fe  Fe23      1.0  0.07211  0.42965  0.25442  1.0000
  H   H197      1.0  0.35852  0.99325  0.33300  1.0000
  H   H198      1.0  0.27348  0.99621  0.35502  1.0000
  H   H199      1.0  0.21551  0.34028  0.25772  1.0000
  H   H200      1.0  0.32104  0.48772  0.25442  1.0000
  H   H201      1.0  0.02133  0.48778  0.31334  1.0000
  H   H202      1.0  0.25596  0.98863  0.46485  1.0000
  Fe  Fe24      1.0  0.36991  0.04906  0.72285  1.0000
  S   S47       1.0  0.34068  0.01759  0.69894  1.0000
  S   S48       1.0  0.41501  0.07973  0.72072  1.0000
  Fe  Fe25      1.0  0.36746  0.30654  0.72620  1.0000
  S   S49       1.0  0.40768  0.30455  0.72535  1.0000
  S   S50       1.0  0.32931  0.29016  0.70437  1.0000
  H   H203      1.0  0.25480  0.03647  0.51819  1.0000
  H   H204      1.0  0.25476  0.30659  0.60973  1.0000
  C   C162      1.0  0.09279  0.20966  0.52855  1.0000
  H   H205      1.0  0.06101  0.26007  0.67161  1.0000
  H   H206      1.0  0.19755  0.25852  0.63597  1.0000
  Fe  Fe26      1.0  0.00222  0.19836  0.59312  1.0000
  S   S51       1.0  0.02897  0.17748  0.59918  1.0000
  S   S52       1.0  0.01866  0.24424  0.59628  1.0000
  Fe  Fe27      1.0  0.20886  0.19892  0.56282  1.0000
  S   S53       1.0  0.16976  0.17830  0.57861  1.0000
  S   S54       1.0  0.19999  0.18624  0.53051  1.0000
  Fe  Fe28      1.0  0.24494  0.22639  0.60111  1.0000
  S   S55       1.0  0.20813  0.20839  0.61872  1.0000
  S   S56       1.0  0.28896  0.25193  0.61561  1.0000
  Fe  Fe29      1.0  0.19541  0.16921  0.60070  1.0000
  S   S57       1.0  0.18350  0.13049  0.61700  1.0000
  Fe  Fe30      1.0  0.18592  0.21922  0.59499  1.0000
  S   S58       1.0  0.16093  0.24171  0.60094  1.0000
  S   S59       1.0  0.23327  0.18640  0.58403  1.0000
  S   S60       1.0  0.22392  0.24067  0.57825  1.0000
  H   H207      1.0  0.22092  0.11740  0.55441  1.0000
  S   S61       1.0  0.16731  0.02508  0.56737  1.0000
  S   S62       1.0  0.23213  0.01867  0.57876  1.0000
  H   H208      1.0  0.28534  0.33322  0.69706  1.0000
  H   H209      1.0  0.02621  0.25034  0.66285  1.0000
  C   C163      1.0  0.21235  0.20310  0.50878  1.0000
  C   C164      1.0  0.23343  0.23057  0.50861  1.0000
  C   C165      1.0  0.01786  0.25628  0.50250  1.0000
  H   H210      1.0  0.24282  0.24236  0.52208  1.0000
  C   C166      1.0  0.05349  0.19076  0.54806  1.0000
  C   C167      1.0  0.17780  0.10081  0.60316  1.0000
  C   C168      1.0  0.17479  0.10000  0.58305  1.0000
  C   C169      1.0  0.17085  0.07629  0.57227  1.0000
  C   C170      1.0  0.17119  0.05387  0.58146  1.0000
  C   C171      1.0  0.17450  0.05476  0.60157  1.0000
  C   C172      1.0  0.17715  0.07797  0.61240  1.0000
  H   H211      1.0  0.17498  0.11743  0.57583  1.0000
  H   H212      1.0  0.16766  0.07538  0.55674  1.0000
  H   H213      1.0  0.17428  0.03730  0.60875  1.0000
  H   H214      1.0  0.17896  0.07835  0.62797  1.0000
  H   H215      1.0  0.30647  0.23011  0.70675  1.0000
  C   C173      1.0  0.33454  0.13665  0.68395  1.0000
  H   H216      1.0  0.20936  0.27465  0.65947  1.0000
  C   C174      1.0  0.06562  0.19573  0.59934  1.0000
  C   C175      1.0  0.08018  0.22474  0.59979  1.0000
  C   C176      1.0  0.10935  0.23854  0.60007  1.0000
  C   C177      1.0  0.12421  0.22350  0.59960  1.0000
  C   C178      1.0  0.10961  0.19448  0.59870  1.0000
  C   C179      1.0  0.08048  0.18070  0.59875  1.0000
  H   H217      1.0  0.06906  0.23659  0.60018  1.0000
  H   H218      1.0  0.12046  0.26099  0.60075  1.0000
  H   H219      1.0  0.12077  0.18262  0.59838  1.0000
  H   H220      1.0  0.06941  0.15824  0.59832  1.0000
  C   C180      1.0  0.31903  0.27716  0.67991  1.0000
  C   C181      1.0  0.29050  0.26189  0.67425  1.0000
  C   C182      1.0  0.28103  0.25287  0.65483  1.0000
  C   C183      1.0  0.29994  0.25974  0.64063  1.0000
  C   C184      1.0  0.32850  0.27427  0.64635  1.0000
  C   C185      1.0  0.33803  0.28268  0.66588  1.0000
  H   H221      1.0  0.27557  0.25740  0.68495  1.0000
  H   H222      1.0  0.25910  0.24118  0.65078  1.0000
  H   H223      1.0  0.34338  0.27961  0.63553  1.0000
  H   H224      1.0  0.36002  0.29444  0.66992  1.0000
  C   C186      1.0  0.31868  0.02057  0.68018  1.0000
  C   C187      1.0  0.28300  0.02323  0.64976  1.0000
  C   C188      1.0  0.29872  0.04612  0.66286  1.0000
  C   C189      1.0  0.31641  0.04484  0.67795  1.0000
  H   H225      1.0  0.29726  0.06502  0.66128  1.0000
  H   H226      1.0  0.32839  0.06265  0.68779  1.0000
  H   H227      1.0  0.34008  0.20021  0.73803  1.0000
  H   H228      1.0  0.47832  0.11098  0.73149  1.0000
  H   H229      1.0  0.98468  0.26905  0.68015  1.0000
  C   C190      1.0  0.21922  0.07327  0.51782  1.0000
  C   C191      1.0  0.28512  0.99893  0.65209  1.0000
  C   C192      1.0  0.35613  0.23247  0.70795  1.0000
  S   S63       1.0  0.02038  0.26198  0.54210  1.0000
  H   H230      1.0  0.99905  0.34315  0.68840  1.0000
  C   C193      1.0  0.21592  0.12305  0.52435  1.0000
  H   H231      1.0  0.22092  0.27763  0.60855  1.0000
  C   C194      1.0  0.24472  0.08311  0.62648  1.0000
  H   H232      1.0  0.01880  0.40522  0.68852  1.0000
  H   H233      1.0  0.24300  0.31259  0.67558  1.0000
  H   H234      1.0  0.04407  0.17023  0.54000  1.0000
  H   H235      1.0  0.03650  0.19335  0.55427  1.0000
  H   H236      1.0  0.18109  0.02178  0.52377  1.0000
  H   H237      1.0  0.24970  0.27357  0.61816  1.0000
  H   H238      1.0  0.21930  0.32068  0.64912  1.0000
  C   C195      1.0  0.32335  0.20200  0.72940  1.0000
  H   H239      1.0  0.35506  0.25117  0.71349  1.0000
  C   C196      1.0  0.21655  0.27045  0.64582  1.0000
  C   C197      1.0  0.00685  0.39286  0.67523  1.0000
  C   C198      1.0  0.21966  0.10920  0.53986  1.0000
  H   H240      1.0  0.25658  0.08464  0.64036  1.0000
  S   S64       1.0  0.26130  0.02639  0.63086  1.0000
  H   H241      1.0  0.26636  0.07225  0.51356  1.0000
  C   C199      1.0  0.22125  0.08466  0.53673  1.0000
  C   C200      1.0  0.30734  0.21223  0.69943  1.0000
  C   C201      1.0  0.00330  0.25523  0.51873  1.0000
  C   C202      1.0  0.41815  0.22361  0.73786  1.0000
  H   H242      1.0  0.32160  0.21946  0.73655  1.0000
  C   C203      1.0  0.31185  0.33501  0.67504  1.0000
  H   H243      1.0  0.33039  0.34356  0.68482  1.0000
  C   C204      1.0  0.25099  0.05440  0.52116  1.0000
  H   H244      1.0  0.20824  0.02982  0.54218  1.0000
  H   H245      1.0  0.03943  0.26128  0.50439  1.0000
  H   H246      1.0  0.11409  0.21477  0.55707  1.0000
  C   C205      1.0  0.26223  0.31684  0.66954  1.0000
  N   N12       1.0  0.06976  0.21362  0.53554  1.0000
  C   C206      1.0  0.05030  0.21380  0.51987  1.0000
  H   H247      1.0  0.25569  0.05955  0.53691  1.0000
  C   C207      1.0  0.08096  0.24044  0.54691  1.0000
  H   H248      1.0  0.29769  0.17112  0.67678  1.0000
  C   C208      1.0  0.31335  0.32914  0.65573  1.0000
  H   H249      1.0  0.44001  0.20987  0.71924  1.0000
  C   C209      1.0  0.20277  0.02537  0.52648  1.0000
  C   C210      1.0  0.33089  0.18296  0.69991  1.0000
  C   C211      1.0  0.24087  0.28821  0.61761  1.0000
  S   S65       1.0  0.98171  0.19381  0.56357  1.0000
  S   S66       1.0  0.98170  0.25380  0.63997  1.0000
  C   C212      1.0  0.42576  0.20418  0.73049  1.0000
  C   C213      1.0  0.11408  0.21082  0.54178  1.0000
  H   H250      1.0  0.15301  0.19643  0.51173  1.0000
  H   H251      1.0  0.06123  0.23058  0.50987  1.0000
  C   C214      1.0  0.13558  0.20634  0.53566  1.0000
  H   H252      1.0  0.09333  0.24107  0.56026  1.0000
  H   H253      1.0  0.06407  0.24455  0.55169  1.0000
  N   N13       1.0  0.23687  0.29616  0.63724  1.0000
  Fe  Fe31      1.0  0.99611  0.23936  0.56722  1.0000
  H   H254      1.0  0.01980  0.18324  0.67566  1.0000
  S   S67       1.0  0.35998  0.07973  0.73760  1.0000
  H   H255      1.0  0.02090  0.38659  0.66813  1.0000
  N   N14       1.0  0.03873  0.21877  0.65808  1.0000
  C   C215      1.0  0.01673  0.20496  0.64230  1.0000
  Fe  Fe32      1.0  0.40543  0.10931  0.73769  1.0000
  C   C216      1.0  0.04495  0.24832  0.65973  1.0000
  C   C217      1.0  0.06305  0.21501  0.65408  1.0000
  C   C218      1.0  0.06036  0.18792  0.65220  1.0000
  C   C219      1.0  0.08973  0.23764  0.65175  1.0000
  C   C220      1.0  0.11217  0.23318  0.64794  1.0000
  C   C221      1.0  0.10878  0.20633  0.64629  1.0000
  H   H256      1.0  0.02464  0.21331  0.62824  1.0000
  H   H257      1.0  0.20293  0.00538  0.52346  1.0000
  H   H258      1.0  0.36485  0.18656  0.71968  1.0000
  C   C222      1.0  0.21396  0.11257  0.50561  1.0000
  H   H259      1.0  0.13213  0.25057  0.64555  1.0000
  H   H260      1.0  0.30113  0.13150  0.66382  1.0000
  H   H261      1.0  0.30370  0.18256  0.73084  1.0000
  C   C223      1.0  0.09435  0.20355  0.50882  1.0000
  S   S68       1.0  0.42502  0.15361  0.72811  1.0000
  H   H262      1.0  0.04398  0.21509  0.68854  1.0000
  H   H263      1.0  0.05176  0.25871  0.64597  1.0000
  C   C224      1.0  0.31503  0.14383  0.67599  1.0000
  H   H264      1.0  0.30985  0.02111  0.72979  1.0000
  H   H265      1.0  0.23393  0.06076  0.62144  1.0000
  C   C225      1.0  0.28636  0.32896  0.68193  1.0000
  H   H266      1.0  0.29205  0.31175  0.62869  1.0000
  H   H267      1.0  0.46983  0.43296  0.74326  1.0000
  H   H268      1.0  0.33316  0.33328  0.65055  1.0000
  C   C226      1.0  0.28932  0.31665  0.64327  1.0000
  H   H269      1.0  0.31132  0.21772  0.68418  1.0000
  H   H270      1.0  0.36228  0.23610  0.69288  1.0000
  H   H271      1.0  0.03937  0.19355  0.51146  1.0000
  N   N15       1.0  0.32926  0.20691  0.70887  1.0000
  H   H272      1.0  0.36771  0.14687  0.70582  1.0000
  H   H273      1.0  0.15151  0.20712  0.54605  1.0000
  C   C227      1.0  0.22471  0.31518  0.63512  1.0000
  H   H274      1.0  0.23951  0.33489  0.62890  1.0000
  C   C228      1.0  0.31319  0.16671  0.68372  1.0000
  H   H275      1.0  0.20528  0.30563  0.62539  1.0000
  H   H276      1.0  0.22568  0.25648  0.64893  1.0000
  N   N16       1.0  0.26320  0.10086  0.61208  1.0000
  C   C229      1.0  0.24651  0.09669  0.59359  1.0000
  C   C230      1.0  0.28361  0.09086  0.60867  1.0000
  C   C231      1.0  0.27606  0.13042  0.61896  1.0000
  C   C232      1.0  0.25924  0.14328  0.62204  1.0000
  C   C233      1.0  0.30522  0.14739  0.62247  1.0000
  C   C234      1.0  0.27083  0.17149  0.62752  1.0000
  C   C235      1.0  0.31661  0.17559  0.62809  1.0000
  C   C236      1.0  0.29947  0.18767  0.63039  1.0000
  H   H277      1.0  0.22827  0.08865  0.62959  1.0000
  H   H278      1.0  0.22937  0.10183  0.59505  1.0000
  H   H279      1.0  0.23640  0.07465  0.58798  1.0000
  H   H280      1.0  0.25957  0.10992  0.58242  1.0000
  H   H281      1.0  0.29577  0.09154  0.62223  1.0000
  H   H282      1.0  0.27318  0.06872  0.60323  1.0000
  H   H283      1.0  0.29802  0.10290  0.59771  1.0000
  H   H284      1.0  0.23689  0.13172  0.61991  1.0000
  H   H285      1.0  0.31971  0.13947  0.62077  1.0000
  H   H286      1.0  0.25748  0.18095  0.62915  1.0000
  H   H287      1.0  0.33891  0.18832  0.63034  1.0000
  H   H288      1.0  0.30835  0.20970  0.63417  1.0000
  C   C237      1.0  0.41503  0.17746  0.73762  1.0000
  C   C238      1.0  0.35064  0.17515  0.70749  1.0000
  N   N17       1.0  0.22220  0.04792  0.51487  1.0000
  H   H289      1.0  0.33586  0.11885  0.67801  1.0000
  H   H290      1.0  0.99842  0.20818  0.64444  1.0000
  H   H291      1.0  0.00897  0.18217  0.64086  1.0000
  H   H292      1.0  0.09439  0.25810  0.53827  1.0000
  H   H293      1.0  0.06649  0.18962  0.56045  1.0000
  H   H294      1.0  0.21447  0.14196  0.52685  1.0000
  H   H295      1.0  0.09372  0.25893  0.65238  1.0000
  H   H296      1.0  0.00990  0.20939  0.68015  1.0000
  C   C239      1.0  0.26288  0.30984  0.64988  1.0000
  Fe  Fe33      1.0  0.18609  0.99897  0.57891  1.0000
  H   H297      1.0  0.28639  0.19409  0.69996  1.0000
  H   H298      1.0  0.12601  0.20295  0.64271  1.0000
  H   H299      1.0  0.08016  0.16284  0.64645  1.0000
  H   H300      1.0  0.04058  0.16967  0.65318  1.0000
  C   C240      1.0  0.08292  0.18374  0.64838  1.0000
  C   C241      1.0  0.35240  0.15237  0.69963  1.0000
  H   H301      1.0  0.22392  0.07456  0.54925  1.0000
  C   C242      1.0  0.02768  0.20608  0.67640  1.0000
  S   S69       1.0  0.47251  0.37993  0.74464  1.0000
  C   C243      1.0  0.30280  0.99764  0.66719  1.0000
  Fe  Fe34      1.0  0.23134  0.99689  0.60607  1.0000
  H   H302      1.0  0.03378  0.21766  0.52568  1.0000
  H   H303      1.0  0.37324  0.23169  0.71683  1.0000
  C   C244      1.0  0.30226  0.01517  0.74436  1.0000
  H   H304      1.0  0.46578  0.13462  0.72425  1.0000
  Fe  Fe35      1.0  0.42690  0.34413  0.74505  1.0000
  H   H305      1.0  0.42656  0.24414  0.73234  1.0000
  C   C245      1.0  0.13647  0.20034  0.51628  1.0000
  S   S70       1.0  0.38704  0.34726  0.74423  1.0000
  H   H306      1.0  0.29038  0.02628  0.74772  1.0000
  Fe  Fe36      1.0  0.42390  0.06677  0.74965  1.0000
  C   C246      1.0  0.11591  0.19892  0.50289  1.0000
  C   C247      1.0  0.21567  0.08811  0.50227  1.0000
  S   S71       1.0  0.37897  0.03313  0.75077  1.0000
  H   H307      1.0  0.99676  0.36467  0.70734  1.0000
  H   H308      1.0  0.00303  0.40691  0.66558  1.0000
  H   H309      1.0  0.99048  0.40592  0.70956  1.0000
  C   C248      1.0  0.98605  0.35207  0.69382  1.0000
  H   H310      1.0  0.98435  0.34495  0.65527  1.0000
  Fe  Fe37      1.0  0.00783  0.21240  0.89093  1.0000
  S   S72       1.0  0.02368  0.25590  0.90306  1.0000
  S   S73       1.0  0.03584  0.19719  0.87821  1.0000
  Fe  Fe38      1.0  0.19482  0.23628  0.89405  1.0000
  S   S74       1.0  0.24146  0.26387  0.89763  1.0000
  S   S75       1.0  0.16672  0.25609  0.89726  1.0000
  Fe  Fe39      1.0  0.20036  0.18355  0.89221  1.0000
  S   S76       1.0  0.24641  0.20700  0.89574  1.0000
  S   S77       1.0  0.17807  0.13665  0.88989  1.0000
  Fe  Fe40      1.0  0.24035  0.23260  0.91864  1.0000
  S   S78       1.0  0.26576  0.23900  0.94694  1.0000
  Fe  Fe41      1.0  0.24362  0.23584  0.87416  1.0000
  S   S79       1.0  0.27179  0.24110  0.84948  1.0000
  S   S80       1.0  0.19418  0.20711  0.91653  1.0000
  S   S81       1.0  0.19697  0.21038  0.86923  1.0000
  Fe  Fe42      1.0  0.22897  0.02688  0.90465  1.0000
  S   S82       1.0  0.24396  0.07171  0.91409  1.0000
  S   S83       1.0  0.26138  0.01344  0.91092  1.0000
  C   C249      1.0  0.19587  0.16492  0.98936  1.0000
  S   S84       1.0  0.41564  0.09765  0.76664  1.0000
  C   C250      1.0  0.07662  0.23587  0.94250  1.0000
  N   N18       1.0  0.33386  0.27185  0.89544  1.0000
  Fe  Fe43      1.0  0.37044  0.06518  0.76562  1.0000
  S   S85       1.0  0.33840  0.05996  0.78774  1.0000
  H   H311      1.0  0.33810  0.24432  0.86192  1.0000
  H   H312      1.0  0.33362  0.23227  0.89396  1.0000
  H   H313      1.0  0.06354  0.16954  0.93239  1.0000
  Fe  Fe44      1.0  0.37669  0.32104  0.77034  1.0000
  S   S86       1.0  0.41709  0.31982  0.77204  1.0000
  S   S87       1.0  0.36154  0.33153  0.79787  1.0000
  C   C251      1.0  0.34992  0.28351  0.87846  1.0000
  H   H314      1.0  0.34730  0.02021  0.81161  1.0000
  C   C252      1.0  0.35020  0.26665  0.86272  1.0000
  H   H315      1.0  0.36483  0.26530  0.83478  1.0000
  H   H316      1.0  0.17117  0.17473  0.95685  1.0000
  H   H317      1.0  0.12521  0.22784  0.93849  1.0000
  H   H318      1.0  0.41644  0.39061  0.81653  1.0000
  H   H319      1.0  0.29894  0.27566  0.88340  1.0000
  N   N19       1.0  0.44975  0.40665  0.79747  1.0000
  H   H320      1.0  0.43282  0.36292  0.80230  1.0000
  H   H321      1.0  0.08431  0.28580  0.86976  1.0000
  H   H322      1.0  0.34124  0.27216  0.92627  1.0000
  H   H323      1.0  0.20170  0.25243  0.98728  1.0000
  Fe  Fe45      1.0  0.99791  0.23561  0.92798  1.0000
  C   C253      1.0  0.17378  0.11572  0.94483  1.0000
  H   H324      1.0  0.36600  0.32684  0.88838  1.0000
  C   C254      1.0  0.32222  0.04065  0.80805  1.0000
  C   C255      1.0  0.30028  0.04362  0.81547  1.0000
  C   C256      1.0  0.28692  0.02915  0.83161  1.0000
  S   S88       1.0  0.35457  0.28143  0.75245  1.0000
  H   H325      1.0  0.44062  0.39841  0.76689  1.0000
  C   C257      1.0  0.19683  0.11877  0.89607  1.0000
  C   C258      1.0  0.22300  0.13246  0.90602  1.0000
  C   C259      1.0  0.23688  0.11758  0.91180  1.0000
  C   C260      1.0  0.22502  0.08901  0.90730  1.0000
  C   C261      1.0  0.19898  0.07523  0.89720  1.0000
  C   C262      1.0  0.18480  0.09008  0.89177  1.0000
  H   H326      1.0  0.23257  0.15445  0.90943  1.0000
  H   H327      1.0  0.25708  0.12834  0.91957  1.0000
  H   H328      1.0  0.18970  0.05317  0.89364  1.0000
  H   H329      1.0  0.16450  0.07932  0.88413  1.0000
  C   C263      1.0  0.29553  0.26695  0.83485  1.0000
  C   C264      1.0  0.30516  0.25829  0.81910  1.0000
  C   C265      1.0  0.32476  0.27770  0.80745  1.0000
  C   C266      1.0  0.33530  0.30622  0.81145  1.0000
  C   C267      1.0  0.32561  0.31494  0.82716  1.0000
  C   C268      1.0  0.30581  0.29548  0.83876  1.0000
  H   H330      1.0  0.29746  0.23635  0.81590  1.0000
  H   H331      1.0  0.33200  0.27056  0.79552  1.0000
  H   H332      1.0  0.33356  0.33689  0.83045  1.0000
  H   H333      1.0  0.29871  0.30257  0.85077  1.0000
  H   H334      1.0  0.21901  0.18379  0.95508  1.0000
  C   C269      1.0  0.25094  0.23950  0.96887  1.0000
  C   C270      1.0  0.36554  0.27845  0.84690  1.0000
  C   C271      1.0  0.38073  0.32426  0.86121  1.0000
  C   C272      1.0  0.00437  0.24397  0.98045  1.0000
  H   H335      1.0  0.22093  0.25042  0.95622  1.0000
  C   C273      1.0  0.09178  0.19956  0.97887  1.0000
  H   H336      1.0  0.29961  0.27227  0.90908  1.0000
  C   C274      1.0  0.07227  0.21401  0.88324  1.0000
  C   C275      1.0  0.08736  0.20029  0.87823  1.0000
  C   C276      1.0  0.11628  0.21277  0.88252  1.0000
  C   C277      1.0  0.13042  0.23933  0.89157  1.0000
  C   C278      1.0  0.11535  0.25317  0.89637  1.0000
  C   C279      1.0  0.08641  0.24051  0.89237  1.0000
  H   H337      1.0  0.07660  0.17978  0.87114  1.0000
  H   H338      1.0  0.12765  0.20195  0.87866  1.0000
  H   H339      1.0  0.12618  0.27376  0.90332  1.0000
  H   H340      1.0  0.07509  0.25128  0.89636  1.0000
  H   H341      1.0  0.39158  0.31610  0.83343  1.0000
  C   C280      1.0  0.35266  0.28135  0.91329  1.0000
  C   C281      1.0  0.45303  0.38145  0.80016  1.0000
  C   C282      1.0  0.31284  0.28148  0.89687  1.0000
  H   H342      1.0  0.20805  0.05348  0.97434  1.0000
  C   C283      1.0  0.36567  0.31270  0.87718  1.0000
  H   H343      1.0  0.18916  0.10782  0.94604  1.0000
  C   C284      1.0  0.14383  0.22101  0.96402  1.0000
  H   H344      1.0  0.17758  0.09713  0.97738  1.0000
  C   C285      1.0  0.12136  0.21998  0.95279  1.0000
  C   C286      1.0  0.06716  0.19084  0.92935  1.0000
  H   H345      1.0  0.15357  0.09980  0.94956  1.0000
  H   H346      1.0  0.08545  0.20032  0.92063  1.0000
  C   C287      1.0  0.24429  0.04847  0.97211  1.0000
  C   C288      1.0  0.11440  0.20060  0.98994  1.0000
  H   H347      1.0  0.30347  0.23244  0.88207  1.0000
  C   C289      1.0  0.38068  0.30715  0.84611  1.0000
  H   H348      1.0  0.17021  0.11757  0.92914  1.0000
  H   H349      1.0  0.14360  0.13978  0.95797  1.0000
  S   S89       1.0  0.27879  0.99190  0.86082  1.0000
  C   C290      1.0  0.21792  0.24654  0.98697  1.0000
  H   H350      1.0  0.02689  0.19372  0.94682  1.0000
  H   H351      1.0  0.36943  0.27542  0.91251  1.0000
  C   C291      1.0  0.14033  0.21121  0.98253  1.0000
  H   H352      1.0  0.04917  0.18876  0.91981  1.0000
  H   H353      1.0  0.36265  0.30422  0.91604  1.0000
  C   C292      1.0  0.26143  0.23379  0.98614  1.0000
  C   C293      1.0  0.47636  0.43210  0.79557  1.0000
  H   H354      1.0  0.45835  0.46021  0.79472  1.0000
  H   H355      1.0  0.20858  0.16437  0.93264  1.0000
  H   H356      1.0  0.06684  0.30599  0.86877  1.0000
  Fe  Fe46      1.0  0.39536  0.28130  0.75255  1.0000
  H   H357      1.0  0.30732  0.23290  0.90774  1.0000
  H   H358      1.0  0.39198  0.34659  0.86029  1.0000
  H   H359      1.0  0.28092  0.04358  0.97424  1.0000
  H   H360      1.0  0.08918  0.27530  0.82868  1.0000
  C   C294      1.0  0.18352  0.11624  0.98566  1.0000
  Fe  Fe47      1.0  0.24696  0.99117  0.88152  1.0000
  C   C295      1.0  0.31901  0.24101  0.89471  1.0000
  C   C296      1.0  0.18769  0.14109  0.97688  1.0000
  N   N20       1.0  0.18390  0.14275  0.95579  1.0000
  C   C297      1.0  0.29540  0.01151  0.84072  1.0000
  C   C298      1.0  0.21071  0.16249  0.94845  1.0000
  C   C299      1.0  0.04412  0.19454  0.95657  1.0000
  N   N21       1.0  0.05698  0.27729  0.84400  1.0000
  C   C300      1.0  0.07658  0.29659  0.85965  1.0000
  C   C301      1.0  0.03139  0.25721  0.85248  1.0000
  C   C302      1.0  0.07013  0.26144  0.83581  1.0000
  C   C303      1.0  0.04960  0.29279  0.82963  1.0000
  C   C304      1.0  0.04006  0.31158  0.83563  1.0000
  C   C305      1.0  0.04976  0.28842  0.80943  1.0000
  C   C306      1.0  0.03153  0.32531  0.82231  1.0000
  C   C307      1.0  0.04083  0.30204  0.79622  1.0000
  C   C308      1.0  0.03166  0.32036  0.80265  1.0000
  H   H361      1.0  0.09493  0.31373  0.85364  1.0000
  H   H362      1.0  0.02101  0.26769  0.85977  1.0000
  H   H363      1.0  0.03580  0.24491  0.86332  1.0000
  H   H364      1.0  0.01609  0.24226  0.84123  1.0000
  H   H365      1.0  0.07632  0.25088  0.84718  1.0000
  H   H366      1.0  0.05558  0.24445  0.82536  1.0000
  H   H367      1.0  0.03785  0.31491  0.85066  1.0000
  H   H368      1.0  0.05612  0.27416  0.80344  1.0000
  H   H369      1.0  0.02343  0.33882  0.82725  1.0000
  H   H370      1.0  0.03800  0.17280  0.96023  1.0000
  H   H371      1.0  0.25015  0.99862  0.76321  1.0000
  N   N22       1.0  0.28461  0.10324  0.86027  1.0000
  C   C309      1.0  0.30510  0.09986  0.84891  1.0000
  C   C310      1.0  0.29606  0.10993  0.88061  1.0000
  C   C311      1.0  0.25899  0.07601  0.85913  1.0000
  C   C312      1.0  0.27829  0.12536  0.85360  1.0000
  C   C313      1.0  0.25686  0.12902  0.86156  1.0000
  C   C314      1.0  0.29366  0.14451  0.83981  1.0000
  C   C315      1.0  0.25102  0.15027  0.85603  1.0000
  C   C316      1.0  0.28766  0.16574  0.83439  1.0000
  C   C317      1.0  0.26640  0.16860  0.84247  1.0000
  H   H372      1.0  0.30868  0.08246  0.85387  1.0000
  H   H373      1.0  0.29784  0.09509  0.83336  1.0000
  H   H374      1.0  0.32580  0.11865  0.85035  1.0000
  H   H375      1.0  0.30007  0.09326  0.88654  1.0000
  H   H376      1.0  0.28153  0.11218  0.89012  1.0000
  H   H377      1.0  0.31582  0.12978  0.88214  1.0000
  H   H378      1.0  0.24836  0.07112  0.84439  1.0000
  H   H379      1.0  0.26355  0.05878  0.86283  1.0000
  H   H380      1.0  0.24390  0.07507  0.86949  1.0000
  H   H381      1.0  0.24444  0.11552  0.87221  1.0000
  H   H382      1.0  0.31038  0.14353  0.83295  1.0000
  H   H383      1.0  0.23439  0.15248  0.86228  1.0000
  H   H384      1.0  0.29950  0.18009  0.82378  1.0000
  H   H385      1.0  0.26175  0.18503  0.83818  1.0000
  H   H386      1.0  0.47731  0.12399  0.76463  1.0000
  C   C318      1.0  0.39987  0.21640  0.75250  1.0000
  C   C319      1.0  0.22613  0.05427  0.98209  1.0000
  H   H387      1.0  0.15872  0.15254  0.93562  1.0000
  H   H388      1.0  0.27852  0.22912  0.98592  1.0000
  H   H389      1.0  0.24040  0.04335  0.95670  1.0000
  C   C320      1.0  0.16347  0.15288  0.95145  1.0000
  C   C321      1.0  0.22891  0.24557  0.96935  1.0000
  C   C322      1.0  0.43115  0.40143  0.77986  1.0000
  H   H390      1.0  0.02374  0.33007  0.79238  1.0000
  C   C323      1.0  0.33053  0.02282  0.81704  1.0000
  H   H391      1.0  0.22679  0.15581  0.95137  1.0000
  H   H392      1.0  0.32226  0.30436  0.89923  1.0000
  C   C324      1.0  0.26728  0.04888  0.98199  1.0000
  H   H393      1.0  0.42656  0.41886  0.77722  1.0000
  H   H394      1.0  0.19992  0.18467  0.98375  1.0000
  H   H395      1.0  0.37500  0.18395  0.77088  1.0000
  H   H396      1.0  0.46724  0.38412  0.81300  1.0000
  H   H397      1.0  0.32393  0.99475  0.84000  1.0000
  C   C325      1.0  0.39660  0.17024  0.75212  1.0000
  N   N23       1.0  0.07092  0.20749  0.94742  1.0000
  H   H398      1.0  0.44982  0.41547  0.82772  1.0000
  H   H399      1.0  0.41083  0.38245  0.78081  1.0000
  H   H400      1.0  0.09564  0.24666  0.93463  1.0000
  H   H401      1.0  0.05928  0.23550  0.93310  1.0000
  H   H402      1.0  0.07234  0.19115  0.98555  1.0000
  C   C326      1.0  0.43591  0.41003  0.81430  1.0000
  C   C327      1.0  0.09452  0.20897  0.95979  1.0000
  C   C328      1.0  0.38917  0.18968  0.75957  1.0000
  C   C329      1.0  0.31723  0.00844  0.83323  1.0000
  H   H403      1.0  0.04482  0.20680  0.96975  1.0000
  H   H404      1.0  0.07913  0.24894  0.95568  1.0000
  H   H405      1.0  0.04033  0.29791  0.78087  1.0000
  S   S90       1.0  0.01847  0.24217  0.95845  1.0000
  H   H406      1.0  0.46112  0.37615  0.78724  1.0000
  C   C330      1.0  0.47707  0.45834  0.79450  1.0000
  H   H407      1.0  0.29336  0.05698  0.80850  1.0000
  H   H408      1.0  0.42954  0.42639  0.81250  1.0000
  S   S91       1.0  0.38897  0.23941  0.76217  1.0000
  S   S92       1.0  0.46409  0.06369  0.75873  1.0000
  S   S93       1.0  0.21607  0.00658  0.87478  1.0000
  C   C331      1.0  0.98467  0.25325  0.98160  1.0000
  H   H409      1.0  0.16407  0.22947  0.95826  1.0000
  H   H410      1.0  0.26973  0.03121  0.83676  1.0000
  S   S94       1.0  0.19579  0.99110  0.91862  1.0000
  H   H411      1.0  0.38821  0.14973  0.75770  1.0000
  H   H412      1.0  0.46654  0.14889  0.75785  1.0000
  H   H413      1.0  0.32065  0.02351  0.75491  1.0000
  C   C332      1.0  0.01448  0.23728  0.99746  1.0000
  H   H414      1.0  0.02968  0.23003  0.99676  1.0000
  H   H415      1.0  0.15771  0.21184  0.99121  1.0000
  S   S95       1.0  0.98370  0.19204  0.91627  1.0000
  Fe  Fe48      1.0  0.98478  0.25321  0.88785  1.0000
  H   H416      1.0  0.10806  0.28662  0.98904  1.0000
  S   S96       1.0  0.98102  0.28691  0.87087  1.0000
  H   H417      1.0  0.23439  0.98860  0.79564  1.0000
  H   H418      1.0  0.10849  0.81802  0.17667  1.0000
  H   H419      1.0  0.07660  0.82757  0.12141  1.0000
  C   C333      1.0  0.17865  0.89339  0.12450  1.0000
  H   H420      1.0  0.15204  0.85972  0.17351  1.0000
  Fe  Fe49      1.0  0.31201  0.90312  0.21585  1.0000
  S   S97       1.0  0.31118  0.91429  0.18417  1.0000
  S   S98       1.0  0.32660  0.87132  0.22159  1.0000
  H   H421      1.0  0.25506  0.96356  0.17826  1.0000
  C   C334      1.0  0.19500  0.92178  0.02397  1.0000
  C   C335      1.0  0.43154  0.77412  0.22636  1.0000
  H   H422      1.0  0.43093  0.75600  0.21944  1.0000
  N   N24       1.0  0.20300  0.90033  0.01871  1.0000
  C   C336      1.0  0.02191  0.69420  0.15264  1.0000
  Fe  Fe50      1.0  0.05851  0.65918  0.22790  1.0000
  S   S99       1.0  0.04272  0.65697  0.19634  1.0000
  S   S100      1.0  0.10080  0.66212  0.23358  1.0000
  H   H423      1.0  0.21226  0.93959  0.03247  1.0000
  S   S101      1.0  0.19136  0.96768  0.10284  1.0000
  H   H424      1.0  0.22394  0.82327  0.24169  1.0000
  H   H425      1.0  0.38672  0.89784  0.18476  1.0000
  C   C337      1.0  0.15429  0.86074  0.01621  1.0000
  C   C338      1.0  0.13641  0.85364  0.16168  1.0000
  Fe  Fe51      1.0  0.18778  0.94139  0.07675  1.0000
  S   S102      1.0  0.15595  0.89721  0.06846  1.0000
  S   S103      1.0  0.23107  0.94722  0.08095  1.0000
  Fe  Fe52      1.0  0.01352  0.80023  0.09760  1.0000
  S   S104      1.0  0.03700  0.84703  0.10050  1.0000
  S   S105      1.0  0.03271  0.77197  0.09714  1.0000
  H   H426      1.0  0.20670  0.92272  0.15628  1.0000
  C   C339      1.0  0.40142  0.95049  0.17556  1.0000
  C   C340      1.0  0.99809  0.77457  0.00182  1.0000
  H   H427      1.0  0.18297  0.87545  0.12448  1.0000
  S   S106      1.0  0.24737  0.97069  0.13801  1.0000
  N   N25       1.0  0.40413  0.94083  0.19496  1.0000
  C   C341      1.0  0.12262  0.88426  0.07674  1.0000
  C   C342      1.0  0.10381  0.85607  0.07312  1.0000
  C   C343      1.0  0.07735  0.84470  0.08008  1.0000
  C   C344      1.0  0.06957  0.86146  0.09077  1.0000
  C   C345      1.0  0.08823  0.88981  0.09415  1.0000
  C   C346      1.0  0.11478  0.90124  0.08715  1.0000
  H   H428      1.0  0.10974  0.84286  0.06503  1.0000
  H   H429      1.0  0.06300  0.82295  0.07715  1.0000
  H   H430      1.0  0.08226  0.90289  0.10235  1.0000
  H   H431      1.0  0.12912  0.92308  0.08987  1.0000
  C   C347      1.0  0.03382  0.68003  0.18360  1.0000
  C   C348      1.0  0.03381  0.70305  0.19275  1.0000
  C   C349      1.0  0.02835  0.72170  0.18188  1.0000
  C   C350      1.0  0.02233  0.71745  0.16177  1.0000
  C   C351      1.0  0.00176  0.74090  0.02250  1.0000
  H   H432      1.0  0.19366  0.88326  0.04689  1.0000
  H   H433      1.0  0.03814  0.70658  0.20819  1.0000
  S   S107      1.0  0.98238  0.77778  0.07289  1.0000
  H   H434      1.0  0.23571  0.89888  0.00363  1.0000
  C   C352      1.0  0.13174  0.83864  0.00599  1.0000
  S   S108      1.0  0.01691  0.74261  0.14890  1.0000
  H   H435      1.0  0.21441  0.87256  0.03345  1.0000
  Fe  Fe53      1.0  0.23564  0.97525  0.10650  1.0000
  H   H436      1.0  0.30242  0.92013  0.14370  1.0000
  C   C353      1.0  0.45597  0.51712  0.22739  1.0000
  H   H437      1.0  0.18918  0.92980  0.01092  1.0000
  H   H438      1.0  0.08873  0.72180  0.20348  1.0000
  H   H439      1.0  0.15188  0.86492  0.03106  1.0000
  H   H440      1.0  0.19863  0.91249  0.12277  1.0000
  C   C354      1.0  0.43049  0.49385  0.23123  1.0000
  C   C355      1.0  0.26477  0.95424  0.15035  1.0000
  C   C356      1.0  0.27803  0.94164  0.14074  1.0000
  C   C357      1.0  0.29187  0.92937  0.15130  1.0000
  C   C358      1.0  0.29233  0.92908  0.17157  1.0000
  C   C359      1.0  0.27858  0.94119  0.18114  1.0000
  C   C360      1.0  0.26511  0.95381  0.17060  1.0000
  H   H441      1.0  0.37558  0.95413  0.20529  1.0000
  H   H442      1.0  0.44265  0.96750  0.22700  1.0000
  H   H443      1.0  0.27882  0.94136  0.19669  1.0000
  C   C361      1.0  0.18658  0.78667  0.24821  1.0000
  H   H444      1.0  0.98142  0.88494  0.11838  1.0000
  C   C362      1.0  0.23167  0.78875  0.24654  1.0000
  C   C363      1.0  0.21028  0.89023  0.03667  1.0000
  H   H445      1.0  0.46595  0.51640  0.21457  1.0000
  C   C364      1.0  0.34225  0.51374  0.22292  1.0000
  S   S109      1.0  0.98392  0.77762  0.11982  1.0000
  H   H446      1.0  0.11984  0.86957  0.11731  1.0000
  H   H447      1.0  0.18046  0.90650  0.17250  1.0000
  H   H448      1.0  0.14551  0.91609  0.12799  1.0000
  C   C365      1.0  0.00120  0.72552  0.00586  1.0000
  H   H449      1.0  0.14859  0.92006  0.15382  1.0000
  H   H450      1.0  0.19461  0.88689  0.16021  1.0000
  H   H451      1.0  0.17828  0.93897  0.14026  1.0000
  N   N26       1.0  0.12809  0.72980  0.19295  1.0000
  C   C366      1.0  0.11092  0.73048  0.20846  1.0000
  C   C367      1.0  0.11653  0.70080  0.18498  1.0000
  C   C368      1.0  0.15632  0.73820  0.20197  1.0000
  C   C369      1.0  0.12752  0.74772  0.17744  1.0000
  C   C370      1.0  0.15186  0.77052  0.17143  1.0000
  C   C371      1.0  0.10195  0.74226  0.16757  1.0000
  C   C372      1.0  0.15042  0.78643  0.15631  1.0000
  C   C373      1.0  0.10071  0.75831  0.15257  1.0000
  C   C374      1.0  0.12494  0.78023  0.14684  1.0000
  H   H452      1.0  0.11831  0.75200  0.21450  1.0000
  Fe  Fe54      1.0  0.35434  0.90009  0.24611  1.0000
  H   H453      1.0  0.11149  0.71782  0.22060  1.0000
  H   H454      1.0  0.09435  0.69184  0.17964  1.0000
  H   H455      1.0  0.11722  0.68668  0.19604  1.0000
  H   H456      1.0  0.12814  0.69949  0.17275  1.0000
  H   H457      1.0  0.16595  0.75958  0.20879  1.0000
  H   H458      1.0  0.15579  0.72441  0.21373  1.0000
  H   H459      1.0  0.17021  0.73700  0.19137  1.0000
  H   H460      1.0  0.17225  0.77639  0.17810  1.0000
  H   H461      1.0  0.08262  0.72528  0.17130  1.0000
  H   H462      1.0  0.16923  0.80358  0.15185  1.0000
  H   H463      1.0  0.12388  0.79249  0.13508  1.0000
  C   C375      1.0  0.21493  0.80165  0.24502  1.0000
  C   C376      1.0  0.42783  0.88886  0.23161  1.0000
  H   H464      1.0  0.17696  0.91370  0.03293  1.0000
  Fe  Fe55      1.0  0.29324  0.85420  0.24245  1.0000
  C   C377      1.0  0.08992  0.82018  0.14926  1.0000
  C   C378      1.0  0.36696  0.56459  0.22176  1.0000
  H   H465      1.0  0.38493  0.79419  0.24073  1.0000
  C   C379      1.0  0.38355  0.91113  0.19552  1.0000
  H   H466      1.0  0.99851  0.87157  0.10375  1.0000
  H   H467      1.0  0.01738  0.69060  0.13721  1.0000
  C   C380      1.0  0.46869  0.54118  0.23987  1.0000
  C   C381      1.0  0.11831  0.85886  0.13039  1.0000
  C   C382      1.0  0.14055  0.86919  0.14488  1.0000
  H   H468      1.0  0.21776  0.98506  0.01694  1.0000
  H   H469      1.0  0.02866  0.73952  0.18914  1.0000
  H   H470      1.0  0.41753  0.97239  0.17422  1.0000
  H   H471      1.0  0.07047  0.80156  0.15094  1.0000
  C   C383      1.0  0.43238  0.94412  0.19902  1.0000
  H   H472      1.0  0.36197  0.90774  0.19248  1.0000
  C   C384      1.0  0.09343  0.83478  0.13260  1.0000
  H   H473      1.0  0.22908  0.90689  0.04483  1.0000
  H   H474      1.0  0.16511  0.89093  0.11131  1.0000
  H   H475      1.0  0.47275  0.75706  0.22612  1.0000
  C   C385      1.0  0.46942  0.93379  0.19001  1.0000
  H   H476      1.0  0.08075  0.75353  0.14532  1.0000
  H   H477      1.0  0.11292  0.82621  0.01307  1.0000
  H   H478      1.0  0.27805  0.94175  0.12521  1.0000
  H   H479      1.0  0.44978  0.87281  0.21488  1.0000
  C   C386      1.0  0.39671  0.95659  0.20901  1.0000
  C   C387      1.0  0.41706  0.49390  0.24780  1.0000
  H   H480      1.0  0.41154  0.58376  0.22231  1.0000
  C   C388      1.0  0.18775  0.90298  0.15863  1.0000
  C   C389      1.0  0.15929  0.91857  0.14107  1.0000
  C   C390      1.0  0.11138  0.82956  0.16375  1.0000
  H   H481      1.0  0.03610  0.49851  0.23356  1.0000
  N   N27       1.0  0.16617  0.89545  0.14245  1.0000
  H   H482      1.0  0.41289  0.53933  0.22390  1.0000
  H   H483      1.0  0.40327  0.93759  0.16381  1.0000
  C   C391      1.0  0.44942  0.95846  0.21594  1.0000
  H   H484      1.0  0.29023  0.50213  0.23503  1.0000
  C   C392      1.0  0.36850  0.51444  0.22356  1.0000
  C   C393      1.0  0.45489  0.82068  0.24122  1.0000
  Fe  Fe56      1.0  0.24232  0.98434  0.06290  1.0000
  C   C394      1.0  0.02768  0.67570  0.16350  1.0000
  H   H485      1.0  0.47704  0.92365  0.18030  1.0000
  S   S110      1.0  0.27644  0.88333  0.23480  1.0000
  H   H486      1.0  0.38480  0.90323  0.20998  1.0000
  C   C395      1.0  0.42923  0.81913  0.24425  1.0000
  C   C396      1.0  0.47659  0.89930  0.23876  1.0000
  Fe  Fe57      1.0  0.00171  0.74779  0.11851  1.0000
  C   C397      1.0  0.40479  0.79524  0.23837  1.0000
  Fe  Fe58      1.0  0.99876  0.74734  0.07384  1.0000
  C   C398      1.0  0.34217  0.53967  0.22201  1.0000
  C   C399      1.0  0.39235  0.56445  0.22241  1.0000
  C   C400      1.0  0.45127  0.88578  0.22729  1.0000
  H   H487      1.0  0.40875  0.87816  0.22259  1.0000
  S   S111      1.0  0.00262  0.72784  0.04559  1.0000
  S   S112      1.0  0.03891  0.62603  0.24937  1.0000
  C   C401      1.0  0.29073  0.48950  0.22247  1.0000
  H   H488      1.0  0.28816  0.49869  0.20889  1.0000
  H   H489      1.0  0.39627  0.94901  0.22379  1.0000
  H   H490      1.0  0.47253  0.77324  0.20359  1.0000
  C   C402      1.0  0.23134  0.98382  0.00677  1.0000
  S   S113      1.0  0.19867  0.97615  0.05693  1.0000
  C   C403      1.0  0.40593  0.77277  0.22949  1.0000
  H   H491      1.0  0.02754  0.65795  0.15623  1.0000
  H   H492      1.0  0.38681  0.75419  0.22501  1.0000
  S   S114      1.0  0.34130  0.93296  0.23951  1.0000
  H   H493      1.0  0.41148  0.97919  0.20946  1.0000
  H   H494      1.0  0.00121  0.77789  0.03295  1.0000
  H   H495      1.0  0.24601  0.93087  0.01711  1.0000
  H   H496      1.0  0.36651  0.58417  0.22115  1.0000
  C   C404      1.0  0.39310  0.53942  0.22328  1.0000
  C   C405      1.0  0.45689  0.79830  0.23209  1.0000
  C   C406      1.0  0.44319  0.93177  0.18620  1.0000
  H   H497      1.0  0.43115  0.91984  0.17336  1.0000
  C   C407      1.0  0.00047  0.76564  0.02034  1.0000
  C   C408      1.0  0.17938  0.87717  0.00748  1.0000
  H   H498      1.0  0.38068  0.94941  0.17259  1.0000
  H   H499      1.0  0.32329  0.54130  0.22158  1.0000
  S   S115      1.0  0.06647  0.69350  0.24934  1.0000
  H   H500      1.0  0.37028  0.49561  0.22449  1.0000
  H   H501      1.0  0.98779  0.83388  0.12689  1.0000
  C   C409      1.0  0.42929  0.90601  0.24739  1.0000
  C   C410      1.0  0.21946  0.76037  0.25018  1.0000
  C   C411      1.0  0.22851  0.91391  0.00809  1.0000
  H   H502      1.0  0.04742  0.54802  0.23862  1.0000
  H   H503      1.0  0.00225  0.70637  0.00735  1.0000
  S   S116      1.0  0.26801  0.80752  0.24507  1.0000
  C   C412      1.0  0.05365  0.51209  0.24327  1.0000
  C   C413      1.0  0.47567  0.96044  0.21955  1.0000
  H   H504      1.0  0.47324  0.83972  0.24607  1.0000
  C   C414      1.0  0.06003  0.54035  0.24615  1.0000
  H   H505      1.0  0.17395  0.79704  0.24758  1.0000
  H   H506      1.0  0.42837  0.83667  0.25115  1.0000
  H   H507      1.0  0.25790  0.87623  0.28315  1.0000
  H   H508      1.0  0.11579  0.56118  0.27823  1.0000
  Fe  Fe59      1.0  0.30653  0.91120  0.25909  1.0000
  S   S117      1.0  0.28876  0.93361  0.27745  1.0000
  S   S118      1.0  0.32162  0.88086  0.26769  1.0000
  Fe  Fe60      1.0  0.05074  0.66145  0.27154  1.0000
  S   S119      1.0  0.01891  0.66142  0.29168  1.0000
  S   S120      1.0  0.09265  0.66526  0.27975  1.0000
  Fe  Fe61      1.0  0.08168  0.63090  0.25649  1.0000
  S   S121      1.0  0.00460  0.77094  0.38075  1.0000
  H   H509      1.0  0.00015  0.63570  0.43867  1.0000
  H   H510      1.0  0.27962  0.83792  0.29967  1.0000
  C   C415      1.0  0.06147  0.81945  0.47787  1.0000
  H   H511      1.0  0.01587  0.59480  0.33300  1.0000
  Fe  Fe62      1.0  0.02162  0.78861  0.41085  1.0000
  S   S122      1.0  0.05999  0.82802  0.42126  1.0000
  S   S123      1.0  0.02189  0.75010  0.42093  1.0000
  C   C416      1.0  0.19939  0.84650  0.30452  1.0000
  Fe  Fe63      1.0  0.17990  0.94605  0.37863  1.0000
  S   S124      1.0  0.13674  0.91761  0.36525  1.0000
  S   S125      1.0  0.20340  0.92798  0.39489  1.0000
  C   C417      1.0  0.08104  0.85154  0.40492  1.0000
  C   C418      1.0  0.07064  0.85316  0.38645  1.0000
  C   C419      1.0  0.08794  0.87323  0.37416  1.0000
  C   C420      1.0  0.11560  0.89170  0.38034  1.0000
  C   C421      1.0  0.12589  0.88985  0.39876  1.0000
  C   C422      1.0  0.10868  0.86987  0.41099  1.0000
  H   H512      1.0  0.04912  0.83943  0.38185  1.0000
  H   H513      1.0  0.07977  0.87481  0.35999  1.0000
  H   H514      1.0  0.14701  0.90410  0.40380  1.0000
  H   H515      1.0  0.11683  0.86873  0.42528  1.0000
  S   S126      1.0  0.02223  0.70695  0.37786  1.0000
  C   C423      1.0  0.00169  0.72874  0.48379  1.0000
  H   H516      1.0  0.16506  0.85439  0.30909  1.0000
  Fe  Fe64      1.0  0.00219  0.73121  0.39128  1.0000
  H   H517      1.0  0.01426  0.73176  0.47175  1.0000
  C   C424      1.0  0.23659  0.86459  0.32982  1.0000
  H   H518      1.0  0.04035  0.51510  0.28498  1.0000
  C   C425      1.0  0.02203  0.67692  0.31513  1.0000
  C   C426      1.0  0.04353  0.68135  0.32889  1.0000
  C   C427      1.0  0.04349  0.69099  0.34788  1.0000
  C   C428      1.0  0.02239  0.69694  0.35330  1.0000
  H   H519      1.0  0.26673  0.83586  0.32295  1.0000
  C   C429      1.0  0.00149  0.69350  0.33934  1.0000
  H   H520      1.0  0.05974  0.67660  0.32507  1.0000
  H   H521      1.0  0.03803  0.55797  0.28020  1.0000
  H   H522      1.0  0.99147  0.78398  0.47831  1.0000
  C   C430      1.0  0.29279  0.93143  0.33638  1.0000
  C   C431      1.0  0.29681  0.92802  0.31683  1.0000
  H   H523      1.0  0.31193  0.92165  0.31309  1.0000
  N   N28       1.0  0.24119  0.83996  0.29981  1.0000
  H   H524      1.0  0.34354  0.98638  0.29826  1.0000
  C   C432      1.0  0.06963  0.50123  0.25278  1.0000
  C   C433      1.0  0.28226  0.93421  0.30225  1.0000
  C   C434      1.0  0.26325  0.94322  0.30750  1.0000
  C   C435      1.0  0.25898  0.94630  0.32702  1.0000
  C   C436      1.0  0.27397  0.94073  0.34163  1.0000
  C   C437      1.0  0.01731  0.55688  0.30633  1.0000
  C   C438      1.0  0.99798  0.65880  0.47360  1.0000
  H   H525      1.0  0.25197  0.94820  0.29638  1.0000
  H   H526      1.0  0.24427  0.95323  0.33072  1.0000
  H   H527      1.0  0.23591  0.80088  0.28781  1.0000
  C   C439      1.0  0.08253  0.55854  0.25877  1.0000
  H   H528      1.0  0.28264  0.86864  0.31134  1.0000
  S   S127      1.0  0.27006  0.94517  0.36654  1.0000
  C   C440      1.0  0.13575  0.98249  0.42977  1.0000
  Fe  Fe65      1.0  0.21360  0.96244  0.41735  1.0000
  C   C441      1.0  0.26869  0.84589  0.30896  1.0000
  C   C442      1.0  0.09213  0.51943  0.26538  1.0000
  N   N29       1.0  0.08423  0.79433  0.35072  1.0000
  C   C443      1.0  0.06924  0.77296  0.36460  1.0000
  C   C444      1.0  0.10859  0.81743  0.36160  1.0000
  C   C445      1.0  0.06583  0.80551  0.34321  1.0000
  C   C446      1.0  0.09156  0.78168  0.33449  1.0000
  C   C447      1.0  0.07058  0.75844  0.32338  1.0000
  C   C448      1.0  0.11921  0.79200  0.32904  1.0000
  H   H529      1.0  0.09508  0.95048  0.40142  1.0000
  H   H530      1.0  0.41975  0.51862  0.27311  1.0000
  H   H531      1.0  0.18197  0.72355  0.25627  1.0000
  H   H532      1.0  0.06565  0.78206  0.37793  1.0000
  H   H533      1.0  0.04837  0.75720  0.35851  1.0000
  H   H534      1.0  0.08087  0.76166  0.36902  1.0000
  H   H535      1.0  0.12317  0.81033  0.36785  1.0000
  H   H536      1.0  0.10234  0.82599  0.37394  1.0000
  H   H537      1.0  0.11990  0.83524  0.35243  1.0000
  H   H538      1.0  0.07624  0.82166  0.33268  1.0000
  H   H539      1.0  0.04617  0.78909  0.33585  1.0000
  H   H540      1.0  0.05972  0.81506  0.35499  1.0000
  H   H541      1.0  0.04907  0.74932  0.32664  1.0000
  H   H542      1.0  0.13657  0.80952  0.33659  1.0000
  H   H543      1.0  0.45618  0.93261  0.27120  1.0000
  H   H544      1.0  0.23067  0.88608  0.35397  1.0000
  H   H545      1.0  0.30457  0.92714  0.34755  1.0000
  C   C449      1.0  0.99707  0.68267  0.43525  1.0000
  C   C450      1.0  0.00113  0.68318  0.32050  1.0000
  C   C451      1.0  0.17456  0.75849  0.25240  1.0000
  N   N30       1.0  0.01646  0.58322  0.30329  1.0000
  H   H546      1.0  0.04542  0.62652  0.30095  1.0000
  H   H547      1.0  0.14640  0.78752  0.30960  1.0000
  C   C452      1.0  0.21405  0.96223  0.47184  1.0000
  C   C453      1.0  0.22467  0.80943  0.29625  1.0000
  H   H548      1.0  0.17477  0.93755  0.48374  1.0000
  C   C454      1.0  0.10714  0.94144  0.40887  1.0000
  C   C455      1.0  0.22179  0.87468  0.34021  1.0000
  S   S128      1.0  0.13957  0.74159  0.25814  1.0000
  H   H549      1.0  0.00921  0.57647  0.27228  1.0000
  H   H550      1.0  0.10473  0.51176  0.27293  1.0000
  H   H551      1.0  0.02821  0.80392  0.45560  1.0000
  H   H552      1.0  0.22652  0.84823  0.27239  1.0000
  H   H553      1.0  0.08002  0.95735  0.43282  1.0000
  C   C456      1.0  0.02009  0.50681  0.31142  1.0000
  H   H554      1.0  0.98430  0.67972  0.31005  1.0000
  H   H555      1.0  0.46424  0.55946  0.26622  1.0000
  C   C457      1.0  0.10411  0.75683  0.30293  1.0000
  C   C458      1.0  0.03371  0.80598  0.47097  1.0000
  H   H556      1.0  0.07740  0.82786  0.46769  1.0000
  H   H557      1.0  0.20466  0.80321  0.28780  1.0000
  S   S129      1.0  0.18819  0.97913  0.40138  1.0000
  C   C459      1.0  0.45455  0.91935  0.25892  1.0000
  S   S130      1.0  0.21565  0.97411  0.36177  1.0000
  H   H558      1.0  0.00382  0.61146  0.31602  1.0000
  H   H559      1.0  0.06045  0.72854  0.29958  1.0000
  C   C460      1.0  0.02935  0.54678  0.29284  1.0000
  H   H560      1.0  0.99469  0.70025  0.44148  1.0000
  C   C461      1.0  0.06872  0.82191  0.49768  1.0000
  C   C462      1.0  0.24606  0.85323  0.28104  1.0000
  H   H561      1.0  0.10884  0.74722  0.29091  1.0000
  H   H562      1.0  0.25808  0.84643  0.27197  1.0000
  H   H563      1.0  0.07681  0.92473  0.43976  1.0000
  C   C463      1.0  0.19651  0.95194  0.48700  1.0000
  Fe  Fe66      1.0  0.10800  0.69547  0.25610  1.0000
  C   C464      1.0  0.22587  0.85031  0.31152  1.0000
  H   H564      1.0  0.18528  0.87974  0.34069  1.0000
  C   C465      1.0  0.07684  0.74633  0.30784  1.0000
  C   C466      1.0  0.12523  0.77958  0.31350  1.0000
  H   H565      1.0  0.18993  0.83587  0.29071  1.0000
  C   C467      1.0  0.09167  0.94732  0.43957  1.0000
  H   H566      1.0  0.09355  0.91851  0.40784  1.0000
  Fe  Fe67      1.0  0.23998  0.95809  0.37955  1.0000
  H   H567      1.0  0.21990  0.79870  0.31003  1.0000
  C   C468      1.0  0.01306  0.79494  0.48382  1.0000
  H   H568      1.0  0.11353  0.91310  0.43733  1.0000
  H   H569      1.0  0.25663  0.86884  0.33631  1.0000
  H   H570      1.0  0.05494  0.60332  0.28928  1.0000
  C   C469      1.0  0.18490  0.85691  0.31496  1.0000
  C   C470      1.0  0.19617  0.87111  0.33274  1.0000
  H   H571      1.0  0.12524  0.94588  0.40031  1.0000
  H   H572      1.0  0.01800  0.68597  0.44039  1.0000
  H   H573      1.0  0.05869  0.60755  0.31501  1.0000
  S   S131      1.0  0.19957  0.95083  0.44779  1.0000
  H   H574      1.0  0.14674  0.93782  0.43048  1.0000
  N   N31       1.0  0.11632  0.95228  0.42917  1.0000
  S   S132      1.0  0.09126  0.59455  0.26362  1.0000
  H   H575      1.0  0.01628  0.66101  0.46708  1.0000
  C   C471      1.0  0.24216  0.98066  0.47631  1.0000
  C   C472      1.0  0.00001  0.58058  0.28498  1.0000
  H   H576      1.0  0.99866  0.59998  0.28228  1.0000
  C   C473      1.0  0.12854  0.93568  0.43808  1.0000
  C   C474      1.0  0.00649  0.54064  0.32250  1.0000
  H   H577      1.0  0.13519  0.94175  0.45360  1.0000
  H   H578      1.0  0.05981  0.69356  0.35851  1.0000
  C   C475      1.0  0.42977  0.51797  0.26031  1.0000
  C   C476      1.0  0.04507  0.60608  0.30208  1.0000
  H   H579      1.0  0.09781  0.95564  0.45480  1.0000
  C   C477      1.0  0.99877  0.65982  0.49373  1.0000
  C   C478      1.0  0.00393  0.59148  0.31887  1.0000
  C   C479      1.0  0.45519  0.54132  0.25641  1.0000
  H   H580      1.0  0.17087  0.98238  0.44661  1.0000
  C   C480      1.0  0.09839  0.54764  0.26837  1.0000
  C   C481      1.0  0.19096  0.74521  0.25298  1.0000
  H   H581      1.0  0.99712  0.68430  0.41929  1.0000
  C   C482      1.0  0.00794  0.51597  0.32491  1.0000
  C   C483      1.0  0.47784  0.91591  0.25478  1.0000
  C   C484      1.0  0.03076  0.52219  0.29542  1.0000
  H   H582      1.0  0.99691  0.54654  0.33351  1.0000
  H   H583      1.0  0.99968  0.50388  0.33734  1.0000
  H   H584      1.0  0.98500  0.69780  0.34322  1.0000
  S   S133      1.0  0.40096  0.91245  0.25304  1.0000
  C   C485      1.0  0.25261  0.98813  0.49575  1.0000
  H   H585      1.0  0.98192  0.57580  0.32009  1.0000
  H   H586      1.0  0.23225  0.75019  0.25127  1.0000
  H   H587      1.0  0.09417  0.85287  0.53154  1.0000
  H   H588      1.0  0.10896  0.81569  0.65583  1.0000
  H   H589      1.0  0.07712  0.77332  0.64485  1.0000
  S   S134      1.0  0.17841  0.96137  0.56061  1.0000
  C   C486      1.0  0.02404  0.78866  0.64294  1.0000
  C   C487      1.0  0.07240  0.79832  0.53601  1.0000
  Fe  Fe68      1.0  0.18119  0.94311  0.58884  1.0000
  S   S135      1.0  0.15447  0.89698  0.59407  1.0000
  S   S136      1.0  0.22780  0.95950  0.58916  1.0000
  Fe  Fe69      1.0  0.99716  0.77822  0.59267  1.0000
  S   S137      1.0  0.01564  0.74957  0.59478  1.0000
  S   S138      1.0  0.02296  0.82539  0.59498  1.0000
  H   H590      1.0  0.06327  0.85562  0.53505  1.0000
  S   S139      1.0  0.00969  0.72260  0.54177  1.0000
  C   C488      1.0  0.30334  0.97217  0.73974  1.0000
  H   H591      1.0  0.02314  0.79345  0.62754  1.0000
  H   H592      1.0  0.01686  0.80105  0.65157  1.0000
  C   C489      1.0  0.01259  0.72894  0.50266  1.0000
  H   H593      1.0  0.30959  0.97678  0.72473  1.0000
  H   H594      1.0  0.03937  0.80445  0.55994  1.0000
  H   H595      1.0  0.99527  0.68761  0.67723  1.0000
  C   C490      1.0  0.12333  0.85738  0.64812  1.0000
  H   H596      1.0  0.05982  0.77596  0.53125  1.0000
  N   N32       1.0  0.05237  0.79401  0.64977  1.0000
  H   H597      1.0  0.07204  0.78964  0.67629  1.0000
  C   C491      1.0  0.11772  0.87734  0.59281  1.0000
  C   C492      1.0  0.10545  0.84837  0.59427  1.0000
  C   C493      1.0  0.07645  0.83207  0.59439  1.0000
  C   C494      1.0  0.05937  0.84465  0.59329  1.0000
  C   C495      1.0  0.07156  0.87352  0.59144  1.0000
  C   C496      1.0  0.10056  0.88979  0.59110  1.0000
  H   H598      1.0  0.11856  0.83857  0.59565  1.0000
  H   H599      1.0  0.06741  0.80993  0.59577  1.0000
  H   H600      1.0  0.05855  0.88347  0.59059  1.0000
  H   H601      1.0  0.10969  0.91204  0.59000  1.0000
  C   C497      1.0  0.03260  0.80219  0.54434  1.0000
  C   C498      1.0  0.99633  0.72459  0.51844  1.0000
  C   C499      1.0  0.10251  0.83056  0.65108  1.0000
  C   C500      1.0  0.05189  0.78763  0.67037  1.0000
  H   H602      1.0  0.32308  0.98072  0.74900  1.0000
  H   H603      1.0  0.07841  0.79924  0.55167  1.0000
  C   C501      1.0  0.11640  0.87758  0.64208  1.0000
  C   C502      1.0  0.07399  0.82297  0.64754  1.0000
  H   H604      1.0  0.04732  0.80196  0.67922  1.0000
  H   H605      1.0  0.04125  0.75271  0.63823  1.0000
  H   H606      1.0  0.00836  0.76650  0.64410  1.0000
  H   H607      1.0  0.01917  0.77956  0.54108  1.0000
  H   H608      1.0  0.19315  0.95126  0.51785  1.0000
  H   H609      1.0  0.06225  0.78049  0.62350  1.0000
  H   H610      1.0  0.29223  0.94918  0.74037  1.0000
  H   H611      1.0  0.09188  0.80686  0.52850  1.0000
  N   N33       1.0  0.05649  0.81358  0.53213  1.0000
  C   C503      1.0  0.07416  0.84325  0.53840  1.0000
  H   H612      1.0  0.03569  0.76596  0.67256  1.0000
  H   H613      1.0  0.24779  0.95187  0.73184  1.0000
  H   H614      1.0  0.14500  0.86249  0.65011  1.0000
  Fe  Fe70      1.0  0.98901  0.72864  0.56756  1.0000
  C   C504      1.0  0.06764  0.84431  0.64188  1.0000
  H   H615      1.0  0.07972  0.84599  0.55422  1.0000
  C   C505      1.0  0.05858  0.77439  0.63864  1.0000
  H   H616      1.0  0.08336  0.88685  0.63424  1.0000
  C   C506      1.0  0.26172  0.97450  0.73081  1.0000
  S   S140      1.0  0.18494  0.97945  0.60723  1.0000
  C   C507      1.0  0.04821  0.81096  0.51123  1.0000
  H   H617      1.0  0.13257  0.89809  0.63913  1.0000
  C   C508      1.0  0.20688  0.95965  0.50639  1.0000
  H   H618      1.0  0.04666  0.84068  0.63867  1.0000
  C   C509      1.0  0.08865  0.87117  0.63927  1.0000
  H   H619      1.0  0.01986  0.81305  0.54258  1.0000
  S   S141      1.0  0.98658  0.70528  0.63990  1.0000
  H   H620      1.0  0.09055  0.83226  0.50230  1.0000
  H   H621      1.0  0.30435  0.97876  0.66869  1.0000
  C   C510      1.0  0.23508  0.97761  0.51091  1.0000
  Fe  Fe71      1.0  0.22463  0.98007  0.56191  1.0000
  H   H622      1.0  0.27328  0.98115  0.64219  1.0000
  H   H623      1.0  0.03353  0.73200  0.50500  1.0000
  C   C511      1.0  0.02003  0.79722  0.50367  1.0000
  N   N34       1.0  0.28572  0.98469  0.74536  1.0000
  H   H624      1.0  0.26857  0.97796  0.71584  1.0000
  H   H625      1.0  0.00291  0.78762  0.51270  1.0000
  H   H626      1.0  0.46748  0.98366  0.68505  1.0000
  H   H627      1.0  0.24920  0.98542  0.73237  1.0000
  H   H628      1.0  0.01727  0.66289  0.50223  1.0000
  S   S142      1.0  0.24920  0.98797  0.53515  1.0000
  C   C512      1.0  0.18008  0.87071  0.98767  1.0000
  N   N35       1.0  0.05549  0.73876  0.85640  1.0000
  H   H629      1.0  0.07424  0.76777  0.83429  1.0000
  H   H630      1.0  0.04645  0.68474  0.80042  1.0000
  H   H631      1.0  0.01637  0.68672  0.86587  1.0000
  C   C513      1.0  0.28552  0.96410  0.77797  1.0000
  Fe  Fe72      1.0  0.18570  0.96872  0.88952  1.0000
  S   S143      1.0  0.13972  0.94296  0.88044  1.0000
  S   S144      1.0  0.21546  0.95172  0.89440  1.0000
  Fe  Fe73      1.0  0.02615  0.78817  0.89552  1.0000
  S   S145      1.0  0.07200  0.81249  0.89007  1.0000
  S   S146      1.0  0.01614  0.74872  0.91048  1.0000
  H   H632      1.0  0.99704  0.64337  0.84659  1.0000
  C   C514      1.0  0.12110  0.90642  0.88193  1.0000
  C   C515      1.0  0.13467  0.89047  0.88468  1.0000
  C   C516      1.0  0.11924  0.86164  0.88668  1.0000
  C   C517      1.0  0.09016  0.84856  0.88642  1.0000
  C   C518      1.0  0.07653  0.86446  0.88364  1.0000
  C   C519      1.0  0.09194  0.89320  0.88112  1.0000
  H   H633      1.0  0.15706  0.90031  0.88515  1.0000
  H   H634      1.0  0.12996  0.84948  0.88868  1.0000
  H   H635      1.0  0.05414  0.85464  0.88330  1.0000
  H   H636      1.0  0.08124  0.90535  0.87893  1.0000
  H   H637      1.0  0.09670  0.85434  0.92765  1.0000
  H   H638      1.0  0.27910  0.97754  0.97007  1.0000
  C   C520      1.0  0.02480  0.68705  0.85215  1.0000
  C   C521      1.0  0.08651  0.85686  0.98207  1.0000
  H   H639      1.0  0.13513  0.93283  0.92346  1.0000
  H   H640      1.0  0.12034  0.89751  0.98429  1.0000
  H   H641      1.0  0.07911  0.72818  0.87717  1.0000
  H   H642      1.0  0.16284  0.92293  0.97031  1.0000
  C   C522      1.0  0.06381  0.73615  0.87664  1.0000
  H   H643      1.0  0.10568  0.92102  0.93782  1.0000
  C   C523      1.0  0.02119  0.66125  0.82256  1.0000
  H   H644      1.0  0.25107  0.96353  0.81730  1.0000
  C   C524      1.0  0.99713  0.75903  0.98518  1.0000
  H   H645      1.0  0.06768  0.72857  0.81920  1.0000
  C   C525      1.0  0.23880  0.97370  0.97384  1.0000
  H   H646      1.0  0.08784  0.78151  0.85803  1.0000
  C   C526      1.0  0.01331  0.66202  0.84112  1.0000
  C   C527      1.0  0.03291  0.74631  0.85648  1.0000
  H   H647      1.0  0.16892  0.91561  0.92847  1.0000
  H   H648      1.0  0.03980  0.76666  0.86430  1.0000
  C   C528      1.0  0.07977  0.76216  0.84857  1.0000
  H   H649      1.0  0.04590  0.72210  0.88468  1.0000
  C   C529      1.0  0.07361  0.83271  0.95083  1.0000
  H   H650      1.0  0.07321  0.75647  0.88506  1.0000
  H   H651      1.0  0.16679  0.94657  0.95199  1.0000
  H   H652      1.0  0.13833  0.93636  0.96671  1.0000
  S   S147      1.0  0.00420  0.80124  0.91613  1.0000
  H   H653      1.0  0.02549  0.74784  0.84157  1.0000
  H   H654      1.0  0.14209  0.88089  0.92413  1.0000
  Fe  Fe74      1.0  0.22705  0.97603  0.92304  1.0000
  C   C530      1.0  0.04103  0.68543  0.81508  1.0000
  H   H655      1.0  0.01472  0.73066  0.86358  1.0000
  H   H656      1.0  0.28418  0.94856  0.80638  1.0000
  H   H657      1.0  0.09709  0.75717  0.84725  1.0000
  H   H658      1.0  0.15834  0.84377  0.96254  1.0000
  H   H659      1.0  0.16417  0.89045  0.94599  1.0000
  C   C531      1.0  0.05299  0.71057  0.82609  1.0000
  C   C532      1.0  0.04516  0.71213  0.84504  1.0000
  S   S148      1.0  0.22398  0.95499  0.95148  1.0000
  C   C533      1.0  0.15732  0.84860  0.97757  1.0000
  H   H660      1.0  0.19801  0.88234  0.97965  1.0000
  H   H661      1.0  0.10727  0.89847  0.91968  1.0000
  N   N36       1.0  0.13378  0.90488  0.94546  1.0000
  C   C534      1.0  0.11991  0.91474  0.93105  1.0000
  C   C535      1.0  0.15103  0.92859  0.95937  1.0000
  C   C536      1.0  0.15293  0.89751  0.93562  1.0000
  C   C537      1.0  0.11250  0.88025  0.95443  1.0000
  C   C538      1.0  0.10789  0.88002  0.97437  1.0000
  C   C539      1.0  0.09477  0.85576  0.94296  1.0000
  H   H662      1.0  0.30043  0.95748  0.77431  1.0000
  S   S149      1.0  0.98905  0.76830  0.87380  1.0000
  H   H663      1.0  0.01108  0.64206  0.81370  1.0000
  C   C540      1.0  0.25763  0.96720  0.80273  1.0000
  C   C541      1.0  0.27607  0.97816  0.76499  1.0000
  H   H664      1.0  0.06013  0.81441  0.94166  1.0000
  C   C542      1.0  0.26593  0.98002  0.98009  1.0000
  H   H665      1.0  0.22534  0.92395  0.99511  1.0000
  H   H666      1.0  0.05267  0.81544  0.97627  1.0000
  C   C543      1.0  0.06938  0.83330  0.97032  1.0000
  H   H667      1.0  0.99817  0.72231  0.97462  1.0000
  C   C544      1.0  0.13330  0.83250  0.98673  1.0000
  C   C545      1.0  0.22172  0.97616  0.98723  1.0000
  C   C546      1.0  0.99886  0.73450  0.98727  1.0000
  C   C547      1.0  0.27628  0.95873  0.79652  1.0000
  H   H668      1.0  0.11574  0.81535  0.97886  1.0000
  H   H669      1.0  0.20067  0.97117  0.98268  1.0000
  C   C548      1.0  0.24827  0.98134  0.79050  1.0000
  Fe  Fe75      1.0  0.99175  0.76074  0.93016  1.0000
  H   H670      1.0  0.99704  0.79371  0.00042  1.0000
  C   C549      1.0  0.25737  0.98688  0.77194  1.0000
  S   S150      1.0  0.99287  0.77115  0.96240  1.0000
  H   H671      1.0  0.08312  0.85717  0.99726  1.0000
  C   C550      1.0  0.27554  0.98771  0.99955  1.0000
  C   C551      1.0  0.82275  0.10126  0.05006  1.0000
  S   S151      1.0  0.95294  0.22121  0.08865  1.0000
  S   S152      1.0  0.93902  0.14271  0.08299  1.0000
  H   H672      1.0  0.80808  0.04975  0.05794  1.0000
  Fe  Fe76      1.0  0.96757  0.18924  0.08949  1.0000
  C   C552      1.0  0.81260  0.07049  0.02162  1.0000
  S   S153      1.0  0.79218  0.99672  0.07452  1.0000
  H   H673      1.0  0.92044  0.18752  0.04506  1.0000
  H   H674      1.0  0.81469  0.10571  0.06333  1.0000
  Fe  Fe77      1.0  0.78463  0.02304  0.09611  1.0000
  S   S154      1.0  0.73927  0.00631  0.08597  1.0000
  S   S155      1.0  0.81125  0.07028  0.09925  1.0000
  H   H675      1.0  0.93188  0.20378  0.02307  1.0000
  H   H676      1.0  0.87837  0.13108  0.02844  1.0000
  H   H677      1.0  0.83074  0.12009  0.04150  1.0000
  H   H678      1.0  0.76956  0.08713  0.04698  1.0000
  C   C553      1.0  0.83517  0.06460  0.02402  1.0000
  C   C554      1.0  0.90367  0.12293  0.08810  1.0000
  C   C555      1.0  0.89012  0.09400  0.08412  1.0000
  C   C556      1.0  0.86202  0.07751  0.08774  1.0000
  C   C557      1.0  0.84705  0.08983  0.09526  1.0000
  C   C558      1.0  0.86044  0.11881  0.09887  1.0000
  C   C559      1.0  0.88859  0.13528  0.09537  1.0000
  H   H679      1.0  0.90159  0.08421  0.07853  1.0000
  H   H680      1.0  0.85207  0.05526  0.08490  1.0000
  H   H681      1.0  0.84906  0.12859  0.10465  1.0000
  H   H682      1.0  0.89866  0.15748  0.09848  1.0000
  H   H683      1.0  0.77660  0.03278  0.04259  1.0000
  H   H684      1.0  0.95111  0.16474  0.04467  1.0000
  H   H685      1.0  0.95276  0.14859  0.02246  1.0000
  H   H686      1.0  0.72830  0.01316  0.02471  1.0000
  C   C560      1.0  0.77747  0.08229  0.03380  1.0000
  N   N37       1.0  0.92013  0.16002  0.02220  1.0000
  C   C561      1.0  0.73290  0.00473  0.01208  1.0000
  S   S156      1.0  0.77532  0.99297  0.11998  1.0000
  H   H687      1.0  0.90376  0.13816  0.04783  1.0000
  H   H688      1.0  0.75962  0.06395  0.02623  1.0000
  H   H689      1.0  0.77943  0.05485  0.06304  1.0000
  H   H690      1.0  0.84443  0.06482  0.03823  1.0000
  C   C562      1.0  0.90006  0.13523  0.03182  1.0000
  C   C563      1.0  0.71035  0.99083  0.24526  1.0000
  C   C564      1.0  0.79081  0.05245  0.05100  1.0000
  C   C565      1.0  0.94840  0.16489  0.02869  1.0000
  N   N38       1.0  0.80100  0.07661  0.03867  1.0000
  H   H691      1.0  0.89578  0.18125  0.02483  1.0000
  H   H692      1.0  0.96484  0.18545  0.02479  1.0000
  H   H693      1.0  0.90202  0.11649  0.02773  1.0000
  C   C566      1.0  0.91684  0.18407  0.02907  1.0000
  H   H694      1.0  0.84065  0.09831  0.05530  1.0000
  H   H695      1.0  0.78374  0.10045  0.02465  1.0000
  H   H696      1.0  0.71399  0.99046  0.15801  1.0000
  H   H697      1.0  0.69574  0.99098  0.18984  1.0000
  H   H698      1.0  0.97392  0.32968  0.19347  1.0000
  S   S157      1.0  0.97493  0.25520  0.03916  1.0000
  H   H699      1.0  0.96920  0.32218  0.15807  1.0000
  H   H700      1.0  0.86228  0.05210  0.01051  1.0000
  C   C567      1.0  0.80123  0.06877  0.00245  1.0000
  H   H701      1.0  0.73087  0.99365  0.24129  1.0000
  C   C568      1.0  0.84549  0.05718  0.00825  1.0000
  C   C569      1.0  0.98077  0.34308  0.16459  1.0000
  H   H702      1.0  0.94939  0.18901  0.49239  1.0000
  H   H703      1.0  0.92055  0.18462  0.47693  1.0000
  H   H704      1.0  0.73275  0.05198  0.38731  1.0000
  H   H705      1.0  0.86768  0.17319  0.39059  1.0000
  H   H706      1.0  0.85984  0.05810  0.45903  1.0000
  S   S158      1.0  0.77604  0.99139  0.38067  1.0000
  Fe  Fe78      1.0  0.95480  0.19068  0.39590  1.0000
  S   S159      1.0  0.91684  0.15471  0.38015  1.0000
  S   S160      1.0  0.95863  0.23331  0.40083  1.0000
  Fe  Fe79      1.0  0.78956  0.01240  0.41036  1.0000
  Fe  Fe80      1.0  0.97656  0.23192  0.43064  1.0000
  S   S161      1.0  0.82639  0.05286  0.42261  1.0000
  H   H707      1.0  0.79868  0.12229  0.35139  1.0000
  H   H708      1.0  0.94181  0.24232  0.49534  1.0000
  C   C570      1.0  0.89332  0.12539  0.39209  1.0000
  C   C571      1.0  0.87247  0.10235  0.38117  1.0000
  C   C572      1.0  0.85254  0.07932  0.39023  1.0000
  C   C573      1.0  0.85290  0.07944  0.41034  1.0000
  C   C574      1.0  0.87421  0.10211  0.42124  1.0000
  C   C575      1.0  0.89432  0.12496  0.41220  1.0000
  H   H709      1.0  0.87171  0.10241  0.36561  1.0000
  H   H710      1.0  0.83689  0.06165  0.38166  1.0000
  H   H711      1.0  0.87512  0.10214  0.43676  1.0000
  H   H712      1.0  0.91029  0.14247  0.42076  1.0000
  C   C576      1.0  0.92821  0.17330  0.48663  1.0000
  C   C577      1.0  0.87270  0.13177  0.47542  1.0000
  S   S162      1.0  0.96990  0.18850  0.42601  1.0000
  S   S163      1.0  0.95966  0.23980  0.45793  1.0000
  H   H713      1.0  0.84217  0.16436  0.35872  1.0000
  C   C578      1.0  0.84575  0.11139  0.46941  1.0000
  H   H714      1.0  0.93089  0.15768  0.47778  1.0000
  C   C579      1.0  0.96291  0.24572  0.49731  1.0000
  S   S164      1.0  0.74722  0.00708  0.41577  1.0000
  H   H715      1.0  0.83959  0.10603  0.45417  1.0000
  H   H716      1.0  0.73739  0.05551  0.35449  1.0000
  H   H717      1.0  0.77235  0.01551  0.30374  1.0000
  H   H718      1.0  0.76916  0.07715  0.34444  1.0000
  C   C580      1.0  0.97719  0.24606  0.48110  1.0000
  H   H719      1.0  0.73649  0.00399  0.47045  1.0000
  C   C581      1.0  0.82465  0.03476  0.47529  1.0000
  H   H720      1.0  0.80593  0.09609  0.40914  1.0000
  H   H721      1.0  0.81008  0.02797  0.46263  1.0000
  C   C582      1.0  0.87154  0.06077  0.48940  1.0000
  C   C583      1.0  0.85273  0.05179  0.47323  1.0000
  C   C584      1.0  0.88127  0.13892  0.49533  1.0000
  H   H722      1.0  0.75035  0.09242  0.35611  1.0000
  H   H723      1.0  0.84873  0.13943  0.41576  1.0000
  H   H724      1.0  0.68254  0.00135  0.32818  1.0000
  H   H725      1.0  0.74676  0.08877  0.39260  1.0000
  H   H726      1.0  0.88635  0.14168  0.46415  1.0000
  H   H727      1.0  0.89334  0.07413  0.48764  1.0000
  N   N39       1.0  0.77205  0.07778  0.37556  1.0000
  C   C585      1.0  0.78061  0.05588  0.37497  1.0000
  C   C586      1.0  0.75232  0.07179  0.39078  1.0000
  C   C587      1.0  0.75669  0.07587  0.35682  1.0000
  C   C588      1.0  0.79710  0.10495  0.37982  1.0000
  C   C589      1.0  0.80837  0.12513  0.36576  1.0000
  C   C590      1.0  0.81230  0.11097  0.39804  1.0000
  C   C591      1.0  0.83340  0.14957  0.36977  1.0000
  C   C592      1.0  0.83705  0.13564  0.40195  1.0000
  C   C593      1.0  0.84776  0.15473  0.38778  1.0000
  H   H728      1.0  0.79012  0.05434  0.38913  1.0000
  H   H729      1.0  0.76266  0.03514  0.37109  1.0000
  H   H730      1.0  0.79612  0.05997  0.36415  1.0000
  H   H731      1.0  0.76070  0.06900  0.40499  1.0000
  C   C594      1.0  0.81529  0.02638  0.49350  1.0000
  C   C595      1.0  0.75305  0.99690  0.29970  1.0000
  S   S165      1.0  0.70842  0.99258  0.36275  1.0000
  C   C596      1.0  0.82661  0.09774  0.48289  1.0000
  H   H732      1.0  0.80578  0.08196  0.47811  1.0000
  C   C597      1.0  0.73869  0.99444  0.28187  1.0000
  H   H733      1.0  0.74790  0.01178  0.27277  1.0000
  H   H734      1.0  0.79324  0.01338  0.49431  1.0000
  C   C598      1.0  0.73451  0.99178  0.48287  1.0000
  H   H735      1.0  0.71289  0.01048  0.25218  1.0000
  Fe  Fe81      1.0  0.90884  0.30688  0.72047  1.0000
  S   S166      1.0  0.87743  0.32133  0.72730  1.0000
  S   S167      1.0  0.91001  0.29442  0.68871  1.0000
  H   H736      1.0  0.94435  0.16357  0.52036  1.0000
  S   S168      1.0  0.72466  0.15584  0.72795  1.0000
  H   H737      1.0  0.58821  0.06631  0.69918  1.0000
  H   H738      1.0  0.79675  0.02876  0.54899  1.0000
  C   C599      1.0  0.86243  0.05233  0.50769  1.0000
  H   H739      1.0  0.92862  0.19916  0.51925  1.0000
  H   H740      1.0  0.92359  0.13035  0.50769  1.0000
  H   H741      1.0  0.81920  0.09387  0.51289  1.0000
  C   C600      1.0  0.52795  0.15004  0.74755  1.0000
  H   H742      1.0  0.49537  0.07961  0.72335  1.0000
  H   H743      1.0  0.78854  0.03201  0.52437  1.0000
  C   C601      1.0  0.96096  0.37742  0.68686  1.0000
  C   C602      1.0  0.50797  0.07641  0.73446  1.0000
  Fe  Fe82      1.0  0.66237  0.05525  0.72934  1.0000
  S   S169      1.0  0.65749  0.02218  0.70621  1.0000
  S   S170      1.0  0.65451  0.09041  0.72108  1.0000
  H   H744      1.0  0.88240  0.19888  0.65951  1.0000
  S   S171      1.0  0.73596  0.03658  0.63744  1.0000
  Fe  Fe83      1.0  0.79595  0.01566  0.59746  1.0000
  S   S172      1.0  0.84246  0.04135  0.60049  1.0000
  S   S173      1.0  0.76706  0.03251  0.58974  1.0000
  C   C603      1.0  0.79790  0.22746  0.73548  1.0000
  Fe  Fe84      1.0  0.94460  0.18908  0.57828  1.0000
  S   S174      1.0  0.90161  0.15939  0.56515  1.0000
  S   S175      1.0  0.95750  0.23481  0.58038  1.0000
  H   H745      1.0  0.57732  0.99797  0.71437  1.0000
  C   C604      1.0  0.53477  0.08047  0.73064  1.0000
  Fe  Fe85      1.0  0.62803  0.08169  0.74646  1.0000
  C   C605      1.0  0.85850  0.07379  0.59016  1.0000
  C   C606      1.0  0.88701  0.09097  0.59426  1.0000
  C   C607      1.0  0.90043  0.11721  0.58655  1.0000
  C   C608      1.0  0.88542  0.12627  0.57450  1.0000
  C   C609      1.0  0.85695  0.10889  0.57006  1.0000
  C   C610      1.0  0.84344  0.08279  0.57804  1.0000
  H   H746      1.0  0.89875  0.08405  0.60360  1.0000
  H   H747      1.0  0.92241  0.13037  0.58992  1.0000
  H   H748      1.0  0.84523  0.11593  0.56083  1.0000
  H   H749      1.0  0.82144  0.06973  0.57488  1.0000
  H   H750      1.0  0.70069  0.00136  0.72560  1.0000
  C   C611      1.0  0.80610  0.03678  0.53516  1.0000
  S   S176      1.0  0.58597  0.08212  0.73891  1.0000
  Fe  Fe86      1.0  0.69180  0.11731  0.74125  1.0000
  H   H751      1.0  0.86528  0.44418  0.72446  1.0000
  C   C612      1.0  0.67871  0.02700  0.68658  1.0000
  C   C613      1.0  0.70247  0.05214  0.68426  1.0000
  C   C614      1.0  0.71936  0.05469  0.66902  1.0000
  C   C615      1.0  0.71283  0.03224  0.65580  1.0000
  H   H752      1.0  0.58265  0.03169  0.72224  1.0000
  H   H753      1.0  0.91316  0.20407  0.63351  1.0000
  H   H754      1.0  0.70804  0.06958  0.69437  1.0000
  H   H755      1.0  0.73769  0.07426  0.66759  1.0000
  C   C616      1.0  0.53079  0.99110  0.67528  1.0000
  H   H756      1.0  0.87544  0.40486  0.72935  1.0000
  H   H757      1.0  0.73601  0.02878  0.70341  1.0000
  H   H758      1.0  0.91026  0.40009  0.70934  1.0000
  C   C617      1.0  0.68862  0.00732  0.65780  1.0000
  C   C618      1.0  0.92830  0.28005  0.67606  1.0000
  C   C619      1.0  0.95112  0.27828  0.68460  1.0000
  C   C620      1.0  0.73618  0.00324  0.50155  1.0000
  C   C621      1.0  0.92430  0.39403  0.70296  1.0000
  C   C622      1.0  0.93679  0.26398  0.64505  1.0000
  C   C623      1.0  0.92119  0.27261  0.65624  1.0000
  Fe  Fe87      1.0  0.74263  0.00978  0.61447  1.0000
  H   H759      1.0  0.93119  0.25880  0.62981  1.0000
  H   H760      1.0  0.90372  0.27402  0.64938  1.0000
  H   H761      1.0  0.81372  0.24074  0.72636  1.0000
  H   H762      1.0  0.53259  0.40711  0.74588  1.0000
  C   C624      1.0  0.97571  0.24978  0.51605  1.0000
  H   H763      1.0  0.89526  0.17545  0.52602  1.0000
  C   C625      1.0  0.55326  0.48312  0.69587  1.0000
  C   C626      1.0  0.92276  0.14805  0.51521  1.0000
  C   C627      1.0  0.55185  0.07617  0.74465  1.0000
  C   C628      1.0  0.77498  0.20290  0.72757  1.0000
  H   H764      1.0  0.56536  0.48420  0.70955  1.0000
  S   S177      1.0  0.94320  0.34160  0.73924  1.0000
  N   N40       1.0  0.57871  0.02407  0.69123  1.0000
  C   C629      1.0  0.93265  0.36575  0.67981  1.0000
  H   H765      1.0  0.73959  0.02434  0.50332  1.0000
  C   C630      1.0  0.90780  0.18296  0.51335  1.0000
  H   H766      1.0  0.77338  0.19748  0.71236  1.0000
  S   S178      1.0  0.70097  0.08233  0.74823  1.0000
  C   C631      1.0  0.54086  0.47321  0.74574  1.0000
  C   C632      1.0  0.91136  0.42809  0.74898  1.0000
  C   C633      1.0  0.52672  0.42342  0.74546  1.0000
  H   H767      1.0  0.49014  0.18375  0.73711  1.0000
  H   H768      1.0  0.64064  0.48389  0.68531  1.0000
  H   H769      1.0  0.89844  0.19324  0.50413  1.0000
  H   H770      1.0  0.87811  0.05992  0.51957  1.0000
  H   H771      1.0  0.96379  0.36193  0.64960  1.0000
  H   H772      1.0  0.61503  0.06328  0.68788  1.0000
  C   C634      1.0  0.58947  0.01089  0.67756  1.0000
  C   C635      1.0  0.59208  0.05418  0.68784  1.0000
  H   H773      1.0  0.95692  0.28380  0.69979  1.0000
  H   H774      1.0  0.81836  0.05974  0.53711  1.0000
  H   H775      1.0  0.85994  0.02280  0.54129  1.0000
  H   H776      1.0  0.95055  0.33110  0.66310  1.0000
  H   H777      1.0  0.49592  0.13646  0.71439  1.0000
  S   S179      1.0  0.96319  0.18854  0.60772  1.0000
  C   C636      1.0  0.83429  0.10432  0.50247  1.0000
  C   C637      1.0  0.50911  0.18107  0.73878  1.0000
  C   C638      1.0  0.57171  0.15505  0.73624  1.0000
  C   C639      1.0  0.58749  0.02026  0.71100  1.0000
  C   C640      1.0  0.70582  0.99084  0.71439  1.0000
  C   C641      1.0  0.88871  0.42480  0.73668  1.0000
  C   C642      1.0  0.86120  0.12449  0.50867  1.0000
  C   C643      1.0  0.50625  0.01256  0.70000  1.0000
  C   C644      1.0  0.96979  0.39724  0.70266  1.0000
  C   C645      1.0  0.48491  0.13283  0.72780  1.0000
  N   N41       1.0  0.81688  0.10870  0.63591  1.0000
  C   C646      1.0  0.80046  0.10766  0.65245  1.0000
  C   C647      1.0  0.79927  0.10496  0.61797  1.0000
  C   C648      1.0  0.82269  0.08482  0.63695  1.0000
  C   C649      1.0  0.84321  0.13498  0.63569  1.0000
  C   C650      1.0  0.86140  0.13893  0.62097  1.0000
  C   C651      1.0  0.85146  0.15739  0.64964  1.0000
  C   C652      1.0  0.88623  0.16358  0.62021  1.0000
  C   C653      1.0  0.87646  0.18197  0.64879  1.0000
  C   C654      1.0  0.89382  0.18502  0.63414  1.0000
  H   H778      1.0  0.79387  0.12405  0.65200  1.0000
  H   H779      1.0  0.78105  0.08753  0.65233  1.0000
  H   H780      1.0  0.81223  0.10976  0.66647  1.0000
  H   H781      1.0  0.79537  0.12303  0.61614  1.0000
  H   H782      1.0  0.77870  0.08599  0.61803  1.0000
  H   H783      1.0  0.80884  0.10251  0.60490  1.0000
  H   H784      1.0  0.83680  0.08725  0.64980  1.0000
  H   H785      1.0  0.80329  0.06479  0.63772  1.0000
  H   H786      1.0  0.83256  0.08227  0.62408  1.0000
  H   H787      1.0  0.85647  0.12296  0.60985  1.0000
  H   H788      1.0  0.83898  0.15658  0.66131  1.0000
  H   H789      1.0  0.89957  0.16612  0.60866  1.0000
  H   H790      1.0  0.56937  0.45647  0.74685  1.0000
  N   N42       1.0  0.82356  0.02434  0.52925  1.0000
  C   C655      1.0  0.84589  0.03145  0.54482  1.0000
  C   C656      1.0  0.49828  0.41614  0.74462  1.0000
  C   C657      1.0  0.54762  0.15771  0.73340  1.0000
  C   C658      1.0  0.96689  0.26991  0.67337  1.0000
  Fe  Fe88      1.0  0.74315  0.99272  0.57144  1.0000
  S   S180      1.0  0.89658  0.27632  0.74386  1.0000
  H   H791      1.0  0.58439  0.05811  0.67372  1.0000
  H   H792      1.0  0.59424  0.47423  0.69212  1.0000
  H   H793      1.0  0.58474  0.01395  0.66233  1.0000
  H   H794      1.0  0.83729  0.02291  0.55878  1.0000
  C   C659      1.0  0.83396  0.03438  0.51024  1.0000
  S   S181      1.0  0.73422  0.00289  0.54095  1.0000
  H   H795      1.0  0.61027  0.02813  0.71285  1.0000
  C   C660      1.0  0.95997  0.26280  0.65350  1.0000
  C   C661      1.0  0.75395  0.18545  0.73910  1.0000
  C   C662      1.0  0.53497  0.02289  0.70151  1.0000
  H   H796      1.0  0.54685  0.03914  0.71243  1.0000
  C   C663      1.0  0.96926  0.35098  0.66099  1.0000
  C   C664      1.0  0.88292  0.44730  0.73395  1.0000
  H   H797      1.0  0.85837  0.05428  0.54783  1.0000
  H   H798      1.0  0.54240  0.08715  0.71667  1.0000
  N   N43       1.0  0.50228  0.15244  0.74397  1.0000
  H   H799      1.0  0.96454  0.24966  0.52841  1.0000
  H   H800      1.0  0.92351  0.34951  0.66852  1.0000
  C   C665      1.0  0.67181  0.00470  0.67314  1.0000
  H   H801      1.0  0.96639  0.33446  0.69796  1.0000
  H   H802      1.0  0.86614  0.12897  0.52404  1.0000
  H   H803      1.0  0.54422  0.16524  0.71982  1.0000
  C   C666      1.0  0.73150  0.99301  0.68676  1.0000
  H   H804      1.0  0.50655  0.48223  0.74436  1.0000
  C   C667      1.0  0.54819  0.01251  0.68925  1.0000
  H   H805      1.0  0.51871  0.18647  0.72482  1.0000
  H   H806      1.0  0.58620  0.16047  0.72511  1.0000
  C   C668      1.0  0.89934  0.47358  0.74355  1.0000
  C   C669      1.0  0.72577  0.00629  0.70186  1.0000
  H   H807      1.0  0.95876  0.42044  0.72266  1.0000
  C   C670      1.0  0.51242  0.46592  0.74458  1.0000
  H   H808      1.0  0.49678  0.02091  0.70966  1.0000
  H   H809      1.0  0.74606  0.00609  0.67683  1.0000
  H   H810      1.0  0.52358  0.19663  0.75008  1.0000
  H   H811      1.0  0.54825  0.46354  0.68756  1.0000
  C   C671      1.0  0.95174  0.40556  0.71040  1.0000
  C   C672      1.0  0.49139  0.43780  0.74405  1.0000
  H   H812      1.0  0.53326  0.48138  0.70017  1.0000
  H   H813      1.0  0.89307  0.36440  0.68250  1.0000
  C   C673      1.0  0.91472  0.37404  0.68780  1.0000
  H   H814      1.0  0.91161  0.14037  0.52845  1.0000
  H   H815      1.0  0.61251  0.02003  0.67964  1.0000
  N   N44       1.0  0.98031  0.36842  0.67923  1.0000
  S   S182      1.0  0.77370  0.99559  0.62324  1.0000
  C   C674      1.0  0.48978  0.99161  0.68618  1.0000
  C   C675      1.0  0.80651  0.99362  0.52792  1.0000
  C   C676      1.0  0.54776  0.45156  0.74598  1.0000
  H   H816      1.0  0.68274  0.99012  0.64750  1.0000
  Fe  Fe89      1.0  0.91092  0.35424  0.74761  1.0000
  Fe  Fe90      1.0  0.97841  0.23475  0.60941  1.0000
  N   N45       1.0  0.90954  0.16042  0.50231  1.0000
  H   H817      1.0  0.82794  0.34679  0.74378  1.0000
  H   H818      1.0  0.54968  0.48742  0.65708  1.0000
  H   H819      1.0  0.58105  0.98832  0.67977  1.0000
  Fe  Fe91      1.0  0.94844  0.19542  0.90094  1.0000
  S   S183      1.0  0.96088  0.23775  0.91426  1.0000
  S   S184      1.0  0.90214  0.16790  0.90001  1.0000
  H   H820      1.0  0.84112  0.04888  0.97751  1.0000
  H   H821      1.0  0.78598  0.32151  0.76195  1.0000
  C   C677      1.0  0.66710  0.04999  0.87911  1.0000
  H   H822      1.0  0.86155  0.35786  0.75573  1.0000
  H   H823      1.0  0.64273  0.05084  0.83322  1.0000
  H   H824      1.0  0.78000  0.22348  0.78168  1.0000
  Fe  Fe92      1.0  0.79695  0.01431  0.90334  1.0000
  S   S185      1.0  0.84381  0.03673  0.90315  1.0000
  S   S186      1.0  0.76698  0.03164  0.90318  1.0000
  Fe  Fe93      1.0  0.92914  0.31138  0.76323  1.0000
  S   S187      1.0  0.89976  0.32629  0.77282  1.0000
  S   S188      1.0  0.95747  0.29881  0.78139  1.0000
  Fe  Fe94      1.0  0.67257  0.07467  0.77224  1.0000
  S   S189      1.0  0.68711  0.07293  0.80374  1.0000
  S   S190      1.0  0.66521  0.11152  0.76608  1.0000
  H   H825      1.0  0.86778  0.18954  0.87910  1.0000
  H   H826      1.0  0.87496  0.39539  0.77828  1.0000
  C   C678      1.0  0.73403  0.01671  0.99416  1.0000
  H   H827      1.0  0.79906  0.30064  0.77303  1.0000
  C   C679      1.0  0.97102  0.28742  0.84607  1.0000
  C   C680      1.0  0.79939  0.32117  0.77445  1.0000
  H   H828      1.0  0.67446  0.01446  0.79759  1.0000
  C   C681      1.0  0.64200  0.01516  0.84618  1.0000
  H   H829      1.0  0.73083  0.03471  0.99319  1.0000
  C   C682      1.0  0.89226  0.23959  0.82617  1.0000
  H   H830      1.0  0.50347  0.41269  0.79395  1.0000
  H   H831      1.0  0.82180  0.19128  0.79810  1.0000
  S   S191      1.0  0.82677  0.26728  0.76517  1.0000
  C   C683      1.0  0.75620  0.19278  0.75875  1.0000
  C   C684      1.0  0.93502  0.17845  0.98967  1.0000
  C   C685      1.0  0.50198  0.43168  0.79424  1.0000
  H   H832      1.0  0.94640  0.19328  0.96136  1.0000
  S   S192      1.0  0.63397  0.04455  0.75392  1.0000
  C   C686      1.0  0.69665  0.05052  0.81687  1.0000
  C   C687      1.0  0.71262  0.06055  0.83459  1.0000
  C   C688      1.0  0.71853  0.04301  0.84645  1.0000
  H   H833      1.0  0.72012  0.08201  0.83932  1.0000
  H   H834      1.0  0.73069  0.05117  0.86000  1.0000
  H   H835      1.0  0.94533  0.45744  0.76817  1.0000
  C   C689      1.0  0.64733  0.04269  0.84623  1.0000
  C   C690      1.0  0.73843  0.00504  0.97736  1.0000
  C   C691      1.0  0.88677  0.13157  0.90119  1.0000
  C   C692      1.0  0.85780  0.11640  0.90085  1.0000
  C   C693      1.0  0.84455  0.08738  0.90152  1.0000
  C   C694      1.0  0.86015  0.07326  0.90254  1.0000
  C   C695      1.0  0.88921  0.08846  0.90304  1.0000
  C   C696      1.0  0.90254  0.11759  0.90239  1.0000
  H   H836      1.0  0.84550  0.12710  0.89995  1.0000
  H   H837      1.0  0.82224  0.07597  0.90108  1.0000
  H   H838      1.0  0.90142  0.07766  0.90379  1.0000
  H   H839      1.0  0.92490  0.12916  0.90263  1.0000
  C   C697      1.0  0.88637  0.17871  0.84632  1.0000
  H   H840      1.0  0.63407  0.00691  0.91134  1.0000
  C   C698      1.0  0.65993  0.06010  0.86263  1.0000
  C   C699      1.0  0.95945  0.29297  0.80644  1.0000
  H   H841      1.0  0.63332  0.00210  0.83306  1.0000
  C   C700      1.0  0.66180  0.02196  0.87964  1.0000
  H   H842      1.0  0.95348  0.32707  0.81648  1.0000
  C   C701      1.0  0.79974  0.23519  0.75499  1.0000
  S   S193      1.0  0.78104  0.98964  0.92930  1.0000
  C   C702      1.0  0.96403  0.30800  0.84029  1.0000
  H   H843      1.0  0.66482  0.08173  0.86230  1.0000
  H   H844      1.0  0.80180  0.05888  0.97239  1.0000
  H   H845      1.0  0.96735  0.25842  0.80141  1.0000
  H   H846      1.0  0.87874  0.11657  0.99776  1.0000
  C   C703      1.0  0.77884  0.21768  0.76659  1.0000
  H   H847      1.0  0.66472  0.03929  0.91756  1.0000
  H   H848      1.0  0.83612  0.44687  0.78096  1.0000
  Fe  Fe95      1.0  0.74904  0.00388  0.92788  1.0000
  H   H849      1.0  0.92762  0.22984  0.85232  1.0000
  H   H850      1.0  0.66183  0.00838  0.92734  1.0000
  C   C704      1.0  0.95798  0.31059  0.82066  1.0000
  C   C705      1.0  0.52669  0.45613  0.79247  1.0000
  H   H851      1.0  0.51958  0.13162  0.77584  1.0000
  H   H852      1.0  0.84158  0.17803  0.85987  1.0000
  C   C706      1.0  0.85802  0.42308  0.78020  1.0000
  H   H853      1.0  0.50705  0.05721  0.78052  1.0000
  C   C707      1.0  0.57690  0.14466  0.75319  1.0000
  H   H854      1.0  0.90735  0.15216  0.94426  1.0000
  C   C708      1.0  0.68694  0.02263  0.81106  1.0000
  C   C709      1.0  0.90988  0.15344  0.95990  1.0000
  H   H855      1.0  0.74011  0.17964  0.76776  1.0000
  H   H856      1.0  0.78501  0.35908  0.77588  1.0000
  C   C710      1.0  0.51458  0.06367  0.76649  1.0000
  C   C711      1.0  0.85587  0.39660  0.77865  1.0000
  C   C712      1.0  0.53377  0.13920  0.76460  1.0000
  H   H857      1.0  0.86740  0.35505  0.79020  1.0000
  C   C713      1.0  0.80580  0.37621  0.77714  1.0000
  C   C714      1.0  0.87512  0.21334  0.83362  1.0000
  H   H858      1.0  0.86657  0.16099  0.84028  1.0000
  C   C715      1.0  0.91632  0.15714  0.00086  1.0000
  C   C716      1.0  0.48522  0.14603  0.76083  1.0000
  C   C717      1.0  0.89410  0.13377  0.99059  1.0000
  H   H859      1.0  0.89331  0.17113  0.85918  1.0000
  C   C718      1.0  0.81156  0.06111  0.98681  1.0000
  C   C719      1.0  0.70805  0.01490  0.84092  1.0000
  N   N46       1.0  0.82806  0.34459  0.77460  1.0000
  H   H860      1.0  0.97682  0.25866  0.96866  1.0000
  C   C720      1.0  0.54130  0.06750  0.76261  1.0000
  H   H861      1.0  0.78980  0.40547  0.77852  1.0000
  C   C721      1.0  0.84487  0.34053  0.79046  1.0000
  S   S194      1.0  0.73852  0.02006  0.95492  1.0000
  H   H862      1.0  0.84289  0.31927  0.78948  1.0000
  H   H863      1.0  0.85779  0.21370  0.86874  1.0000
  H   H864      1.0  0.85256  0.23710  0.78598  1.0000
  H   H865      1.0  0.56167  0.12773  0.78016  1.0000
  H   H866      1.0  0.70751  0.01986  0.91401  1.0000
  C   C722      1.0  0.93184  0.17657  0.96953  1.0000
  H   H867      1.0  0.91500  0.21684  0.87492  1.0000
  H   H868      1.0  0.90926  0.24399  0.86552  1.0000
  H   H869      1.0  0.90195  0.18340  0.83546  1.0000
  C   C723      1.0  0.85878  0.23055  0.79915  1.0000
  C   C724      1.0  0.84952  0.19609  0.82294  1.0000
  C   C725      1.0  0.90991  0.22455  0.86137  1.0000
  H   H870      1.0  0.49715  0.15981  0.77367  1.0000
  C   C726      1.0  0.86163  0.19590  0.86529  1.0000
  C   C727      1.0  0.84149  0.20472  0.80603  1.0000
  H   H871      1.0  0.96111  0.26442  0.00047  1.0000
  H   H872      1.0  0.54588  0.45531  0.79094  1.0000
  N   N47       1.0  0.88328  0.20354  0.85134  1.0000
  H   H873      1.0  0.97644  0.25296  0.83601  1.0000
  S   S195      1.0  0.71204  0.99084  0.85618  1.0000
  C   C728      1.0  0.88413  0.24789  0.80916  1.0000
  H   H874      1.0  0.83554  0.17569  0.82748  1.0000
  H   H875      1.0  0.96382  0.32244  0.85104  1.0000
  C   C729      1.0  0.96587  0.27200  0.81225  1.0000
  H   H876      1.0  0.91213  0.25411  0.83313  1.0000
  C   C730      1.0  0.89108  0.13209  0.97040  1.0000
  H   H877      1.0  0.59515  0.14176  0.75510  1.0000
  C   C731      1.0  0.70046  0.02709  0.90102  1.0000
  C   C732      1.0  0.83360  0.05531  0.98969  1.0000
  H   H878      1.0  0.87826  0.44133  0.78112  1.0000
  H   H879      1.0  0.87400  0.11419  0.96275  1.0000
  S   S196      1.0  0.97068  0.21096  0.87409  1.0000
  H   H880      1.0  0.70851  0.04980  0.90348  1.0000
  H   H881      1.0  0.89766  0.26786  0.80358  1.0000
  C   C733      1.0  0.83427  0.42622  0.78009  1.0000
  C   C734      1.0  0.69239  0.00495  0.82309  1.0000
  H   H882      1.0  0.55383  0.06396  0.77362  1.0000
  H   H883      1.0  0.95218  0.19692  0.99645  1.0000
  H   H884      1.0  0.78973  0.32133  0.78805  1.0000
  C   C735      1.0  0.82970  0.37231  0.77706  1.0000
  H   H885      1.0  0.67742  0.06449  0.89129  1.0000
  H   H886      1.0  0.87100  0.99565  0.90704  1.0000
  C   C736      1.0  0.92782  0.45437  0.75854  1.0000
  H   H887      1.0  0.71080  0.02409  0.88855  1.0000
  H   H888      1.0  0.83828  0.34349  0.80477  1.0000
  C   C737      1.0  0.64922  0.00484  0.86253  1.0000
  C   C738      1.0  0.65703  0.01685  0.91405  1.0000
  C   C739      1.0  0.97121  0.26895  0.83192  1.0000
  C   C740      1.0  0.55800  0.13678  0.76732  1.0000
  N   N48       1.0  0.66990  0.01188  0.89723  1.0000
  C   C741      1.0  0.80823  0.40285  0.77865  1.0000
  H   H889      1.0  0.83719  0.32170  0.75321  1.0000
  C   C742      1.0  0.92188  0.47680  0.75593  1.0000
  C   C743      1.0  0.49760  0.06821  0.75256  1.0000
  C   C744      1.0  0.83918  0.34269  0.75604  1.0000
  Fe  Fe96      1.0  0.73899  0.99410  0.88370  1.0000
  C   C745      1.0  0.97590  0.25664  0.99967  1.0000
  Fe  Fe97      1.0  0.86796  0.29289  0.75202  1.0000
  C   C746      1.0  0.52668  0.48154  0.79170  1.0000
  C   C747      1.0  0.50191  0.48264  0.79264  1.0000
  H   H890      1.0  0.78377  0.07238  0.99910  1.0000
  S   S197      1.0  0.91979  0.40022  0.75322  1.0000
  C   C748      1.0  0.75288  0.90357  0.03245  1.0000
  H   H891      1.0  0.92282  0.73914  0.04444  1.0000
  N   N49       1.0  0.75870  0.82783  0.03813  1.0000
  Fe  Fe98      1.0  0.57613  0.86122  0.23299  1.0000
  H   H892      1.0  0.73910  0.80620  0.01066  1.0000
  S   S198      1.0  0.56758  0.81913  0.21983  1.0000
  Fe  Fe99      1.0  0.60984  0.92264  0.22399  1.0000
  S   S199      1.0  0.64579  0.95410  0.20730  1.0000
  S   S200      1.0  0.56756  0.88893  0.21329  1.0000
  H   H893      1.0  0.93744  0.72254  0.05964  1.0000
  H   H894      1.0  0.75917  0.90792  0.06335  1.0000
  H   H895      1.0  0.64193  0.92787  0.09887  1.0000
  C   C749      1.0  0.50056  0.82557  0.21799  1.0000
  Fe  Fe100     1.0  0.53865  0.61418  0.24248  1.0000
  C   C750      1.0  0.64254  0.78617  0.16573  1.0000
  Fe  Fe101     1.0  0.59557  0.65971  0.22956  1.0000
  S   S201      1.0  0.63306  0.68139  0.21100  1.0000
  S   S202      1.0  0.55122  0.65197  0.22420  1.0000
  Fe  Fe102     1.0  0.71814  0.72039  0.11356  1.0000
  S   S203      1.0  0.74814  0.76080  0.12884  1.0000
  S   S204      1.0  0.68139  0.68683  0.12823  1.0000
  Fe  Fe103     1.0  0.74690  0.73865  0.07486  1.0000
  S   S205      1.0  0.77791  0.78059  0.08809  1.0000
  S   S206      1.0  0.75594  0.72901  0.04479  1.0000
  Fe  Fe104     1.0  0.78118  0.75676  0.11320  1.0000
  S   S207      1.0  0.82176  0.76450  0.12911  1.0000
  Fe  Fe105     1.0  0.74173  0.77992  0.10215  1.0000
  S   S208      1.0  0.72556  0.81075  0.10406  1.0000
  S   S209      1.0  0.75166  0.71476  0.09969  1.0000
  S   S210      1.0  0.71027  0.73967  0.08716  1.0000
  Fe  Fe106     1.0  0.77933  0.96536  0.09731  1.0000
  S   S211      1.0  0.73463  0.94524  0.08691  1.0000
  S   S212      1.0  0.80202  0.94014  0.10124  1.0000
  H   H896      1.0  0.56670  0.76882  0.20654  1.0000
  Fe  Fe107     1.0  0.73054  0.97423  0.10842  1.0000
  C   C751      1.0  0.90593  0.82201  0.10055  1.0000
  C   C752      1.0  0.67770  0.81399  0.14444  1.0000
  C   C753      1.0  0.63187  0.91726  0.05033  1.0000
  C   C754      1.0  0.92685  0.85562  0.12758  1.0000
  H   H897      1.0  0.74634  0.89365  0.00199  1.0000
  Fe  Fe108     1.0  0.95401  0.75230  0.09506  1.0000
  S   S213      1.0  0.90889  0.74050  0.08640  1.0000
  H   H898      1.0  0.65698  0.96317  0.24840  1.0000
  H   H899      1.0  0.89895  0.86606  0.14210  1.0000
  C   C755      1.0  0.74565  0.73458  0.02130  1.0000
  S   S214      1.0  0.69017  0.95103  0.12397  1.0000
  C   C756      1.0  0.95710  0.82238  0.09444  1.0000
  C   C757      1.0  0.74806  0.84663  0.10541  1.0000
  C   C758      1.0  0.73660  0.86454  0.10733  1.0000
  C   C759      1.0  0.75319  0.89329  0.10661  1.0000
  C   C760      1.0  0.78142  0.90434  0.10394  1.0000
  C   C761      1.0  0.79319  0.88647  0.10278  1.0000
  C   C762      1.0  0.77652  0.85758  0.10356  1.0000
  H   H900      1.0  0.71475  0.85615  0.10924  1.0000
  H   H901      1.0  0.74413  0.90689  0.10824  1.0000
  H   H902      1.0  0.81512  0.89501  0.10096  1.0000
  H   H903      1.0  0.78557  0.84386  0.10238  1.0000
  C   C763      1.0  0.84565  0.75710  0.11740  1.0000
  C   C764      1.0  0.83988  0.74596  0.09843  1.0000
  C   C765      1.0  0.85947  0.74094  0.08928  1.0000
  C   C766      1.0  0.88508  0.74707  0.09892  1.0000
  C   C767      1.0  0.89093  0.75821  0.11791  1.0000
  C   C768      1.0  0.87124  0.76314  0.12711  1.0000
  H   H904      1.0  0.82032  0.74127  0.09076  1.0000
  H   H905      1.0  0.85470  0.73229  0.07461  1.0000
  H   H906      1.0  0.91043  0.76278  0.12555  1.0000
  H   H907      1.0  0.87592  0.77186  0.14176  1.0000
  H   H908      1.0  0.74867  0.85055  0.00429  1.0000
  H   H909      1.0  0.50671  0.84519  0.22652  1.0000
  H   H910      1.0  0.90943  0.65760  0.02867  1.0000
  C   C769      1.0  0.67418  0.87385  0.08934  1.0000
  C   C770      1.0  0.64540  0.68291  0.18758  1.0000
  C   C771      1.0  0.67215  0.70404  0.18431  1.0000
  C   C772      1.0  0.68343  0.70570  0.16632  1.0000
  C   C773      1.0  0.66808  0.68622  0.15121  1.0000
  C   C774      1.0  0.64128  0.66518  0.15444  1.0000
  C   C775      1.0  0.62994  0.66359  0.17242  1.0000
  H   H911      1.0  0.68443  0.71898  0.19594  1.0000
  H   H912      1.0  0.70417  0.72181  0.16432  1.0000
  H   H913      1.0  0.62917  0.64989  0.14295  1.0000
  H   H914      1.0  0.60940  0.64717  0.17465  1.0000
  C   C776      1.0  0.65834  0.95201  0.18439  1.0000
  H   H915      1.0  0.64487  0.92347  0.03780  1.0000
  C   C777      1.0  0.88033  0.82079  0.10339  1.0000
  C   C778      1.0  0.67919  0.95170  0.14769  1.0000
  C   C779      1.0  0.65363  0.92994  0.15255  1.0000
  C   C780      1.0  0.64338  0.92995  0.17077  1.0000
  H   H916      1.0  0.68097  0.93913  0.23256  1.0000
  H   H917      1.0  0.64156  0.91297  0.14211  1.0000
  H   H918      1.0  0.62365  0.91314  0.17414  1.0000
  H   H919      1.0  0.67680  0.91054  0.04201  1.0000
  H   H920      1.0  0.65244  0.74080  0.11468  1.0000
  C   C781      1.0  0.56028  0.74334  0.23098  1.0000
  C   C782      1.0  0.56427  0.76760  0.22186  1.0000
  H   H921      1.0  0.55960  0.72606  0.22270  1.0000
  H   H922      1.0  0.87759  0.69954  0.04918  1.0000
  N   N50       1.0  0.74860  0.68020  0.15825  1.0000
  C   C783      1.0  0.77349  0.67831  0.16580  1.0000
  C   C784      1.0  0.73865  0.66378  0.13955  1.0000
  C   C785      1.0  0.75691  0.70949  0.15427  1.0000
  C   C786      1.0  0.72750  0.67077  0.17266  1.0000
  C   C787      1.0  0.73419  0.68386  0.19145  1.0000
  C   C788      1.0  0.69982  0.64930  0.16846  1.0000
  C   C789      1.0  0.71445  0.67595  0.20513  1.0000
  C   C790      1.0  0.68030  0.64149  0.18231  1.0000
  C   C791      1.0  0.68755  0.65482  0.20056  1.0000
  H   H923      1.0  0.76787  0.65678  0.16982  1.0000
  H   H924      1.0  0.78931  0.68436  0.15496  1.0000
  H   H925      1.0  0.78414  0.69241  0.17872  1.0000
  H   H926      1.0  0.73210  0.64143  0.14142  1.0000
  H   H927      1.0  0.75509  0.67118  0.12913  1.0000
  H   H928      1.0  0.72097  0.66569  0.13240  1.0000
  H   H929      1.0  0.76674  0.72379  0.16722  1.0000
  H   H930      1.0  0.77227  0.71729  0.14311  1.0000
  H   H931      1.0  0.73853  0.71166  0.14904  1.0000
  H   H932      1.0  0.75460  0.70073  0.19558  1.0000
  H   H933      1.0  0.69236  0.63878  0.15442  1.0000
  H   H934      1.0  0.71978  0.68661  0.21925  1.0000
  H   H935      1.0  0.67202  0.64938  0.21098  1.0000
  C   C792      1.0  0.64282  0.81026  0.17321  1.0000
  C   C793      1.0  0.66041  0.83606  0.16638  1.0000
  H   H936      1.0  0.62858  0.76696  0.17185  1.0000
  H   H937      1.0  0.62938  0.80896  0.18448  1.0000
  H   H938      1.0  0.66062  0.85467  0.17229  1.0000
  C   C794      1.0  0.87781  0.83641  0.11842  1.0000
  S   S215      1.0  0.96907  0.72037  0.09515  1.0000
  H   H939      1.0  0.50554  0.94880  0.20994  1.0000
  H   H940      1.0  0.92808  0.67417  0.05137  1.0000
  C   C795      1.0  0.93004  0.83942  0.11270  1.0000
  H   H941      1.0  0.94423  0.86947  0.13730  1.0000
  C   C796      1.0  0.73506  0.80741  0.04831  1.0000
  C   C797      1.0  0.75798  0.87021  0.05227  1.0000
  C   C798      1.0  0.68661  0.88227  0.05656  1.0000
  H   H942      1.0  0.48794  0.97065  0.23284  1.0000
  H   H943      1.0  0.78482  0.84122  0.06486  1.0000
  H   H944      1.0  0.64037  0.71760  0.14370  1.0000
  H   H945      1.0  0.87153  0.76203  0.00766  1.0000
  H   H946      1.0  0.97071  0.87679  0.09319  1.0000
  H   H947      1.0  0.62009  0.92918  0.04950  1.0000
  H   H948      1.0  0.69615  0.85609  0.07469  1.0000
  H   H949      1.0  0.61395  0.89836  0.08555  1.0000
  H   H950      1.0  0.69412  0.76644  0.16173  1.0000
  C   C799      1.0  0.72380  0.74072  0.01779  1.0000
  H   H951      1.0  0.97049  0.84764  0.14086  1.0000
  H   H952      1.0  0.65907  0.62568  0.17865  1.0000
  C   C800      1.0  0.73585  0.98073  0.01334  1.0000
  H   H953      1.0  0.97800  0.82417  0.09308  1.0000
  C   C801      1.0  0.74977  0.88707  0.01604  1.0000
  C   C802      1.0  0.67789  0.83793  0.15207  1.0000
  H   H954      1.0  0.69182  0.85809  0.14694  1.0000
  H   H955      1.0  0.70439  0.78312  0.13948  1.0000
  N   N51       1.0  0.48442  0.80069  0.22901  1.0000
  C   C803      1.0  0.87627  0.69474  0.00863  1.0000
  C   C804      1.0  0.68810  0.76471  0.14602  1.0000
  C   C805      1.0  0.65994  0.78731  0.15096  1.0000
  C   C806      1.0  0.55605  0.74110  0.25063  1.0000
  H   H956      1.0  0.64482  0.73555  0.16631  1.0000
  C   C807      1.0  0.90106  0.85395  0.13041  1.0000
  H   H957      1.0  0.68899  0.74636  0.13961  1.0000
  H   H958      1.0  0.95074  0.73362  0.03693  1.0000
  C   C808      1.0  0.66193  0.89120  0.08808  1.0000
  H   H959      1.0  0.75203  0.92291  0.03119  1.0000
  H   H960      1.0  0.67478  0.86447  0.10280  1.0000
  C   C809      1.0  0.75599  0.85338  0.03585  1.0000
  C   C810      1.0  0.97783  0.86984  0.10626  1.0000
  N   N52       1.0  0.91082  0.69682  0.03560  1.0000
  N   N53       1.0  0.66011  0.76230  0.14252  1.0000
  C   C811      1.0  0.63998  0.73597  0.15059  1.0000
  H   H961      1.0  0.94499  0.71425  0.00589  1.0000
  H   H962      1.0  0.71232  0.74184  0.02960  1.0000
  H   H963      1.0  0.85936  0.68781  0.01791  1.0000
  H   H964      1.0  0.63273  0.75902  0.11807  1.0000
  H   H965      1.0  0.61831  0.73245  0.14818  1.0000
  H   H966      1.0  0.69180  0.81658  0.13346  1.0000
  C   C812      1.0  0.92342  0.67800  0.03627  1.0000
  H   H967      1.0  0.71493  0.80185  0.04016  1.0000
  H   H968      1.0  0.66300  0.96712  0.06867  1.0000
  C   C813      1.0  0.93132  0.72425  0.04444  1.0000
  C   C814      1.0  0.75683  0.89507  0.05055  1.0000
  H   H969      1.0  0.94294  0.80020  0.09694  1.0000
  C   C815      1.0  0.65320  0.75985  0.12141  1.0000
  H   H970      1.0  0.61672  0.89479  0.04815  1.0000
  H   H971      1.0  0.87062  0.66450  0.04218  1.0000
  C   C816      1.0  0.67462  0.89981  0.05518  1.0000
  H   H972      1.0  0.66889  0.77751  0.11388  1.0000
  C   C817      1.0  0.66119  0.90424  0.07073  1.0000
  S   S216      1.0  0.50171  0.56969  0.23441  1.0000
  C   C818      1.0  0.78486  0.83444  0.04971  1.0000
  C   C819      1.0  0.88688  0.68538  0.04783  1.0000
  H   H973      1.0  0.86202  0.80679  0.09433  1.0000
  H   H974      1.0  0.80306  0.85129  0.04336  1.0000
  C   C820      1.0  0.90340  0.70009  0.01537  1.0000
  S   S217      1.0  0.58288  0.62067  0.24607  1.0000
  C   C821      1.0  0.68396  0.97370  0.17956  1.0000
  H   H975      1.0  0.85766  0.83452  0.12093  1.0000
  H   H976      1.0  0.52028  0.82671  0.21367  1.0000
  C   C822      1.0  0.96738  0.83333  0.12834  1.0000
  H   H977      1.0  0.73432  0.81547  0.06294  1.0000
  S   S218      1.0  0.59279  0.93663  0.24856  1.0000
  C   C823      1.0  0.68632  0.86923  0.07358  1.0000
  N   N54       1.0  0.64866  0.92299  0.06899  1.0000
  H   H978      1.0  0.95235  0.81197  0.13212  1.0000
  C   C824      1.0  0.63017  0.92028  0.08457  1.0000
  H   H979      1.0  0.65393  0.89473  0.10108  1.0000
  C   C825      1.0  0.56484  0.79012  0.23236  1.0000
  H   H980      1.0  0.78838  0.81600  0.05063  1.0000
  H   H981      1.0  0.95080  0.82753  0.08026  1.0000
  C   C826      1.0  0.69441  0.97348  0.16145  1.0000
  H   H982      1.0  0.94368  0.68683  0.02967  1.0000
  C   C827      1.0  0.67117  0.95202  0.06984  1.0000
  H   H983      1.0  0.69674  0.87933  0.04448  1.0000
  H   H984      1.0  0.68404  0.95710  0.08373  1.0000
  H   H985      1.0  0.90599  0.80850  0.08906  1.0000
  C   C828      1.0  0.75125  0.86228  0.01760  1.0000
  H   H986      1.0  0.50445  0.77925  0.21608  1.0000
  C   C829      1.0  0.49963  0.80369  0.24793  1.0000
  S   S219      1.0  0.50587  0.89516  0.23211  1.0000
  S   S220      1.0  0.72961  0.96217  0.03474  1.0000
  H   H987      1.0  0.68537  0.95575  0.05814  1.0000
  Fe  Fe109     1.0  0.55045  0.90038  0.23894  1.0000
  H   H988      1.0  0.89330  0.68312  0.06291  1.0000
  H   H989      1.0  0.76067  0.86439  0.06661  1.0000
  S   S221      1.0  0.61925  0.89416  0.24210  1.0000
  H   H990      1.0  0.61954  0.93313  0.08231  1.0000
  H   H991      1.0  0.73635  0.78784  0.05027  1.0000
  N   N55       1.0  0.95746  0.84106  0.11035  1.0000
  Fe  Fe110     1.0  0.74684  0.97853  0.06562  1.0000
  C   C830      1.0  0.75917  0.81428  0.01953  1.0000
  C   C831      1.0  0.48322  0.77639  0.21820  1.0000
  C   C832      1.0  0.92387  0.70944  0.00177  1.0000
  H   H992      1.0  0.71266  0.94243  0.24409  1.0000
  C   C833      1.0  0.69254  0.94173  0.24681  1.0000
  H   H993      1.0  0.76267  0.79601  0.02174  1.0000
  C   C834      1.0  0.48562  0.94810  0.20666  1.0000
  H   H994      1.0  0.77659  0.72747  0.00817  1.0000
  H   H995      1.0  0.77620  0.82871  0.01095  1.0000
  H   H996      1.0  0.52085  0.80652  0.24617  1.0000
  H   H997      1.0  0.48850  0.82577  0.20466  1.0000
  C   C835      1.0  0.75984  0.73246  0.00564  1.0000
  H   H998      1.0  0.69757  0.98746  0.23143  1.0000
  Fe  Fe111     1.0  0.60038  0.90606  0.26609  1.0000
  S   S222      1.0  0.62093  0.90825  0.29638  1.0000
  H   H999      1.0  0.48925  0.51867  0.28420  1.0000
  Fe  Fe112     1.0  0.58825  0.64732  0.27280  1.0000
  S   S223      1.0  0.60391  0.64216  0.30296  1.0000
  S   S224      1.0  0.54379  0.63886  0.27003  1.0000
  Fe  Fe113     1.0  0.96263  0.75617  0.39286  1.0000
  S   S225      1.0  0.92729  0.76069  0.37775  1.0000
  S   S226      1.0  0.95894  0.71505  0.40116  1.0000
  Fe  Fe114     1.0  0.73130  0.73181  0.38649  1.0000
  S   S227      1.0  0.77588  0.76597  0.39166  1.0000
  S   S228      1.0  0.71397  0.72618  0.35490  1.0000
  Fe  Fe115     1.0  0.72696  0.72131  0.42966  1.0000
  S   S229      1.0  0.76991  0.75460  0.43740  1.0000
  S   S230      1.0  0.70112  0.69264  0.45206  1.0000
  Fe  Fe116     1.0  0.76044  0.78003  0.41651  1.0000
  S   S231      1.0  0.77722  0.82409  0.42854  1.0000
  Fe  Fe117     1.0  0.78208  0.73781  0.41216  1.0000
  S   S232      1.0  0.81932  0.73224  0.42221  1.0000
  S   S233      1.0  0.71577  0.74792  0.41053  1.0000
  S   S234      1.0  0.73904  0.70248  0.40522  1.0000
  Fe  Fe118     1.0  0.76513  0.95162  0.39534  1.0000
  S   S235      1.0  0.72158  0.94245  0.40017  1.0000
  S   S236      1.0  0.77052  0.91779  0.38004  1.0000
  Fe  Fe119     1.0  0.74001  0.96694  0.42860  1.0000
  H   H1000     1.0  0.57340  0.58177  0.28183  1.0000
  H   H1001     1.0  0.74164  0.66763  0.49237  1.0000
  C   C836      1.0  0.55651  0.56106  0.27640  1.0000
  C   C837      1.0  0.77588  0.84995  0.41458  1.0000
  C   C838      1.0  0.76835  0.84547  0.39481  1.0000
  C   C839      1.0  0.76746  0.86673  0.38423  1.0000
  C   C840      1.0  0.77326  0.89215  0.39348  1.0000
  C   C841      1.0  0.78115  0.89668  0.41320  1.0000
  C   C842      1.0  0.78292  0.87578  0.42362  1.0000
  H   H1002     1.0  0.76308  0.82567  0.38769  1.0000
  H   H1003     1.0  0.76153  0.86324  0.36894  1.0000
  H   H1004     1.0  0.78621  0.91641  0.42032  1.0000
  H   H1005     1.0  0.78949  0.87952  0.43882  1.0000
  C   C843      1.0  0.89699  0.75206  0.38997  1.0000
  C   C844      1.0  0.87486  0.75467  0.38081  1.0000
  C   C845      1.0  0.85082  0.74861  0.39041  1.0000
  C   C846      1.0  0.84877  0.73985  0.40927  1.0000
  C   C847      1.0  0.87090  0.73730  0.41843  1.0000
  C   C848      1.0  0.89490  0.74340  0.40885  1.0000
  H   H1006     1.0  0.87636  0.76145  0.36622  1.0000
  H   H1007     1.0  0.83390  0.75058  0.38317  1.0000
  H   H1008     1.0  0.86955  0.73058  0.43301  1.0000
  H   H1009     1.0  0.91181  0.74138  0.41608  1.0000
  C   C849      1.0  0.76074  0.66692  0.49573  1.0000
  C   C850      1.0  0.93036  0.84717  0.38598  1.0000
  C   C851      1.0  0.53943  0.54509  0.30770  1.0000
  C   C852      1.0  0.63886  0.73539  0.35949  1.0000
  C   C853      1.0  0.52388  0.51932  0.31627  1.0000
  C   C854      1.0  0.72542  0.71900  0.48849  1.0000
  C   C855      1.0  0.70658  0.69477  0.47758  1.0000
  H   H1010     1.0  0.93694  0.71579  0.49404  1.0000
  H   H1011     1.0  0.60764  0.69589  0.30124  1.0000
  H   H1012     1.0  0.73682  0.73809  0.48133  1.0000
  H   H1013     1.0  0.55976  0.53234  0.36009  1.0000
  H   H1014     1.0  0.63146  0.77025  0.29263  1.0000
  C   C856      1.0  0.69827  0.81153  0.40769  1.0000
  C   C857      1.0  0.63445  0.66603  0.31730  1.0000
  C   C858      1.0  0.63744  0.66137  0.33693  1.0000
  C   C859      1.0  0.66142  0.67952  0.34872  1.0000
  C   C860      1.0  0.68293  0.70248  0.34096  1.0000
  C   C861      1.0  0.67986  0.70713  0.32135  1.0000
  C   C862      1.0  0.65580  0.68919  0.30962  1.0000
  H   H1015     1.0  0.62114  0.64358  0.34308  1.0000
  H   H1016     1.0  0.66336  0.67560  0.36374  1.0000
  H   H1017     1.0  0.69632  0.72476  0.31514  1.0000
  H   H1018     1.0  0.65405  0.69304  0.29456  1.0000
  H   H1019     1.0  0.57733  0.69781  0.29234  1.0000
  C   C863      1.0  0.64528  0.93240  0.31456  1.0000
  C   C864      1.0  0.65567  0.96117  0.31396  1.0000
  H   H1020     1.0  0.96354  0.61263  0.43809  1.0000
  C   C865      1.0  0.68436  0.96888  0.34426  1.0000
  C   C866      1.0  0.67406  0.94014  0.34480  1.0000
  C   C867      1.0  0.65460  0.92210  0.33013  1.0000
  H   H1021     1.0  0.50223  0.82199  0.25680  1.0000
  H   H1022     1.0  0.69615  0.79081  0.40685  1.0000
  H   H1023     1.0  0.68086  0.93174  0.35663  1.0000
  H   H1024     1.0  0.64671  0.89993  0.33086  1.0000
  H   H1025     1.0  0.55343  0.76215  0.27634  1.0000
  C   C868      1.0  0.52314  0.57239  0.28959  1.0000
  H   H1026     1.0  0.68016  0.92251  0.25439  1.0000
  H   H1027     1.0  0.94391  0.66955  0.43499  1.0000
  H   H1028     1.0  0.60453  0.74160  0.27865  1.0000
  C   C869      1.0  0.74261  0.97556  0.31242  1.0000
  Fe  Fe120     1.0  0.73293  0.98311  0.38675  1.0000
  H   H1029     1.0  0.63178  0.72607  0.37305  1.0000
  N   N56       1.0  0.85367  0.83476  0.40848  1.0000
  C   C870      1.0  0.83402  0.83218  0.39203  1.0000
  C   C871      1.0  0.83994  0.80949  0.41965  1.0000
  C   C872      1.0  0.85859  0.85892  0.42126  1.0000
  C   C873      1.0  0.88017  0.83888  0.40120  1.0000
  H   H1030     1.0  0.78956  0.64838  0.44806  1.0000
  C   C874      1.0  0.89126  0.82037  0.40467  1.0000
  C   C875      1.0  0.91599  0.82460  0.39712  1.0000
  H   H1031     1.0  0.83062  0.81493  0.38163  1.0000
  H   H1032     1.0  0.81346  0.82798  0.39693  1.0000
  H   H1033     1.0  0.84133  0.85142  0.38398  1.0000
  H   H1034     1.0  0.83471  0.79032  0.41070  1.0000
  H   H1035     1.0  0.82011  0.80697  0.42490  1.0000
  H   H1036     1.0  0.85314  0.81032  0.43264  1.0000
  H   H1037     1.0  0.86633  0.87847  0.41350  1.0000
  H   H1038     1.0  0.83908  0.85598  0.42744  1.0000
  H   H1039     1.0  0.87399  0.86222  0.43347  1.0000
  C   C876      1.0  0.55412  0.53584  0.34562  1.0000
  H   H1040     1.0  0.88112  0.80218  0.41293  1.0000
  H   H1041     1.0  0.92386  0.80997  0.39965  1.0000
  S   S237      1.0  0.54805  0.70999  0.26234  1.0000
  S   S238      1.0  0.95806  0.71928  0.45710  1.0000
  C   C877      1.0  0.95821  0.71984  0.49640  1.0000
  H   H1042     1.0  0.50581  0.50230  0.30891  1.0000
  N   N57       1.0  0.60804  0.73425  0.30886  1.0000
  C   C878      1.0  0.58768  0.74382  0.31332  1.0000
  C   C879      1.0  0.62056  0.74719  0.29088  1.0000
  C   C880      1.0  0.62861  0.74103  0.32551  1.0000
  C   C881      1.0  0.65761  0.75807  0.32427  1.0000
  C   C882      1.0  0.61983  0.73004  0.34369  1.0000
  C   C883      1.0  0.67643  0.76337  0.34022  1.0000
  H   H1043     1.0  0.93025  0.63226  0.43432  1.0000
  H   H1044     1.0  0.67195  0.98271  0.27089  1.0000
  H   H1045     1.0  0.59823  0.76654  0.31706  1.0000
  H   H1046     1.0  0.57534  0.73304  0.32551  1.0000
  H   H1047     1.0  0.81900  0.67099  0.47726  1.0000
  C   C884      1.0  0.94819  0.65221  0.43094  1.0000
  H   H1048     1.0  0.59819  0.71670  0.34570  1.0000
  H   H1049     1.0  0.66642  0.76702  0.31106  1.0000
  N   N58       1.0  0.69692  0.96713  0.25787  1.0000
  H   H1050     1.0  0.69855  0.77542  0.33882  1.0000
  H   H1051     1.0  0.55102  0.56370  0.26119  1.0000
  H   H1052     1.0  0.78243  0.66965  0.43174  1.0000
  C   C885      1.0  0.69160  0.67038  0.48710  1.0000
  H   H1053     1.0  0.82250  0.75955  0.48724  1.0000
  H   H1054     1.0  0.94926  0.84996  0.37994  1.0000
  C   C886      1.0  0.72877  0.96412  0.48026  1.0000
  H   H1055     1.0  0.50510  0.56577  0.29854  1.0000
  C   C887      1.0  0.74200  0.64946  0.45496  1.0000
  H   H1056     1.0  0.93151  0.88341  0.37377  1.0000
  H   H1057     1.0  0.68192  0.75525  0.36978  1.0000
  H   H1058     1.0  0.49694  0.92651  0.26385  1.0000
  C   C888      1.0  0.95163  0.65389  0.47212  1.0000
  H   H1059     1.0  0.51686  0.57689  0.27516  1.0000
  H   H1060     1.0  0.73905  0.62840  0.45806  1.0000
  H   H1061     1.0  0.63527  0.73994  0.28617  1.0000
  C   C889      1.0  0.67496  0.97922  0.32874  1.0000
  H   H1062     1.0  0.68378  0.93019  0.28665  1.0000
  N   N59       1.0  0.70663  0.86684  0.44592  1.0000
  C   C890      1.0  0.73437  0.89153  0.44878  1.0000
  C   C891      1.0  0.68519  0.87615  0.44603  1.0000
  C   C892      1.0  0.70312  0.84947  0.46275  1.0000
  C   C893      1.0  0.70421  0.85217  0.42722  1.0000
  C   C894      1.0  0.70084  0.82474  0.42567  1.0000
  C   C895      1.0  0.70546  0.86549  0.40974  1.0000
  C   C896      1.0  0.77232  0.69868  0.45867  1.0000
  C   C897      1.0  0.80383  0.66900  0.48720  1.0000
  C   C898      1.0  0.77847  0.66871  0.48113  1.0000
  H   H1063     1.0  0.73816  0.90652  0.43730  1.0000
  H   H1064     1.0  0.73695  0.90325  0.46267  1.0000
  H   H1065     1.0  0.75104  0.88547  0.44889  1.0000
  H   H1066     1.0  0.68560  0.88622  0.46021  1.0000
  H   H1067     1.0  0.66403  0.85846  0.44275  1.0000
  H   H1068     1.0  0.68842  0.89212  0.43538  1.0000
  H   H1069     1.0  0.71967  0.84313  0.46427  1.0000
  H   H1070     1.0  0.70453  0.86098  0.47652  1.0000
  H   H1071     1.0  0.68250  0.83054  0.46159  1.0000
  C   C899      1.0  0.95263  0.65482  0.49226  1.0000
  H   H1072     1.0  0.67689  0.65163  0.47893  1.0000
  C   C900      1.0  0.70287  0.85212  0.39186  1.0000
  C   C901      1.0  0.50927  0.52600  0.27740  1.0000
  H   H1073     1.0  0.70053  0.81314  0.43810  1.0000
  H   H1074     1.0  0.57239  0.73968  0.30080  1.0000
  H   H1075     1.0  0.81084  0.68588  0.44907  1.0000
  H   H1076     1.0  0.76574  0.70089  0.44370  1.0000
  H   H1077     1.0  0.51442  0.50867  0.27616  1.0000
  H   H1078     1.0  0.58170  0.69217  0.31707  1.0000
  C   C902      1.0  0.89560  0.86191  0.39000  1.0000
  S   S239      1.0  0.60357  0.68635  0.25686  1.0000
  C   C903      1.0  0.59303  0.70378  0.30477  1.0000
  C   C904      1.0  0.97422  0.72363  0.48057  1.0000
  C   C905      1.0  0.92027  0.86588  0.38249  1.0000
  H   H1079     1.0  0.79377  0.71575  0.46199  1.0000
  S   S240      1.0  0.72296  0.94759  0.45693  1.0000
  C   C906      1.0  0.66957  0.96456  0.26190  1.0000
  H   H1080     1.0  0.88851  0.87688  0.38679  1.0000
  H   H1081     1.0  0.70971  0.93509  0.31731  1.0000
  H   H1082     1.0  0.65692  0.94567  0.26971  1.0000
  H   H1083     1.0  0.64847  0.96950  0.30233  1.0000
  S   S241      1.0  0.55724  0.87069  0.25798  1.0000
  C   C907      1.0  0.55680  0.76370  0.26116  1.0000
  H   H1084     1.0  0.84897  0.74620  0.46663  1.0000
  H   H1085     1.0  0.73652  0.64955  0.43930  1.0000
  Fe  Fe121     1.0  0.55911  0.67669  0.25233  1.0000
  C   C908      1.0  0.69918  0.82513  0.39083  1.0000
  H   H1086     1.0  0.75857  0.70208  0.46825  1.0000
  N   N60       1.0  0.77083  0.67117  0.46078  1.0000
  C   C909      1.0  0.86795  0.73416  0.48980  1.0000
  C   C910      1.0  0.78925  0.66850  0.44696  1.0000
  N   N61       1.0  0.53207  0.55076  0.28811  1.0000
  H   H1087     1.0  0.70476  0.86319  0.37880  1.0000
  H   H1088     1.0  0.72106  0.92694  0.49477  1.0000
  H   H1089     1.0  0.48860  0.78510  0.25647  1.0000
  H   H1090     1.0  0.72617  0.65272  0.46230  1.0000
  C   C911      1.0  0.70330  0.94893  0.28962  1.0000
  C   C912      1.0  0.56231  0.56605  0.31912  1.0000
  C   C913      1.0  0.56955  0.56140  0.33773  1.0000
  H   H1091     1.0  0.69786  0.81507  0.37696  1.0000
  H   H1092     1.0  0.70905  0.88665  0.40977  1.0000
  H   H1093     1.0  0.93321  0.65272  0.46478  1.0000
  S   S242      1.0  0.78279  0.97314  0.42441  1.0000
  C   C914      1.0  0.66709  0.75198  0.35774  1.0000
  C   C915      1.0  0.71320  0.97029  0.27633  1.0000
  H   H1094     1.0  0.51919  0.49509  0.34120  1.0000
  H   H1095     1.0  0.94894  0.65220  0.41497  1.0000
  C   C916      1.0  0.85051  0.74410  0.48208  1.0000
  H   H1096     1.0  0.87999  0.72868  0.48043  1.0000
  H   H1097     1.0  0.54001  0.59240  0.29615  1.0000
  H   H1098     1.0  0.56232  0.80554  0.26047  1.0000
  C   C917      1.0  0.53130  0.51489  0.33494  1.0000
  H   H1099     1.0  0.56528  0.54640  0.27617  1.0000
  H   H1100     1.0  0.50529  0.53064  0.26240  1.0000
  H   H1101     1.0  0.58720  0.57784  0.34608  1.0000
  C   C918      1.0  0.83536  0.75174  0.49416  1.0000
  H   H1102     1.0  0.57471  0.58637  0.31379  1.0000
  C   C919      1.0  0.72576  0.94843  0.49660  1.0000
  H   H1103     1.0  0.93550  0.65433  0.49962  1.0000
  C   C920      1.0  0.71792  0.95156  0.30730  1.0000
  H   H1104     1.0  0.75351  0.97763  0.32635  1.0000
  C   C921      1.0  0.56163  0.78828  0.25216  1.0000
  C   C922      1.0  0.97439  0.65588  0.46214  1.0000
  N   N62       1.0  0.97453  0.65587  0.44084  1.0000
  H   H1105     1.0  0.97849  0.56326  0.28514  1.0000
  S   S243      1.0  0.98023  0.77753  0.42191  1.0000
  Fe  Fe122     1.0  0.97908  0.73754  0.42981  1.0000
  C   C923      1.0  0.97947  0.63306  0.43349  1.0000
  H   H1106     1.0  0.97883  0.63202  0.41744  1.0000
  Fe  Fe123     1.0  0.90568  0.59825  0.72519  1.0000
  S   S244      1.0  0.86861  0.55700  0.72970  1.0000
  S   S245      1.0  0.90395  0.61359  0.69472  1.0000
  H   H1107     1.0  0.87155  0.52137  0.69691  1.0000
  C   C924      1.0  0.66199  0.70585  0.69216  1.0000
  H   H1108     1.0  0.91857  0.54095  0.70928  1.0000
  C   C925      1.0  0.91369  0.55767  0.66211  1.0000
  C   C926      1.0  0.92475  0.55436  0.69669  1.0000
  Fe  Fe124     1.0  0.65058  0.58781  0.71952  1.0000
  S   S246      1.0  0.68938  0.60044  0.73858  1.0000
  S   S247      1.0  0.64546  0.60266  0.68955  1.0000
  H   H1109     1.0  0.88077  0.52641  0.64251  1.0000
  H   H1110     1.0  0.74275  0.51867  0.72673  1.0000
  H   H1111     1.0  0.82983  0.66710  0.51099  1.0000
  Fe  Fe125     1.0  0.89780  0.54619  0.74760  1.0000
  S   S248      1.0  0.63753  0.54225  0.72096  1.0000
  Fe  Fe126     1.0  0.73371  0.72391  0.61314  1.0000
  S   S249      1.0  0.76164  0.77039  0.61381  1.0000
  S   S250      1.0  0.72600  0.70826  0.64388  1.0000
  Fe  Fe127     1.0  0.73421  0.72010  0.56863  1.0000
  S   S251      1.0  0.76177  0.76566  0.56673  1.0000
  S   S252      1.0  0.72124  0.68948  0.54276  1.0000
  Fe  Fe128     1.0  0.78564  0.76101  0.59241  1.0000
  S   S253      1.0  0.83249  0.78296  0.59461  1.0000
  Fe  Fe129     1.0  0.73516  0.77086  0.58824  1.0000
  S   S254      1.0  0.71727  0.80038  0.58229  1.0000
  S   S255      1.0  0.75978  0.71496  0.59322  1.0000
  S   S256      1.0  0.70545  0.72491  0.58855  1.0000
  H   H1112     1.0  0.68025  0.74039  0.71289  1.0000
  C   C927      1.0  0.78009  0.54576  0.74427  1.0000
  C   C928      1.0  0.83952  0.63843  0.73405  1.0000
  C   C929      1.0  0.55156  0.50492  0.66661  1.0000
  H   H1113     1.0  0.74099  0.79598  0.64334  1.0000
  Fe  Fe130     1.0  0.74848  0.95778  0.60340  1.0000
  S   S257      1.0  0.74344  0.91905  0.61847  1.0000
  S   S258      1.0  0.71573  0.97095  0.59565  1.0000
  Fe  Fe131     1.0  0.93892  0.72973  0.58298  1.0000
  S   S259      1.0  0.95406  0.69789  0.58395  1.0000
  S   S260      1.0  0.89356  0.71345  0.57372  1.0000
  N   N63       1.0  0.90616  0.54041  0.67914  1.0000
  C   C930      1.0  0.63298  0.49804  0.68075  1.0000
  C   C931      1.0  0.71466  0.69351  0.51808  1.0000
  C   C932      1.0  0.87005  0.73144  0.50960  1.0000
  H   H1114     1.0  0.70079  0.77516  0.68897  1.0000
  C   C933      1.0  0.84930  0.76289  0.59046  1.0000
  C   C934      1.0  0.83423  0.73511  0.58378  1.0000
  C   C935      1.0  0.84807  0.72012  0.57888  1.0000
  C   C936      1.0  0.87708  0.73264  0.58093  1.0000
  C   C937      1.0  0.89225  0.76031  0.58789  1.0000
  C   C938      1.0  0.87836  0.77545  0.59253  1.0000
  H   H1115     1.0  0.81194  0.72526  0.58204  1.0000
  H   H1116     1.0  0.83626  0.69870  0.57356  1.0000
  H   H1117     1.0  0.91467  0.77016  0.58943  1.0000
  H   H1118     1.0  0.89018  0.79700  0.59759  1.0000
  C   C939      1.0  0.72768  0.83455  0.59181  1.0000
  C   C940      1.0  0.74184  0.84428  0.60997  1.0000
  C   C941      1.0  0.74702  0.87045  0.61778  1.0000
  C   C942      1.0  0.73890  0.88752  0.60729  1.0000
  C   C943      1.0  0.72552  0.87813  0.58890  1.0000
  C   C944      1.0  0.71961  0.85164  0.58135  1.0000
  H   H1119     1.0  0.74823  0.83142  0.61814  1.0000
  H   H1120     1.0  0.75739  0.87753  0.63201  1.0000
  H   H1121     1.0  0.71886  0.89083  0.58076  1.0000
  H   H1122     1.0  0.70846  0.84421  0.56737  1.0000
  C   C945      1.0  0.66929  0.63123  0.67681  1.0000
  C   C946      1.0  0.69323  0.65315  0.68596  1.0000
  C   C947      1.0  0.71047  0.67620  0.67553  1.0000
  C   C948      1.0  0.70438  0.67756  0.65576  1.0000
  C   C949      1.0  0.68075  0.65537  0.64651  1.0000
  C   C950      1.0  0.66325  0.63250  0.65701  1.0000
  H   H1123     1.0  0.69815  0.65265  0.70116  1.0000
  H   H1124     1.0  0.72857  0.69325  0.68290  1.0000
  H   H1125     1.0  0.67565  0.65606  0.63136  1.0000
  H   H1126     1.0  0.64479  0.61576  0.64974  1.0000
  C   C951      1.0  0.65818  0.69742  0.67275  1.0000
  C   C952      1.0  0.92726  0.64014  0.68021  1.0000
  C   C953      1.0  0.91689  0.64475  0.66243  1.0000
  C   C954      1.0  0.93452  0.66476  0.65007  1.0000
  H   H1127     1.0  0.85479  0.64158  0.68733  1.0000
  C   C955      1.0  0.72914  0.71844  0.50881  1.0000
  C   C956      1.0  0.95566  0.65593  0.68546  1.0000
  H   H1128     1.0  0.89504  0.63262  0.65806  1.0000
  H   H1129     1.0  0.92610  0.66787  0.63647  1.0000
  H   H1130     1.0  0.87573  0.55272  0.68621  1.0000
  S   S261      1.0  0.77382  0.97704  0.57822  1.0000
  H   H1131     1.0  0.94662  0.55968  0.69455  1.0000
  S   S262      1.0  0.70139  0.53456  0.73523  1.0000
  H   H1132     1.0  0.72469  0.98032  0.64755  1.0000
  C   C957      1.0  0.97334  0.67577  0.67303  1.0000
  H   H1133     1.0  0.64695  0.67545  0.66852  1.0000
  C   C958      1.0  0.90425  0.56326  0.62798  1.0000
  H   H1134     1.0  0.71548  0.91011  0.65535  1.0000
  C   C959      1.0  0.90731  0.51424  0.67512  1.0000
  H   H1135     1.0  0.65343  0.98518  0.67468  1.0000
  N   N64       1.0  0.83370  0.62864  0.71346  1.0000
  H   H1136     1.0  0.88371  0.72380  0.51567  1.0000
  C   C960      1.0  0.80679  0.62660  0.70627  1.0000
  C   C961      1.0  0.80436  0.64329  0.69163  1.0000
  C   C962      1.0  0.78195  0.60793  0.71439  1.0000
  C   C963      1.0  0.77861  0.64132  0.68572  1.0000
  C   C964      1.0  0.75635  0.60605  0.70836  1.0000
  C   C965      1.0  0.75468  0.62280  0.69409  1.0000
  C   C966      1.0  0.60624  0.49283  0.68467  1.0000
  H   H1137     1.0  0.69135  0.95073  0.64888  1.0000
  H   H1138     1.0  0.75893  0.94918  0.65576  1.0000
  H   H1139     1.0  0.85725  0.73621  0.53703  1.0000
  C   C967      1.0  0.89812  0.54710  0.64412  1.0000
  H   H1140     1.0  0.92398  0.57365  0.70099  1.0000
  C   C968      1.0  0.61419  0.53547  0.66994  1.0000
  H   H1141     1.0  0.73479  0.62146  0.68956  1.0000
  C   C969      1.0  0.96297  0.68040  0.65523  1.0000
  H   H1142     1.0  0.71597  0.91234  0.68110  1.0000
  C   C970      1.0  0.72978  0.78055  0.65412  1.0000
  C   C971      1.0  0.93592  0.58531  0.66284  1.0000
  H   H1143     1.0  0.66686  0.70868  0.64415  1.0000
  C   C972      1.0  0.65036  0.52196  0.67171  1.0000
  C   C973      1.0  0.67711  0.73396  0.69774  1.0000
  C   C974      1.0  0.68874  0.75369  0.68392  1.0000
  C   C975      1.0  0.70981  0.91936  0.66766  1.0000
  H   H1144     1.0  0.76233  0.95618  0.68142  1.0000
  C   C976      1.0  0.69592  0.66965  0.50705  1.0000
  C   C977      1.0  0.69335  0.75545  0.62957  1.0000
  H   H1145     1.0  0.58442  0.53542  0.71003  1.0000
  H   H1146     1.0  0.84011  0.65893  0.73608  1.0000
  C   C978      1.0  0.83248  0.60098  0.71174  1.0000
  H   H1147     1.0  0.79542  0.77698  0.52872  1.0000
  H   H1148     1.0  0.70377  0.77183  0.61915  1.0000
  C   C979      1.0  0.76729  0.66438  0.51503  1.0000
  H   H1149     1.0  0.73638  0.79177  0.66846  1.0000
  Fe  Fe132     1.0  0.61379  0.54127  0.74648  1.0000
  C   C980      1.0  0.69001  0.78846  0.65078  1.0000
  H   H1150     1.0  0.93047  0.60305  0.61685  1.0000
  H   H1151     1.0  0.86182  0.52078  0.67193  1.0000
  H   H1152     1.0  0.65356  0.69045  0.70288  1.0000
  N   N65       1.0  0.82232  0.75822  0.52783  1.0000
  C   C981      1.0  0.80240  0.73378  0.53773  1.0000
  C   C982      1.0  0.84238  0.77914  0.54250  1.0000
  C   C983      1.0  0.79211  0.66439  0.52048  1.0000
  C   C984      1.0  0.75217  0.53576  0.73743  1.0000
  C   C985      1.0  0.59627  0.51187  0.67978  1.0000
  Fe  Fe133     1.0  0.67482  0.55508  0.74175  1.0000
  H   H1153     1.0  0.71770  0.94766  0.63651  1.0000
  H   H1154     1.0  0.79229  0.73976  0.54901  1.0000
  H   H1155     1.0  0.58214  0.55219  0.68879  1.0000
  H   H1156     1.0  0.85288  0.60214  0.71604  1.0000
  H   H1157     1.0  0.83195  0.78664  0.55261  1.0000
  H   H1158     1.0  0.85356  0.77077  0.55174  1.0000
  H   H1159     1.0  0.78551  0.71862  0.52745  1.0000
  H   H1160     1.0  0.78218  0.59475  0.72564  1.0000
  C   C986      1.0  0.85486  0.73880  0.52176  1.0000
  N   N66       1.0  0.69929  0.76702  0.64978  1.0000
  N   N67       1.0  0.72367  0.95015  0.66752  1.0000
  C   C987      1.0  0.81039  0.66682  0.50661  1.0000
  C   C988      1.0  0.73633  0.54768  0.74436  1.0000
  H   H1161     1.0  0.81806  0.98355  0.52177  1.0000
  C   C989      1.0  0.71778  0.96362  0.68400  1.0000
  H   H1162     1.0  0.86094  0.66975  0.70445  1.0000
  C   C990      1.0  0.68560  0.74579  0.66400  1.0000
  H   H1163     1.0  0.68587  0.92608  0.69611  1.0000
  H   H1164     1.0  0.81244  0.72268  0.54512  1.0000
  H   H1165     1.0  0.85831  0.79753  0.53568  1.0000
  H   H1166     1.0  0.85969  0.64049  0.74007  1.0000
  C   C991      1.0  0.75396  0.95993  0.66750  1.0000
  H   H1167     1.0  0.75311  0.66276  0.52585  1.0000
  C   C992      1.0  0.71398  0.95756  0.64935  1.0000
  H   H1168     1.0  0.67077  0.74519  0.62514  1.0000
  S   S263      1.0  0.56651  0.50953  0.74706  1.0000
  H   H1169     1.0  0.77715  0.65433  0.67462  1.0000
  H   H1170     1.0  0.73771  0.59157  0.71491  1.0000
  C   C993      1.0  0.64090  0.54053  0.66619  1.0000
  C   C994      1.0  0.69768  0.94841  0.69717  1.0000
  C   C995      1.0  0.94189  0.60123  0.64659  1.0000
  H   H1171     1.0  0.95653  0.71714  0.52727  1.0000
  H   H1172     1.0  0.82023  0.78993  0.51093  1.0000
  H   H1173     1.0  0.96410  0.65271  0.69902  1.0000
  S   S264      1.0  0.93529  0.58703  0.74190  1.0000
  S   S265      1.0  0.96187  0.75241  0.61091  1.0000
  H   H1174     1.0  0.89182  0.55494  0.61447  1.0000
  C   C996      1.0  0.66977  0.71694  0.65881  1.0000
  S   S266      1.0  0.62514  0.58685  0.74416  1.0000
  H   H1175     1.0  0.72536  0.94766  0.52772  1.0000
  H   H1176     1.0  0.70108  0.74016  0.62757  1.0000
  C   C997      1.0  0.83732  0.74957  0.51448  1.0000
  C   C998      1.0  0.69186  0.96199  0.71208  1.0000
  C   C999      1.0  0.85758  0.64808  0.70291  1.0000
  C   C1000     1.0  0.57183  0.53247  0.69628  1.0000
  H   H1177     1.0  0.73738  0.76488  0.65399  1.0000
  S   S267      1.0  0.89073  0.50134  0.73940  1.0000
  H   H1178     1.0  0.60816  0.55086  0.66567  1.0000
  H   H1179     1.0  0.82201  0.65812  0.68456  1.0000
  H   H1180     1.0  0.87735  0.64867  0.70850  1.0000
  H   H1181     1.0  0.66703  0.77882  0.64845  1.0000
  C   C1001     1.0  0.72816  0.96012  0.51533  1.0000
  H   H1182     1.0  0.68683  0.91023  0.66601  1.0000
  H   H1183     1.0  0.82642  0.59206  0.69666  1.0000
  H   H1184     1.0  0.94856  0.59556  0.67591  1.0000
  H   H1185     1.0  0.69901  0.80391  0.63952  1.0000
  H   H1186     1.0  0.74332  0.73703  0.51728  1.0000
  H   H1187     1.0  0.69637  0.80048  0.66483  1.0000
  H   H1188     1.0  0.65461  0.55948  0.65952  1.0000
  H   H1189     1.0  0.95848  0.62252  0.64762  1.0000
  C   C1002     1.0  0.80641  0.77083  0.51818  1.0000
  H   H1190     1.0  0.67611  0.95018  0.72178  1.0000
  H   H1191     1.0  0.79204  0.53639  0.73887  1.0000
  H   H1192     1.0  0.79726  0.66269  0.53550  1.0000
  H   H1193     1.0  0.81760  0.58588  0.72123  1.0000
  H   H1194     1.0  0.67136  0.52635  0.66928  1.0000
  C   C1003     1.0  0.96929  0.72064  0.51526  1.0000
  H   H1195     1.0  0.82360  0.62379  0.74325  1.0000
  C   C1004     1.0  0.87758  0.53347  0.68369  1.0000
  Fe  Fe134     1.0  0.97864  0.72186  0.61124  1.0000
  H   H1196     1.0  0.68467  0.65031  0.51400  1.0000
  H   H1197     1.0  0.79008  0.75596  0.50743  1.0000
  H   H1198     1.0  0.48907  0.96459  0.66311  1.0000
  C   C1005     1.0  0.92603  0.59031  0.62924  1.0000
  H   H1199     1.0  0.80022  0.98508  0.54225  1.0000
  H   H1200     1.0  0.53889  0.98190  0.66530  1.0000
  H   H1201     1.0  0.89184  0.50093  0.66340  1.0000
  S   S268      1.0  0.89870  0.61844  0.75109  1.0000
  H   H1202     1.0  0.76589  0.98240  0.66500  1.0000
  H   H1203     1.0  0.90285  0.50143  0.68805  1.0000
  S   S269      1.0  0.97204  0.75849  0.56482  1.0000
  H   H1204     1.0  0.55148  0.53012  0.70026  1.0000
  H   H1205     1.0  0.92822  0.51864  0.67090  1.0000
  H   H1206     1.0  0.56059  0.52398  0.65828  1.0000
  N   N68       1.0  0.56871  0.50797  0.68462  1.0000
  C   C1006     1.0  0.50201  0.98091  0.67385  1.0000
  H   H1207     1.0  0.97724  0.65976  0.51865  1.0000
  C   C1007     1.0  0.97616  0.65790  0.50304  1.0000
  C   C1008     1.0  0.73291  0.98749  0.51788  1.0000
  H   H1208     1.0  0.78678  0.98650  0.51890  1.0000
  H   H1209     1.0  0.53025  0.50081  0.66960  1.0000
  H   H1210     1.0  0.67193  0.97670  0.88433  1.0000
  H   H1211     1.0  0.76249  0.67950  0.88873  1.0000
  H   H1212     1.0  0.78479  0.63922  0.87750  1.0000
  H   H1213     1.0  0.79664  0.71136  0.86881  1.0000
  H   H1214     1.0  0.74127  0.64387  0.88100  1.0000
  C   C1009     1.0  0.78823  0.69604  0.85626  1.0000
  Fe  Fe135     1.0  0.75233  0.95476  0.90834  1.0000
  S   S270      1.0  0.74571  0.91245  0.91772  1.0000
  S   S271      1.0  0.71875  0.96748  0.90856  1.0000
  Fe  Fe136     1.0  0.75690  0.77784  0.89502  1.0000
  S   S272      1.0  0.71457  0.74874  0.90390  1.0000
  S   S273      1.0  0.76500  0.81670  0.87925  1.0000
  Fe  Fe137     1.0  0.77991  0.73928  0.90746  1.0000
  S   S274      1.0  0.73905  0.70782  0.91755  1.0000
  S   S275      1.0  0.81211  0.72450  0.90935  1.0000
  Fe  Fe138     1.0  0.72068  0.71471  0.88975  1.0000
  S   S276      1.0  0.68681  0.67801  0.87117  1.0000
  Fe  Fe139     1.0  0.73715  0.74466  0.93083  1.0000
  S   S277      1.0  0.72052  0.74833  0.95963  1.0000
  S   S278      1.0  0.76159  0.74409  0.87905  1.0000
  S   S279      1.0  0.77946  0.77589  0.92256  1.0000
  C   C1010     1.0  0.83020  0.96461  0.92729  1.0000
  C   C1011     1.0  0.76913  0.62873  0.81494  1.0000
  H   H1215     1.0  0.50197  0.50241  0.79152  1.0000
  Fe  Fe140     1.0  0.86362  0.57675  0.75666  1.0000
  H   H1216     1.0  0.71787  0.63042  0.85033  1.0000
  H   H1217     1.0  0.93485  0.49665  0.76351  1.0000
  Fe  Fe141     1.0  0.96598  0.77759  0.89621  1.0000
  S   S280      1.0  0.93755  0.79683  0.89171  1.0000
  S   S281      1.0  0.95246  0.73766  0.91090  1.0000
  H   H1218     1.0  0.65396  0.67541  0.79339  1.0000
  H   H1219     1.0  0.95212  0.82136  0.97978  1.0000
  S   S282      1.0  0.95881  0.63903  0.78924  1.0000
  H   H1220     1.0  0.73667  0.57905  0.76366  1.0000
  C   C1012     1.0  0.79436  0.66131  0.87360  1.0000
  S   S283      1.0  0.68765  0.63467  0.78507  1.0000
  C   C1013     1.0  0.71712  0.73169  0.79181  1.0000
  Fe  Fe142     1.0  0.92546  0.60488  0.76848  1.0000
  C   C1014     1.0  0.95674  0.67378  0.84998  1.0000
  C   C1015     1.0  0.94335  0.64495  0.84556  1.0000
  C   C1016     1.0  0.94182  0.63406  0.82667  1.0000
  C   C1017     1.0  0.95421  0.65186  0.81189  1.0000
  H   H1221     1.0  0.91548  0.76244  0.93178  1.0000
  C   C1018     1.0  0.95286  0.80518  0.97027  1.0000
  H   H1222     1.0  0.93467  0.63085  0.85695  1.0000
  H   H1223     1.0  0.83186  0.74425  0.95053  1.0000
  C   C1019     1.0  0.66140  0.98173  0.89582  1.0000
  C   C1020     1.0  0.84570  0.74436  0.90179  1.0000
  C   C1021     1.0  0.85641  0.77260  0.89855  1.0000
  C   C1022     1.0  0.88441  0.78836  0.89461  1.0000
  C   C1023     1.0  0.90168  0.77592  0.89381  1.0000
  C   C1024     1.0  0.89045  0.74740  0.89607  1.0000
  C   C1025     1.0  0.86268  0.73176  0.90029  1.0000
  H   H1224     1.0  0.84343  0.78247  0.89968  1.0000
  H   H1225     1.0  0.89290  0.81039  0.89268  1.0000
  H   H1226     1.0  0.90329  0.73744  0.89496  1.0000
  H   H1227     1.0  0.85449  0.70990  0.90271  1.0000
  C   C1026     1.0  0.68763  0.66606  0.84731  1.0000
  C   C1027     1.0  0.71001  0.68054  0.83610  1.0000
  C   C1028     1.0  0.70982  0.67023  0.81731  1.0000
  C   C1029     1.0  0.68714  0.64557  0.80931  1.0000
  C   C1030     1.0  0.66480  0.63106  0.82054  1.0000
  C   C1031     1.0  0.66508  0.64129  0.83940  1.0000
  H   H1228     1.0  0.72738  0.69974  0.84182  1.0000
  H   H1229     1.0  0.72724  0.68160  0.80879  1.0000
  H   H1230     1.0  0.64720  0.61211  0.81464  1.0000
  H   H1231     1.0  0.64764  0.62989  0.84792  1.0000
  C   C1032     1.0  0.96701  0.68073  0.81619  1.0000
  H   H1232     1.0  0.81282  0.66564  0.86560  1.0000
  H   H1233     1.0  0.80203  0.65903  0.83355  1.0000
  H   H1234     1.0  0.69499  0.69346  0.77446  1.0000
  H   H1235     1.0  0.83869  0.87662  0.88209  1.0000
  H   H1236     1.0  0.73775  0.67104  0.86879  1.0000
  C   C1033     1.0  0.75246  0.73657  0.98669  1.0000
  C   C1034     1.0  0.73064  0.74273  0.98317  1.0000
  C   C1035     1.0  0.89910  0.77642  0.98467  1.0000
  S   S284      1.0  0.89006  0.56358  0.77528  1.0000
  H   H1237     1.0  0.76350  0.73479  0.97480  1.0000
  H   H1238     1.0  0.88039  0.97123  0.91777  1.0000
  C   C1036     1.0  0.74971  0.88552  0.90605  1.0000
  C   C1037     1.0  0.74509  0.86205  0.91636  1.0000
  C   C1038     1.0  0.74905  0.84055  0.90816  1.0000
  C   C1039     1.0  0.75796  0.84243  0.88956  1.0000
  C   C1040     1.0  0.76213  0.86565  0.87908  1.0000
  C   C1041     1.0  0.75781  0.88701  0.88720  1.0000
  H   H1239     1.0  0.73859  0.86056  0.93087  1.0000
  H   H1240     1.0  0.74566  0.82276  0.91637  1.0000
  H   H1241     1.0  0.76887  0.86719  0.86464  1.0000
  H   H1242     1.0  0.76068  0.90451  0.87887  1.0000
  H   H1243     1.0  0.95422  0.78917  0.97924  1.0000
  C   C1042     1.0  0.83897  0.91332  0.89439  1.0000
  H   H1244     1.0  0.74488  0.97189  0.96589  1.0000
  H   H1245     1.0  0.82873  0.74190  0.98584  1.0000
  H   H1246     1.0  0.80251  0.67451  0.88723  1.0000
  S   S285      1.0  0.65076  0.55149  0.76783  1.0000
  H   H1247     1.0  0.64563  0.98369  0.86111  1.0000
  C   C1043     1.0  0.69434  0.70605  0.78648  1.0000
  C   C1044     1.0  0.84889  0.75188  0.97997  1.0000
  C   C1045     1.0  0.82202  0.86955  0.90976  1.0000
  H   H1248     1.0  0.92605  0.83030  0.95212  1.0000
  H   H1249     1.0  0.87677  0.76686  0.93697  1.0000
  H   H1250     1.0  0.95009  0.82633  0.93728  1.0000
  H   H1251     1.0  0.73534  0.73916  0.78365  1.0000
  H   H1252     1.0  0.68411  0.98328  0.81863  1.0000
  H   H1253     1.0  0.80611  0.70001  0.84769  1.0000
  C   C1046     1.0  0.91759  0.71275  0.98259  1.0000
  N   N69       1.0  0.77393  0.66710  0.86244  1.0000
  S   S286      1.0  0.77042  0.97846  0.88224  1.0000
  C   C1047     1.0  0.81953  0.95680  0.89322  1.0000
  C   C1048     1.0  0.75286  0.66515  0.87573  1.0000
  C   C1049     1.0  0.77979  0.64633  0.83156  1.0000
  C   C1050     1.0  0.96766  0.69161  0.83495  1.0000
  H   H1254     1.0  0.79713  0.94395  0.89542  1.0000
  H   H1255     1.0  0.84932  0.69380  0.98446  1.0000
  H   H1256     1.0  0.70048  0.60050  0.82128  1.0000
  C   C1051     1.0  0.85066  0.75327  0.96011  1.0000
  N   N70       1.0  0.83691  0.95450  0.90941  1.0000
  H   H1257     1.0  0.82353  0.97862  0.89190  1.0000
  C   C1052     1.0  0.74021  0.96908  0.99655  1.0000
  H   H1258     1.0  0.93228  0.61185  0.82378  1.0000
  C   C1053     1.0  0.83192  0.92544  0.90993  1.0000
  C   C1054     1.0  0.81936  0.90814  0.92532  1.0000
  C   C1055     1.0  0.83401  0.88578  0.89436  1.0000
  C   C1056     1.0  0.81474  0.88071  0.92520  1.0000
  C   C1057     1.0  0.89075  0.70707  0.97638  1.0000
  H   H1259     1.0  0.81728  0.84791  0.90936  1.0000
  H   H1260     1.0  0.74184  0.95016  0.99723  1.0000
  C   C1058     1.0  0.87654  0.76635  0.95245  1.0000
  H   H1261     1.0  0.97688  0.69476  0.80499  1.0000
  H   H1262     1.0  0.88584  0.70950  0.96146  1.0000
  H   H1263     1.0  0.77376  0.70086  0.84726  1.0000
  H   H1264     1.0  0.78301  0.62802  0.80468  1.0000
  C   C1059     1.0  0.86648  0.97347  0.90649  1.0000
  C   C1060     1.0  0.73309  0.63046  0.84112  1.0000
  H   H1265     1.0  0.73233  0.59898  0.79824  1.0000
  H   H1266     1.0  0.81207  0.91496  0.93734  1.0000
  H   H1267     1.0  0.95196  0.78224  0.93637  1.0000
  H   H1268     1.0  0.80432  0.86757  0.93674  1.0000
  C   C1061     1.0  0.87305  0.76332  0.99221  1.0000
  H   H1269     1.0  0.93235  0.75535  0.95201  1.0000
  N   N71       1.0  0.69212  0.75358  0.83607  1.0000
  C   C1062     1.0  0.66790  0.75869  0.83332  1.0000
  C   C1063     1.0  0.68904  0.73746  0.85345  1.0000
  C   C1064     1.0  0.71720  0.78098  0.83997  1.0000
  C   C1065     1.0  0.69336  0.73764  0.81903  1.0000
  C   C1066     1.0  0.67062  0.71131  0.81325  1.0000
  C   C1067     1.0  0.71679  0.74739  0.80783  1.0000
  C   C1068     1.0  0.67115  0.69590  0.79717  1.0000
  H   H1270     1.0  0.64788  0.73915  0.83247  1.0000
  H   H1271     1.0  0.66707  0.77171  0.84553  1.0000
  H   H1272     1.0  0.66876  0.76961  0.81984  1.0000
  H   H1273     1.0  0.68820  0.74885  0.86661  1.0000
  H   H1274     1.0  0.70675  0.73299  0.85592  1.0000
  H   H1275     1.0  0.66984  0.71711  0.85242  1.0000
  H   H1276     1.0  0.72071  0.79464  0.82767  1.0000
  H   H1277     1.0  0.71547  0.79248  0.85279  1.0000
  H   H1278     1.0  0.73613  0.77872  0.84336  1.0000
  H   H1279     1.0  0.65246  0.70208  0.82140  1.0000
  H   H1280     1.0  0.73527  0.76687  0.81127  1.0000
  N   N72       1.0  0.92866  0.79256  0.95583  1.0000
  Fe  Fe143     1.0  0.66346  0.59686  0.76369  1.0000
  C   C1069     1.0  0.93214  0.77222  0.94351  1.0000
  C   C1070     1.0  0.92972  0.81502  0.94369  1.0000
  C   C1071     1.0  0.90159  0.77857  0.96445  1.0000
  C   C1072     1.0  0.74063  0.61222  0.81132  1.0000
  H   H1281     1.0  0.91409  0.80695  0.93116  1.0000
  Fe  Fe144     1.0  0.97783  0.72939  0.88962  1.0000
  C   C1073     1.0  0.76209  0.64776  0.84519  1.0000
  C   C1074     1.0  0.77642  0.57946  0.76525  1.0000
  C   C1075     1.0  0.72270  0.61301  0.82441  1.0000
  H   H1282     1.0  0.84772  0.92482  0.88190  1.0000
  H   H1283     1.0  0.87245  0.96968  0.89220  1.0000
  H   H1284     1.0  0.93369  0.71955  0.97251  1.0000
  H   H1285     1.0  0.97723  0.71375  0.83783  1.0000
  H   H1286     1.0  0.80770  0.95252  0.92967  1.0000
  H   H1287     1.0  0.82328  0.94990  0.87911  1.0000
  S   S287      1.0  0.96133  0.68608  0.87469  1.0000
  H   H1288     1.0  0.97282  0.81531  0.96320  1.0000
  H   H1289     1.0  0.69932  0.74930  0.99622  1.0000
  H   H1290     1.0  0.91691  0.78468  0.99496  1.0000
  H   H1291     1.0  0.78573  0.59639  0.77608  1.0000
  H   H1292     1.0  0.66715  0.97463  0.90941  1.0000
  C   C1076     1.0  0.71641  0.74483  0.99883  1.0000
  S   S288      1.0  0.82744  0.58165  0.76720  1.0000
  C   C1077     1.0  0.87018  0.69816  0.98938  1.0000
  H   H1293     1.0  0.83467  0.98668  0.92654  1.0000
  C   C1078     1.0  0.74183  0.98133  0.97870  1.0000
  H   H1294     1.0  0.84254  0.96347  0.94014  1.0000
  H   H1295     1.0  0.54579  0.50027  0.78964  1.0000
  H   H1296     1.0  0.63858  0.96898  0.89281  1.0000
  C   C1079     1.0  0.74863  0.56969  0.75825  1.0000
  C   C1080     1.0  0.79232  0.56766  0.75826  1.0000
